MODEL 1
REMARK VINA RESULT: -9.333999989      0.000      0.000
REMARK  13 active torsions:
REMARK  status: ('A' for Active; 'I' for Inactive)
REMARK    1  A    between atoms: C2_2  and  O1_3 
REMARK    2  A    between atoms: C2_2  and  C3_5 
REMARK    3  A    between atoms: C2_2  and  C4_8 
REMARK    4  A    between atoms: C3_5  and  O2_6 
REMARK    5  A    between atoms: C4_8  and  O3_9 
REMARK    6  A    between atoms: C4_8  and  C5_11 
REMARK    7  A    between atoms: C5_11  and  O4_12 
REMARK    8  A    between atoms: C5_11  and  C6_14 
REMARK    9  A    between atoms: C6_14  and  N1_15 
REMARK   10  A    between atoms: C8_17  and  C9_18 
REMARK   11  A    between atoms: C10_21  and  C11_22 
REMARK   12  A    between atoms: C12_25  and  C13_26 
REMARK   13  A    between atoms: C20_44  and  N10_45 
ROOT
HETATM    1  C9  UNL     1     221.562 -65.922  -1.793  1.00  0.00     0.089 A 
HETATM    2  N2  UNL     1     221.699 -66.467  -3.031  1.00  0.00    -0.349 N 
ATOM      3  H2  UNL     1     221.835 -65.827  -3.815  1.00  0.00     0.166 HD
HETATM    4  C10 UNL     1     221.668 -67.769  -3.300  1.00  0.00     0.078 A 
HETATM    5  C18 UNL     1     221.483 -68.632  -2.228  1.00  0.00     0.036 A 
HETATM    6  C19 UNL     1     221.340 -68.179  -0.949  1.00  0.00     0.034 A 
HETATM    7  C20 UNL     1     221.387 -66.775  -0.748  1.00  0.00     0.063 A 
ENDROOT
BRANCH   1   8
HETATM    8  C8  UNL     1     221.503 -64.451  -1.674  1.00  0.00     0.095 A 
HETATM    9  C7  UNL     1     222.638 -63.661  -1.433  1.00  0.00     0.145 A 
HETATM   10  N1  UNL     1     222.230 -62.385  -1.383  1.00  0.00    -0.284 N 
HETATM   11  N14 UNL     1     220.923 -62.359  -1.578  1.00  0.00    -0.240 N 
HETATM   12  N13 UNL     1     220.495 -63.595  -1.751  1.00  0.00    -0.283 N 
ATOM     13  H14 UNL     1     220.341 -61.522  -1.592  1.00  0.00     0.208 HD
ATOM     14  H13 UNL     1     219.524 -63.855  -1.920  1.00  0.00     0.188 HD
BRANCH  10  15
HETATM   15  C6  UNL     1     223.041 -61.211  -1.157  1.00  0.00     0.184 C 
BRANCH  15  16
HETATM   16  C5  UNL     1     222.324 -60.129  -0.386  1.00  0.00     0.169 C 
BRANCH  16  17
HETATM   17  C4  UNL     1     223.301 -59.096   0.101  1.00  0.00     0.184 C 
BRANCH  17  18
HETATM   18  C2  UNL     1     223.302 -59.014   1.616  1.00  0.00     0.103 C 
HETATM   19  C1  UNL     1     224.747 -59.237   2.071  1.00  0.00     0.051 C 
BRANCH  18  20
HETATM   20  O1  UNL     1     222.800 -57.823   2.087  1.00  0.00    -0.385 OA
ATOM     21  H1  UNL     1     222.371 -57.328   1.399  1.00  0.00     0.210 HD
ENDBRANCH  18  20
BRANCH  18  22
HETATM   22  C3  UNL     1     222.507 -60.173   2.195  1.00  0.00     0.204 C 
BRANCH  22  23
HETATM   23  O2  UNL     1     223.381 -61.080   2.780  1.00  0.00    -0.398 OA
ATOM     24  H2  UNL     1     223.109 -61.964   2.560  1.00  0.00     0.209 HD
ENDBRANCH  22  23
ENDBRANCH  18  22
ENDBRANCH  17  18
BRANCH  17  25
HETATM   25  O3  UNL     1     222.953 -57.844  -0.389  1.00  0.00    -0.390 OA
ATOM     26  H3  UNL     1     222.223 -57.960  -0.986  1.00  0.00     0.210 HD
ENDBRANCH  17  25
ENDBRANCH  16  17
BRANCH  16  27
HETATM   27  O4  UNL     1     221.325 -59.603  -1.170  1.00  0.00    -0.391 OA
ATOM     28  H4  UNL     1     220.468 -59.965  -0.977  1.00  0.00     0.210 HD
ENDBRANCH  16  27
ENDBRANCH  15  16
ENDBRANCH  10  15
ENDBRANCH   1   8
BRANCH   7  29
HETATM   29  N10 UNL     1     221.421 -66.358   0.600  1.00  0.00    -0.331 N 
HETATM   30  C21 UNL     1     220.424 -66.222   1.379  1.00  0.00     0.201 C 
HETATM   31  N11 UNL     1     219.086 -66.466   0.992  1.00  0.00    -0.066 NA
HETATM   32  N12 UNL     1     220.729 -65.787   2.728  1.00  0.00    -0.066 NA
ATOM     33  H10 UNL     1     222.339 -66.145   0.991  1.00  0.00     0.168 HD
ENDBRANCH   7  29
BRANCH   4  34
HETATM   34  C11 UNL     1     221.817 -68.336  -4.636  1.00  0.00     0.141 A 
HETATM   35  N3  UNL     1     222.984 -68.349  -5.344  1.00  0.00    -0.334 N 
HETATM   36  C12 UNL     1     222.798 -68.935  -6.526  1.00  0.00     0.126 A 
ATOM     37  H3  UNL     1     223.871 -67.967  -5.016  1.00  0.00     0.168 HD
HETATM   38  C14 UNL     1     221.462 -69.322  -6.601  1.00  0.00     0.144 A 
HETATM   39  N8  UNL     1     220.741 -69.943  -7.550  1.00  0.00    -0.350 N 
HETATM   40  N9  UNL     1     220.912 -68.938  -5.434  1.00  0.00    -0.290 N 
HETATM   41  C15 UNL     1     219.440 -70.224  -7.411  1.00  0.00     0.091 A 
ATOM     42  H8  UNL     1     221.208 -70.213  -8.416  1.00  0.00     0.166 HD
HETATM   43  C16 UNL     1     218.831 -69.854  -6.239  1.00  0.00     0.035 A 
HETATM   44  C17 UNL     1     219.606 -69.212  -5.279  1.00  0.00     0.102 A 
BRANCH  36  45
HETATM   45  C13 UNL     1     223.794 -69.145  -7.569  1.00  0.00     0.168 A 
HETATM   46  N4  UNL     1     223.929 -70.209  -8.383  1.00  0.00    -0.267 N 
HETATM   47  N5  UNL     1     224.941 -70.036  -9.191  1.00  0.00    -0.227 N 
ATOM     48  H4  UNL     1     223.327 -71.032  -8.370  1.00  0.00     0.190 HD
HETATM   49  N6  UNL     1     225.470 -68.863  -8.909  1.00  0.00    -0.227 N 
ATOM     50  H5  UNL     1     225.262 -70.688  -9.906  1.00  0.00     0.210 HD
HETATM   51  N7  UNL     1     224.784 -68.304  -7.922  1.00  0.00    -0.267 N 
ATOM     52  H6  UNL     1     226.279 -68.451  -9.375  1.00  0.00     0.210 HD
ATOM     53  H7  UNL     1     224.973 -67.393  -7.503  1.00  0.00     0.190 HD
ENDBRANCH  36  45
ENDBRANCH   4  34
TORSDOF 13
ENDMDL
MODEL 2
REMARK VINA RESULT: -9.294235227      1.123      1.302
REMARK  13 active torsions:
REMARK  status: ('A' for Active; 'I' for Inactive)
REMARK    1  A    between atoms: C2_2  and  O1_3 
REMARK    2  A    between atoms: C2_2  and  C3_5 
REMARK    3  A    between atoms: C2_2  and  C4_8 
REMARK    4  A    between atoms: C3_5  and  O2_6 
REMARK    5  A    between atoms: C4_8  and  O3_9 
REMARK    6  A    between atoms: C4_8  and  C5_11 
REMARK    7  A    between atoms: C5_11  and  O4_12 
REMARK    8  A    between atoms: C5_11  and  C6_14 
REMARK    9  A    between atoms: C6_14  and  N1_15 
REMARK   10  A    between atoms: C8_17  and  C9_18 
REMARK   11  A    between atoms: C10_21  and  C11_22 
REMARK   12  A    between atoms: C12_25  and  C13_26 
REMARK   13  A    between atoms: C20_44  and  N10_45 
ROOT
HETATM    1  C9  UNL     1     221.630 -66.390  -1.814  1.00  0.00     0.089 A 
HETATM    2  N2  UNL     1     221.720 -67.008  -3.022  1.00  0.00    -0.349 N 
ATOM      3  H2  UNL     1     221.939 -66.428  -3.833  1.00  0.00     0.166 HD
HETATM    4  C10 UNL     1     221.544 -68.310  -3.228  1.00  0.00     0.078 A 
HETATM    5  C18 UNL     1     221.247 -69.091  -2.120  1.00  0.00     0.036 A 
HETATM    6  C19 UNL     1     221.139 -68.562  -0.867  1.00  0.00     0.034 A 
HETATM    7  C20 UNL     1     221.344 -67.164  -0.733  1.00  0.00     0.063 A 
ENDROOT
BRANCH   1   8
HETATM    8  C8  UNL     1     221.739 -64.918  -1.768  1.00  0.00     0.095 A 
HETATM    9  C7  UNL     1     222.958 -64.239  -1.921  1.00  0.00     0.145 A 
HETATM   10  N1  UNL     1     222.698 -62.927  -1.825  1.00  0.00    -0.284 N 
HETATM   11  N14 UNL     1     221.400 -62.776  -1.624  1.00  0.00    -0.240 N 
HETATM   12  N13 UNL     1     220.833 -63.966  -1.591  1.00  0.00    -0.283 N 
ATOM     13  H14 UNL     1     220.916 -61.885  -1.512  1.00  0.00     0.208 HD
ATOM     14  H13 UNL     1     219.837 -64.132  -1.448  1.00  0.00     0.188 HD
BRANCH  10  15
HETATM   15  C6  UNL     1     223.638 -61.835  -1.918  1.00  0.00     0.184 C 
BRANCH  15  16
HETATM   16  C5  UNL     1     223.199 -60.602  -1.166  1.00  0.00     0.169 C 
BRANCH  16  17
HETATM   17  C4  UNL     1     223.667 -60.664   0.261  1.00  0.00     0.184 C 
BRANCH  17  18
HETATM   18  C2  UNL     1     222.503 -60.877   1.211  1.00  0.00     0.103 C 
HETATM   19  C1  UNL     1     222.642 -59.835   2.324  1.00  0.00     0.051 C 
BRANCH  18  20
HETATM   20  O1  UNL     1     221.281 -60.791   0.586  1.00  0.00    -0.385 OA
ATOM     21  H1  UNL     1     221.166 -61.483  -0.056  1.00  0.00     0.210 HD
ENDBRANCH  18  20
BRANCH  18  22
HETATM   22  C3  UNL     1     222.638 -62.228   1.895  1.00  0.00     0.204 C 
BRANCH  22  23
HETATM   23  O2  UNL     1     221.759 -63.128   1.307  1.00  0.00    -0.398 OA
ATOM     24  H2  UNL     1     221.174 -63.473   1.971  1.00  0.00     0.209 HD
ENDBRANCH  22  23
ENDBRANCH  18  22
ENDBRANCH  17  18
BRANCH  17  25
HETATM   25  O3  UNL     1     224.283 -59.469   0.612  1.00  0.00    -0.390 OA
ATOM     26  H3  UNL     1     224.919 -59.662   1.291  1.00  0.00     0.210 HD
ENDBRANCH  17  25
ENDBRANCH  16  17
BRANCH  16  27
HETATM   27  O4  UNL     1     223.640 -59.485  -1.833  1.00  0.00    -0.391 OA
ATOM     28  H4  UNL     1     223.446 -59.503  -2.763  1.00  0.00     0.210 HD
ENDBRANCH  16  27
ENDBRANCH  15  16
ENDBRANCH  10  15
ENDBRANCH   1   8
BRANCH   7  29
HETATM   29  N10 UNL     1     221.407 -66.686   0.594  1.00  0.00    -0.331 N 
HETATM   30  C21 UNL     1     220.423 -66.372   1.337  1.00  0.00     0.201 C 
HETATM   31  N11 UNL     1     219.073 -66.449   0.925  1.00  0.00    -0.066 NA
HETATM   32  N12 UNL     1     220.757 -65.914   2.671  1.00  0.00    -0.066 NA
ATOM     33  H10 UNL     1     222.338 -66.582   0.999  1.00  0.00     0.168 HD
ENDBRANCH   7  29
BRANCH   4  34
HETATM   34  C11 UNL     1     221.645 -68.956  -4.532  1.00  0.00     0.141 A 
HETATM   35  N3  UNL     1     222.772 -68.970  -5.303  1.00  0.00    -0.334 N 
HETATM   36  C12 UNL     1     222.547 -69.638  -6.433  1.00  0.00     0.126 A 
ATOM     37  H3  UNL     1     223.658 -68.532  -5.050  1.00  0.00     0.168 HD
HETATM   38  C14 UNL     1     221.227 -70.082  -6.408  1.00  0.00     0.144 A 
HETATM   39  N8  UNL     1     220.484 -70.792  -7.274  1.00  0.00    -0.350 N 
HETATM   40  N9  UNL     1     220.725 -69.644  -5.239  1.00  0.00    -0.290 N 
HETATM   41  C15 UNL     1     219.206 -71.114  -7.044  1.00  0.00     0.091 A 
ATOM     42  H8  UNL     1     220.915 -71.099  -8.146  1.00  0.00     0.166 HD
HETATM   43  C16 UNL     1     218.646 -70.692  -5.866  1.00  0.00     0.035 A 
HETATM   44  C17 UNL     1     219.443 -69.959  -4.993  1.00  0.00     0.102 A 
BRANCH  36  45
HETATM   45  C13 UNL     1     223.494 -69.876  -7.515  1.00  0.00     0.168 A 
HETATM   46  N4  UNL     1     223.725 -71.026  -8.175  1.00  0.00    -0.267 N 
HETATM   47  N5  UNL     1     224.649 -70.852  -9.082  1.00  0.00    -0.227 N 
ATOM     48  H4  UNL     1     223.247 -71.909  -7.993  1.00  0.00     0.190 HD
HETATM   49  N6  UNL     1     225.025 -69.591  -9.019  1.00  0.00    -0.227 N 
ATOM     50  H5  UNL     1     225.012 -71.559  -9.720  1.00  0.00     0.210 HD
HETATM   51  N7  UNL     1     224.331 -68.979  -8.069  1.00  0.00    -0.267 N 
ATOM     52  H6  UNL     1     225.736 -69.155  -9.607  1.00  0.00     0.210 HD
ATOM     53  H7  UNL     1     224.416 -67.998  -7.804  1.00  0.00     0.190 HD
ENDBRANCH  36  45
ENDBRANCH   4  34
TORSDOF 13
ENDMDL
MODEL 3
REMARK VINA RESULT: -9.185546895      3.241      6.176
REMARK  13 active torsions:
REMARK  status: ('A' for Active; 'I' for Inactive)
REMARK    1  A    between atoms: C2_2  and  O1_3 
REMARK    2  A    between atoms: C2_2  and  C3_5 
REMARK    3  A    between atoms: C2_2  and  C4_8 
REMARK    4  A    between atoms: C3_5  and  O2_6 
REMARK    5  A    between atoms: C4_8  and  O3_9 
REMARK    6  A    between atoms: C4_8  and  C5_11 
REMARK    7  A    between atoms: C5_11  and  O4_12 
REMARK    8  A    between atoms: C5_11  and  C6_14 
REMARK    9  A    between atoms: C6_14  and  N1_15 
REMARK   10  A    between atoms: C8_17  and  C9_18 
REMARK   11  A    between atoms: C10_21  and  C11_22 
REMARK   12  A    between atoms: C12_25  and  C13_26 
REMARK   13  A    between atoms: C20_44  and  N10_45 
ROOT
HETATM    1  C9  UNL     1     221.244 -65.729  -3.515  1.00  0.00     0.089 A 
HETATM    2  N2  UNL     1     220.409 -66.527  -2.797  1.00  0.00    -0.349 N 
ATOM      3  H2  UNL     1     220.127 -66.202  -1.872  1.00  0.00     0.166 HD
HETATM    4  C10 UNL     1     219.933 -67.699  -3.208  1.00  0.00     0.078 A 
HETATM    5  C18 UNL     1     220.323 -68.134  -4.468  1.00  0.00     0.036 A 
HETATM    6  C19 UNL     1     221.155 -67.401  -5.262  1.00  0.00     0.034 A 
HETATM    7  C20 UNL     1     221.616 -66.160  -4.750  1.00  0.00     0.063 A 
ENDROOT
BRANCH   1   8
HETATM    8  C8  UNL     1     221.777 -64.510  -2.872  1.00  0.00     0.095 A 
HETATM    9  C7  UNL     1     221.661 -64.263  -1.496  1.00  0.00     0.145 A 
HETATM   10  N1  UNL     1     222.244 -63.080  -1.253  1.00  0.00    -0.284 N 
HETATM   11  N14 UNL     1     222.702 -62.602  -2.398  1.00  0.00    -0.240 N 
HETATM   12  N13 UNL     1     222.420 -63.459  -3.360  1.00  0.00    -0.283 N 
ATOM     13  H14 UNL     1     223.193 -61.716  -2.517  1.00  0.00     0.208 HD
ATOM     14  H13 UNL     1     222.663 -63.331  -4.342  1.00  0.00     0.188 HD
BRANCH  10  15
HETATM   15  C6  UNL     1     222.373 -62.407   0.018  1.00  0.00     0.184 C 
BRANCH  15  16
HETATM   16  C5  UNL     1     222.093 -60.926  -0.059  1.00  0.00     0.169 C 
BRANCH  16  17
HETATM   17  C4  UNL     1     223.313 -60.185  -0.529  1.00  0.00     0.184 C 
BRANCH  17  18
HETATM   18  C2  UNL     1     223.540 -58.927   0.290  1.00  0.00     0.103 C 
HETATM   19  C1  UNL     1     225.054 -58.726   0.383  1.00  0.00     0.051 C 
BRANCH  18  20
HETATM   20  O1  UNL     1     222.913 -57.825  -0.242  1.00  0.00    -0.385 OA
ATOM     21  H1  UNL     1     222.509 -57.292   0.433  1.00  0.00     0.210 HD
ENDBRANCH  18  20
BRANCH  18  22
HETATM   22  C3  UNL     1     223.068 -59.150   1.717  1.00  0.00     0.204 C 
BRANCH  22  23
HETATM   23  O2  UNL     1     222.825 -57.921   2.316  1.00  0.00    -0.398 OA
ATOM     24  H2  UNL     1     223.634 -57.424   2.349  1.00  0.00     0.209 HD
ENDBRANCH  22  23
ENDBRANCH  18  22
ENDBRANCH  17  18
BRANCH  17  25
HETATM   25  O3  UNL     1     223.158 -59.802  -1.855  1.00  0.00    -0.390 OA
ATOM     26  H3  UNL     1     222.985 -58.868  -1.867  1.00  0.00     0.210 HD
ENDBRANCH  17  25
ENDBRANCH  16  17
BRANCH  16  27
HETATM   27  O4  UNL     1     220.993 -60.716  -0.855  1.00  0.00    -0.391 OA
ATOM     28  H4  UNL     1     220.172 -60.767  -0.380  1.00  0.00     0.210 HD
ENDBRANCH  16  27
ENDBRANCH  15  16
ENDBRANCH  10  15
ENDBRANCH   1   8
BRANCH   7  29
HETATM   29  N10 UNL     1     222.320 -65.351  -5.668  1.00  0.00    -0.331 N 
HETATM   30  C21 UNL     1     223.574 -65.361  -5.884  1.00  0.00     0.201 C 
HETATM   31  N11 UNL     1     224.481 -66.207  -5.206  1.00  0.00    -0.066 NA
HETATM   32  N12 UNL     1     224.051 -64.432  -6.891  1.00  0.00    -0.066 NA
ATOM     33  H10 UNL     1     221.767 -64.690  -6.214  1.00  0.00     0.168 HD
ENDBRANCH   7  29
BRANCH   4  34
HETATM   34  C11 UNL     1     219.038 -68.542  -2.424  1.00  0.00     0.141 A 
HETATM   35  N3  UNL     1     217.723 -68.762  -2.723  1.00  0.00    -0.334 N 
HETATM   36  C12 UNL     1     217.177 -69.575  -1.820  1.00  0.00     0.126 A 
ATOM     37  H3  UNL     1     217.232 -68.363  -3.523  1.00  0.00     0.168 HD
HETATM   38  C14 UNL     1     218.163 -69.904  -0.893  1.00  0.00     0.144 A 
HETATM   39  N8  UNL     1     218.164 -70.676   0.207  1.00  0.00    -0.350 N 
HETATM   40  N9  UNL     1     219.269 -69.254  -1.302  1.00  0.00    -0.290 N 
HETATM   41  C15 UNL     1     219.248 -70.857   0.970  1.00  0.00     0.091 A 
ATOM     42  H8  UNL     1     217.298 -71.145   0.472  1.00  0.00     0.166 HD
HETATM   43  C16 UNL     1     220.403 -70.217   0.596  1.00  0.00     0.035 A 
HETATM   44  C17 UNL     1     220.366 -69.425  -0.547  1.00  0.00     0.102 A 
BRANCH  36  45
HETATM   45  C13 UNL     1     215.800 -70.049  -1.787  1.00  0.00     0.168 A 
HETATM   46  N4  UNL     1     214.732 -69.455  -1.221  1.00  0.00    -0.267 N 
HETATM   47  N5  UNL     1     213.661 -70.183  -1.396  1.00  0.00    -0.227 N 
ATOM     48  H4  UNL     1     214.756 -68.563  -0.726  1.00  0.00     0.190 HD
HETATM   49  N6  UNL     1     214.023 -71.253  -2.073  1.00  0.00    -0.227 N 
ATOM     50  H5  UNL     1     212.721 -69.964  -1.069  1.00  0.00     0.210 HD
HETATM   51  N7  UNL     1     215.324 -71.190  -2.322  1.00  0.00    -0.267 N 
ATOM     52  H6  UNL     1     213.402 -72.010  -2.361  1.00  0.00     0.210 HD
ATOM     53  H7  UNL     1     215.871 -71.884  -2.830  1.00  0.00     0.190 HD
ENDBRANCH  36  45
ENDBRANCH   4  34
TORSDOF 13
ENDMDL
MODEL 4
REMARK VINA RESULT: -9.072240225      2.087      3.834
REMARK  13 active torsions:
REMARK  status: ('A' for Active; 'I' for Inactive)
REMARK    1  A    between atoms: C2_2  and  O1_3 
REMARK    2  A    between atoms: C2_2  and  C3_5 
REMARK    3  A    between atoms: C2_2  and  C4_8 
REMARK    4  A    between atoms: C3_5  and  O2_6 
REMARK    5  A    between atoms: C4_8  and  O3_9 
REMARK    6  A    between atoms: C4_8  and  C5_11 
REMARK    7  A    between atoms: C5_11  and  O4_12 
REMARK    8  A    between atoms: C5_11  and  C6_14 
REMARK    9  A    between atoms: C6_14  and  N1_15 
REMARK   10  A    between atoms: C8_17  and  C9_18 
REMARK   11  A    between atoms: C10_21  and  C11_22 
REMARK   12  A    between atoms: C12_25  and  C13_26 
REMARK   13  A    between atoms: C20_44  and  N10_45 
ROOT
HETATM    1  C9  UNL     1     223.278 -64.117  -2.810  1.00  0.00     0.089 A 
HETATM    2  N2  UNL     1     222.974 -65.283  -3.442  1.00  0.00    -0.349 N 
ATOM      3  H2  UNL     1     222.331 -65.920  -2.972  1.00  0.00     0.166 HD
HETATM    4  C10 UNL     1     223.453 -65.655  -4.626  1.00  0.00     0.078 A 
HETATM    5  C18 UNL     1     224.328 -64.782  -5.259  1.00  0.00     0.036 A 
HETATM    6  C19 UNL     1     224.689 -63.589  -4.703  1.00  0.00     0.034 A 
HETATM    7  C20 UNL     1     224.131 -63.266  -3.439  1.00  0.00     0.063 A 
ENDROOT
BRANCH   1   8
HETATM    8  C8  UNL     1     222.754 -63.902  -1.446  1.00  0.00     0.095 A 
HETATM    9  C7  UNL     1     223.576 -63.892  -0.308  1.00  0.00     0.145 A 
HETATM   10  N1  UNL     1     222.785 -63.674   0.753  1.00  0.00    -0.284 N 
HETATM   11  N14 UNL     1     221.540 -63.552   0.323  1.00  0.00    -0.240 N 
HETATM   12  N13 UNL     1     221.529 -63.689  -0.989  1.00  0.00    -0.283 N 
ATOM     13  H14 UNL     1     220.723 -63.381   0.909  1.00  0.00     0.208 HD
ATOM     14  H13 UNL     1     220.693 -63.638  -1.571  1.00  0.00     0.188 HD
BRANCH  10  15
HETATM   15  C6  UNL     1     223.178 -63.582   2.139  1.00  0.00     0.184 C 
BRANCH  15  16
HETATM   16  C5  UNL     1     223.384 -62.162   2.608  1.00  0.00     0.169 C 
BRANCH  16  17
HETATM   17  C4  UNL     1     222.439 -61.233   1.901  1.00  0.00     0.184 C 
BRANCH  17  18
HETATM   18  C2  UNL     1     223.193 -60.204   1.080  1.00  0.00     0.103 C 
HETATM   19  C1  UNL     1     223.162 -58.895   1.873  1.00  0.00     0.051 C 
BRANCH  18  20
HETATM   20  O1  UNL     1     224.481 -60.591   0.792  1.00  0.00    -0.385 OA
ATOM     21  H1  UNL     1     224.901 -60.997   1.542  1.00  0.00     0.210 HD
ENDBRANCH  18  20
BRANCH  18  22
HETATM   22  C3  UNL     1     222.440 -59.921  -0.209  1.00  0.00     0.204 C 
BRANCH  22  23
HETATM   23  O2  UNL     1     221.261 -60.654  -0.220  1.00  0.00    -0.398 OA
ATOM     24  H2  UNL     1     220.842 -60.561  -1.068  1.00  0.00     0.209 HD
ENDBRANCH  22  23
ENDBRANCH  18  22
ENDBRANCH  17  18
BRANCH  17  25
HETATM   25  O3  UNL     1     221.664 -60.547   2.828  1.00  0.00    -0.390 OA
ATOM     26  H3  UNL     1     222.229 -60.301   3.551  1.00  0.00     0.210 HD
ENDBRANCH  17  25
ENDBRANCH  16  17
BRANCH  16  27
HETATM   27  O4  UNL     1     223.266 -62.118   3.977  1.00  0.00    -0.391 OA
ATOM     28  H4  UNL     1     223.550 -62.918   4.403  1.00  0.00     0.210 HD
ENDBRANCH  16  27
ENDBRANCH  15  16
ENDBRANCH  10  15
ENDBRANCH   1   8
BRANCH   7  29
HETATM   29  N10 UNL     1     224.380 -61.952  -2.986  1.00  0.00    -0.331 N 
HETATM   30  C21 UNL     1     225.421 -61.542  -2.378  1.00  0.00     0.201 C 
HETATM   31  N11 UNL     1     226.515 -62.373  -2.047  1.00  0.00    -0.066 NA
HETATM   32  N12 UNL     1     225.435 -60.135  -2.026  1.00  0.00    -0.066 NA
ATOM     33  H10 UNL     1     223.652 -61.260  -3.164  1.00  0.00     0.168 HD
ENDBRANCH   7  29
BRANCH   4  34
HETATM   34  C11 UNL     1     223.116 -66.909  -5.290  1.00  0.00     0.141 A 
HETATM   35  N3  UNL     1     223.899 -67.524  -6.225  1.00  0.00    -0.334 N 
HETATM   36  C12 UNL     1     223.320 -68.649  -6.641  1.00  0.00     0.126 A 
ATOM     37  H3  UNL     1     224.798 -67.174  -6.555  1.00  0.00     0.168 HD
HETATM   38  C14 UNL     1     222.113 -68.783  -5.959  1.00  0.00     0.144 A 
HETATM   39  N8  UNL     1     221.144 -69.713  -5.987  1.00  0.00    -0.350 N 
HETATM   40  N9  UNL     1     222.036 -67.706  -5.155  1.00  0.00    -0.290 N 
HETATM   41  C15 UNL     1     220.043 -69.642  -5.230  1.00  0.00     0.091 A 
ATOM     42  H8  UNL     1     221.253 -70.510  -6.615  1.00  0.00     0.166 HD
HETATM   43  C16 UNL     1     219.915 -68.564  -4.392  1.00  0.00     0.035 A 
HETATM   44  C17 UNL     1     220.937 -67.620  -4.388  1.00  0.00     0.102 A 
BRANCH  36  45
HETATM   45  C13 UNL     1     223.835 -69.588  -7.630  1.00  0.00     0.168 A 
HETATM   46  N4  UNL     1     223.696 -70.927  -7.652  1.00  0.00    -0.267 N 
HETATM   47  N5  UNL     1     224.298 -71.428  -8.697  1.00  0.00    -0.227 N 
ATOM     48  H4  UNL     1     223.192 -71.472  -6.952  1.00  0.00     0.190 HD
HETATM   49  N6  UNL     1     224.831 -70.423  -9.360  1.00  0.00    -0.227 N 
ATOM     50  H5  UNL     1     224.345 -72.414  -8.953  1.00  0.00     0.210 HD
HETATM   51  N7  UNL     1     224.560 -69.291  -8.725  1.00  0.00    -0.267 N 
ATOM     52  H6  UNL     1     225.368 -70.502 -10.225  1.00  0.00     0.210 HD
ATOM     53  H7  UNL     1     224.849 -68.358  -9.015  1.00  0.00     0.190 HD
ENDBRANCH  36  45
ENDBRANCH   4  34
TORSDOF 13
ENDMDL
MODEL 5
REMARK VINA RESULT: -9.042256055      1.018      1.403
REMARK  13 active torsions:
REMARK  status: ('A' for Active; 'I' for Inactive)
REMARK    1  A    between atoms: C2_2  and  O1_3 
REMARK    2  A    between atoms: C2_2  and  C3_5 
REMARK    3  A    between atoms: C2_2  and  C4_8 
REMARK    4  A    between atoms: C3_5  and  O2_6 
REMARK    5  A    between atoms: C4_8  and  O3_9 
REMARK    6  A    between atoms: C4_8  and  C5_11 
REMARK    7  A    between atoms: C5_11  and  O4_12 
REMARK    8  A    between atoms: C5_11  and  C6_14 
REMARK    9  A    between atoms: C6_14  and  N1_15 
REMARK   10  A    between atoms: C8_17  and  C9_18 
REMARK   11  A    between atoms: C10_21  and  C11_22 
REMARK   12  A    between atoms: C12_25  and  C13_26 
REMARK   13  A    between atoms: C20_44  and  N10_45 
ROOT
HETATM    1  C9  UNL     1     220.783 -66.025  -2.139  1.00  0.00     0.089 A 
HETATM    2  N2  UNL     1     221.149 -66.538  -3.344  1.00  0.00    -0.349 N 
ATOM      3  H2  UNL     1     221.746 -65.963  -3.939  1.00  0.00     0.166 HD
HETATM    4  C10 UNL     1     220.788 -67.732  -3.806  1.00  0.00     0.078 A 
HETATM    5  C18 UNL     1     219.976 -68.508  -2.990  1.00  0.00     0.036 A 
HETATM    6  C19 UNL     1     219.560 -68.078  -1.763  1.00  0.00     0.034 A 
HETATM    7  C20 UNL     1     219.993 -66.794  -1.343  1.00  0.00     0.063 A 
ENDROOT
BRANCH   1   8
HETATM    8  C8  UNL     1     221.172 -64.636  -1.819  1.00  0.00     0.095 A 
HETATM    9  C7  UNL     1     222.225 -64.322  -0.946  1.00  0.00     0.145 A 
HETATM   10  N1  UNL     1     222.304 -62.986  -0.882  1.00  0.00    -0.284 N 
HETATM   11  N14 UNL     1     221.364 -62.477  -1.661  1.00  0.00    -0.240 N 
HETATM   12  N13 UNL     1     220.693 -63.467  -2.217  1.00  0.00    -0.283 N 
ATOM     13  H14 UNL     1     221.188 -61.484  -1.808  1.00  0.00     0.208 HD
ATOM     14  H13 UNL     1     219.913 -63.348  -2.864  1.00  0.00     0.188 HD
BRANCH  10  15
HETATM   15  C6  UNL     1     223.234 -62.195  -0.110  1.00  0.00     0.184 C 
BRANCH  15  16
HETATM   16  C5  UNL     1     222.652 -60.888   0.371  1.00  0.00     0.169 C 
BRANCH  16  17
HETATM   17  C4  UNL     1     222.906 -59.799  -0.633  1.00  0.00     0.184 C 
BRANCH  17  18
HETATM   18  C2  UNL     1     223.591 -58.609   0.012  1.00  0.00     0.103 C 
HETATM   19  C1  UNL     1     225.071 -58.685  -0.376  1.00  0.00     0.051 C 
BRANCH  18  20
HETATM   20  O1  UNL     1     223.032 -57.407  -0.357  1.00  0.00    -0.385 OA
ATOM     21  H1  UNL     1     222.131 -57.336  -0.064  1.00  0.00     0.210 HD
ENDBRANCH  18  20
BRANCH  18  22
HETATM   22  C3  UNL     1     223.556 -58.751   1.525  1.00  0.00     0.204 C 
BRANCH  22  23
HETATM   23  O2  UNL     1     222.799 -57.719   2.063  1.00  0.00    -0.398 OA
ATOM     24  H2  UNL     1     223.088 -56.893   1.693  1.00  0.00     0.209 HD
ENDBRANCH  22  23
ENDBRANCH  18  22
ENDBRANCH  17  18
BRANCH  17  25
HETATM   25  O3  UNL     1     221.704 -59.355  -1.168  1.00  0.00    -0.390 OA
ATOM     26  H3  UNL     1     221.657 -59.664  -2.065  1.00  0.00     0.210 HD
ENDBRANCH  17  25
ENDBRANCH  16  17
BRANCH  16  27
HETATM   27  O4  UNL     1     221.319 -61.065   0.653  1.00  0.00    -0.391 OA
ATOM     28  H4  UNL     1     220.843 -60.247   0.739  1.00  0.00     0.210 HD
ENDBRANCH  16  27
ENDBRANCH  15  16
ENDBRANCH  10  15
ENDBRANCH   1   8
BRANCH   7  29
HETATM   29  N10 UNL     1     219.697 -66.464  -0.003  1.00  0.00    -0.331 N 
HETATM   30  C21 UNL     1     220.405 -66.733   1.020  1.00  0.00     0.201 C 
HETATM   31  N11 UNL     1     221.630 -67.435   0.964  1.00  0.00    -0.066 NA
HETATM   32  N12 UNL     1     219.880 -66.274   2.292  1.00  0.00    -0.066 NA
ATOM     33  H10 UNL     1     218.827 -65.958   0.163  1.00  0.00     0.168 HD
ENDBRANCH   7  29
BRANCH   4  34
HETATM   34  C11 UNL     1     221.191 -68.267  -5.102  1.00  0.00     0.141 A 
HETATM   35  N3  UNL     1     222.459 -68.200  -5.606  1.00  0.00    -0.334 N 
HETATM   36  C12 UNL     1     222.507 -68.776  -6.806  1.00  0.00     0.126 A 
ATOM     37  H3  UNL     1     223.254 -67.772  -5.131  1.00  0.00     0.168 HD
HETATM   38  C14 UNL     1     221.229 -69.240  -7.105  1.00  0.00     0.144 A 
HETATM   39  N8  UNL     1     220.715 -69.887  -8.165  1.00  0.00    -0.350 N 
HETATM   40  N9  UNL     1     220.470 -68.908  -6.044  1.00  0.00    -0.290 N 
HETATM   41  C15 UNL     1     219.428 -70.246  -8.247  1.00  0.00     0.091 A 
ATOM     42  H8  UNL     1     221.335 -70.115  -8.943  1.00  0.00     0.166 HD
HETATM   43  C16 UNL     1     218.612 -69.931  -7.191  1.00  0.00     0.035 A 
HETATM   44  C17 UNL     1     219.176 -69.261  -6.111  1.00  0.00     0.102 A 
BRANCH  36  45
HETATM   45  C13 UNL     1     223.674 -68.911  -7.668  1.00  0.00     0.168 A 
HETATM   46  N4  UNL     1     223.964 -69.913  -8.520  1.00  0.00    -0.267 N 
HETATM   47  N5  UNL     1     225.100 -69.683  -9.122  1.00  0.00    -0.227 N 
ATOM     48  H4  UNL     1     223.379 -70.735  -8.672  1.00  0.00     0.190 HD
HETATM   49  N6  UNL     1     225.556 -68.534  -8.668  1.00  0.00    -0.227 N 
ATOM     50  H5  UNL     1     225.550 -70.281  -9.814  1.00  0.00     0.210 HD
HETATM   51  N7  UNL     1     224.700 -68.047  -7.780  1.00  0.00    -0.267 N 
ATOM     52  H6  UNL     1     226.429 -68.089  -8.954  1.00  0.00     0.210 HD
ATOM     53  H7  UNL     1     224.801 -67.169  -7.271  1.00  0.00     0.190 HD
ENDBRANCH  36  45
ENDBRANCH   4  34
TORSDOF 13
ENDMDL
