MODEL 1
REMARK VINA RESULT: -6.013888333      0.000      0.000
REMARK  4 active torsions:
REMARK  status: ('A' for Active; 'I' for Inactive)
REMARK    1  A    between atoms: N1_1  and  C1_5 
REMARK    2  A    between atoms: C1_5  and  C2_6 
REMARK    3  A    between atoms: C2_6  and  C3_7 
REMARK    4  A    between atoms: C3_7  and  C4_8 
ROOT
HETATM    1  C4  UNL     1     -26.332  15.034  58.823  1.00  0.00     0.124 C 
HETATM    2  C5  UNL     1     -27.258  14.635  59.904  1.00  0.00     0.103 C 
HETATM    3  N2  UNL     1     -28.635  14.627  59.672  1.00  0.00    -0.297 N 
ATOM      4  H2  UNL     1     -29.198  13.818  59.933  1.00  0.00     0.183 HD
HETATM    5  N3  UNL     1     -29.224  15.723  59.087  1.00  0.00    -0.021 NA
HETATM    6  N4  UNL     1     -29.051  15.699  57.705  1.00  0.00    -0.258 N 
ATOM      7  H4  UNL     1     -29.794  16.124  57.150  1.00  0.00     0.187 HD
HETATM    8  C6  UNL     1     -27.965  15.154  56.982  1.00  0.00     0.202 C 
HETATM    9  N5  UNL     1     -28.114  14.878  55.607  1.00  0.00    -0.062 NA
HETATM   10  N6  UNL     1     -26.797  14.873  57.483  1.00  0.00    -0.354 N 
ATOM     11  H6  UNL     1     -26.119  14.485  56.826  1.00  0.00     0.163 HD
ENDROOT
BRANCH   1  12
HETATM   12  C3  UNL     1     -25.064  14.179  58.945  1.00  0.00     0.032 C 
BRANCH  12  13
HETATM   13  C2  UNL     1     -24.366  14.442  60.257  1.00  0.00     0.029 C 
BRANCH  13  14
HETATM   14  C1  UNL     1     -24.287  13.184  61.100  1.00  0.00     0.230 C 
BRANCH  14  15
HETATM   15  N1  UNL     1     -23.045  13.109  61.844  1.00  0.00    -0.079 N 
ATOM     16  H13 UNL     1     -22.496  12.295  61.567  1.00  0.00     0.274 HD
ATOM     17  H12 UNL     1     -22.397  13.843  61.559  1.00  0.00     0.274 HD
ATOM     18  H11 UNL     1     -23.203  13.123  62.851  1.00  0.00     0.274 HD
ENDBRANCH  14  15
ENDBRANCH  13  14
ENDBRANCH  12  13
ENDBRANCH   1  12
TORSDOF 4
ENDMDL
MODEL 2
REMARK VINA RESULT: -5.963280021      1.239      2.381
REMARK  4 active torsions:
REMARK  status: ('A' for Active; 'I' for Inactive)
REMARK    1  A    between atoms: N1_1  and  C1_5 
REMARK    2  A    between atoms: C1_5  and  C2_6 
REMARK    3  A    between atoms: C2_6  and  C3_7 
REMARK    4  A    between atoms: C3_7  and  C4_8 
ROOT
HETATM    1  C4  UNL     1     -25.909  14.107  58.320  1.00  0.00     0.124 C 
HETATM    2  C5  UNL     1     -25.816  14.640  56.944  1.00  0.00     0.103 C 
HETATM    3  N2  UNL     1     -26.935  15.226  56.348  1.00  0.00    -0.297 N 
ATOM      4  H2  UNL     1     -26.859  16.132  55.886  1.00  0.00     0.183 HD
HETATM    5  N3  UNL     1     -28.141  14.567  56.392  1.00  0.00    -0.021 NA
HETATM    6  N4  UNL     1     -28.767  14.763  57.621  1.00  0.00    -0.258 N 
ATOM      7  H4  UNL     1     -29.787  14.766  57.612  1.00  0.00     0.187 HD
HETATM    8  C6  UNL     1     -28.153  14.957  58.880  1.00  0.00     0.202 C 
HETATM    9  N5  UNL     1     -28.902  15.506  59.941  1.00  0.00    -0.062 NA
HETATM   10  N6  UNL     1     -26.916  14.668  59.163  1.00  0.00    -0.354 N 
ATOM     11  H6  UNL     1     -26.626  14.869  60.120  1.00  0.00     0.163 HD
ENDROOT
BRANCH   1  12
HETATM   12  C3  UNL     1     -24.569  14.363  59.021  1.00  0.00     0.032 C 
BRANCH  12  13
HETATM   13  C2  UNL     1     -24.776  14.605  60.496  1.00  0.00     0.029 C 
BRANCH  13  14
HETATM   14  C1  UNL     1     -24.022  13.590  61.332  1.00  0.00     0.230 C 
BRANCH  14  15
HETATM   15  N1  UNL     1     -24.842  12.442  61.662  1.00  0.00    -0.079 N 
ATOM     16  H13 UNL     1     -24.869  12.283  62.669  1.00  0.00     0.274 HD
ATOM     17  H12 UNL     1     -25.832  12.637  61.505  1.00  0.00     0.274 HD
ATOM     18  H11 UNL     1     -24.546  11.605  61.162  1.00  0.00     0.274 HD
ENDBRANCH  14  15
ENDBRANCH  13  14
ENDBRANCH  12  13
ENDBRANCH   1  12
TORSDOF 4
ENDMDL
MODEL 3
REMARK VINA RESULT: -5.809311799      1.164      2.324
REMARK  4 active torsions:
REMARK  status: ('A' for Active; 'I' for Inactive)
REMARK    1  A    between atoms: N1_1  and  C1_5 
REMARK    2  A    between atoms: C1_5  and  C2_6 
REMARK    3  A    between atoms: C2_6  and  C3_7 
REMARK    4  A    between atoms: C3_7  and  C4_8 
ROOT
HETATM    1  C4  UNL     1     -26.849  14.489  59.404  1.00  0.00     0.124 C 
HETATM    2  C5  UNL     1     -25.681  14.709  58.525  1.00  0.00     0.103 C 
HETATM    3  N2  UNL     1     -25.872  15.145  57.212  1.00  0.00    -0.297 N 
ATOM      4  H2  UNL     1     -25.331  15.928  56.845  1.00  0.00     0.183 HD
HETATM    5  N3  UNL     1     -26.797  14.507  56.420  1.00  0.00    -0.021 NA
HETATM    6  N4  UNL     1     -28.084  14.965  56.696  1.00  0.00    -0.258 N 
ATOM      7  H4  UNL     1     -28.740  14.962  55.915  1.00  0.00     0.187 HD
HETATM    8  C6  UNL     1     -28.585  15.433  57.932  1.00  0.00     0.202 C 
HETATM    9  N5  UNL     1     -29.770  16.198  57.957  1.00  0.00    -0.062 NA
HETATM   10  N6  UNL     1     -28.038  15.217  59.093  1.00  0.00    -0.354 N 
ATOM     11  H6  UNL     1     -28.525  15.624  59.891  1.00  0.00     0.163 HD
ENDROOT
BRANCH   1  12
HETATM   12  C3  UNL     1     -26.455  14.898  60.829  1.00  0.00     0.032 C 
BRANCH  12  13
HETATM   13  C2  UNL     1     -24.985  14.652  61.068  1.00  0.00     0.029 C 
BRANCH  13  14
HETATM   14  C1  UNL     1     -24.765  13.737  62.255  1.00  0.00     0.230 C 
BRANCH  14  15
HETATM   15  N1  UNL     1     -24.890  12.339  61.893  1.00  0.00    -0.079 N 
ATOM     16  H13 UNL     1     -25.831  12.125  61.561  1.00  0.00     0.274 HD
ATOM     17  H12 UNL     1     -24.369  12.129  61.041  1.00  0.00     0.274 HD
ATOM     18  H11 UNL     1     -24.617  11.721  62.656  1.00  0.00     0.274 HD
ENDBRANCH  14  15
ENDBRANCH  13  14
ENDBRANCH  12  13
ENDBRANCH   1  12
TORSDOF 4
ENDMDL
MODEL 4
REMARK VINA RESULT: -5.780964897      1.757      2.358
REMARK  4 active torsions:
REMARK  status: ('A' for Active; 'I' for Inactive)
REMARK    1  A    between atoms: N1_1  and  C1_5 
REMARK    2  A    between atoms: C1_5  and  C2_6 
REMARK    3  A    between atoms: C2_6  and  C3_7 
REMARK    4  A    between atoms: C3_7  and  C4_8 
ROOT
HETATM    1  C4  UNL     1     -27.590  15.577  58.927  1.00  0.00     0.124 C 
HETATM    2  C5  UNL     1     -28.999  15.504  58.484  1.00  0.00     0.103 C 
HETATM    3  N2  UNL     1     -29.297  15.097  57.181  1.00  0.00    -0.297 N 
ATOM      4  H2  UNL     1     -30.006  14.384  57.012  1.00  0.00     0.183 HD
HETATM    5  N3  UNL     1     -28.622  15.669  56.129  1.00  0.00    -0.021 NA
HETATM    6  N4  UNL     1     -27.371  15.080  55.962  1.00  0.00    -0.258 N 
ATOM      7  H4  UNL     1     -27.012  15.046  55.009  1.00  0.00     0.187 HD
HETATM    8  C6  UNL     1     -26.543  14.522  56.963  1.00  0.00     0.202 C 
HETATM    9  N5  UNL     1     -25.502  13.645  56.593  1.00  0.00    -0.062 NA
HETATM   10  N6  UNL     1     -26.653  14.748  58.240  1.00  0.00    -0.354 N 
ATOM     11  H6  UNL     1     -25.975  14.268  58.831  1.00  0.00     0.163 HD
ENDROOT
BRANCH   1  12
HETATM   12  C3  UNL     1     -27.534  15.158  60.402  1.00  0.00     0.032 C 
BRANCH  12  13
HETATM   13  C2  UNL     1     -26.143  14.711  60.778  1.00  0.00     0.029 C 
BRANCH  13  14
HETATM   14  C1  UNL     1     -26.065  14.322  62.241  1.00  0.00     0.230 C 
BRANCH  14  15
HETATM   15  N1  UNL     1     -25.429  13.033  62.426  1.00  0.00    -0.079 N 
ATOM     16  H13 UNL     1     -24.521  12.998  61.962  1.00  0.00     0.274 HD
ATOM     17  H12 UNL     1     -25.120  12.908  63.390  1.00  0.00     0.274 HD
ATOM     18  H11 UNL     1     -26.029  12.265  62.126  1.00  0.00     0.274 HD
ENDBRANCH  14  15
ENDBRANCH  13  14
ENDBRANCH  12  13
ENDBRANCH   1  12
TORSDOF 4
ENDMDL
MODEL 5
REMARK VINA RESULT: -5.753019486      2.050      3.934
REMARK  4 active torsions:
REMARK  status: ('A' for Active; 'I' for Inactive)
REMARK    1  A    between atoms: N1_1  and  C1_5 
REMARK    2  A    between atoms: C1_5  and  C2_6 
REMARK    3  A    between atoms: C2_6  and  C3_7 
REMARK    4  A    between atoms: C3_7  and  C4_8 
ROOT
HETATM    1  C4  UNL     1     -27.603  14.612  59.271  1.00  0.00     0.124 C 
HETATM    2  C5  UNL     1     -26.140  14.728  59.096  1.00  0.00     0.103 C 
HETATM    3  N2  UNL     1     -25.609  14.967  57.827  1.00  0.00    -0.297 N 
ATOM      4  H2  UNL     1     -24.914  15.701  57.688  1.00  0.00     0.183 HD
HETATM    5  N3  UNL     1     -26.033  14.203  56.766  1.00  0.00    -0.021 NA
HETATM    6  N4  UNL     1     -27.252  14.667  56.278  1.00  0.00    -0.258 N 
ATOM      7  H4  UNL     1     -27.417  14.538  55.279  1.00  0.00     0.187 HD
HETATM    8  C6  UNL     1     -28.288  15.297  57.005  1.00  0.00     0.202 C 
HETATM    9  N5  UNL     1     -29.274  16.031  56.316  1.00  0.00    -0.062 NA
HETATM   10  N6  UNL     1     -28.424  15.262  58.299  1.00  0.00    -0.354 N 
ATOM     11  H6  UNL     1     -29.227  15.769  58.671  1.00  0.00     0.163 HD
ENDROOT
BRANCH   1  12
HETATM   12  C3  UNL     1     -27.970  15.229  60.627  1.00  0.00     0.032 C 
BRANCH  12  13
HETATM   13  C2  UNL     1     -28.905  14.324  61.390  1.00  0.00     0.029 C 
BRANCH  13  14
HETATM   14  C1  UNL     1     -29.758  15.109  62.366  1.00  0.00     0.230 C 
BRANCH  14  15
HETATM   15  N1  UNL     1     -31.157  14.738  62.283  1.00  0.00    -0.079 N 
ATOM     16  H13 UNL     1     -31.763  15.551  62.392  1.00  0.00     0.274 HD
ATOM     17  H12 UNL     1     -31.414  14.473  61.332  1.00  0.00     0.274 HD
ATOM     18  H11 UNL     1     -31.398  14.005  62.950  1.00  0.00     0.274 HD
ENDBRANCH  14  15
ENDBRANCH  13  14
ENDBRANCH  12  13
ENDBRANCH   1  12
TORSDOF 4
ENDMDL
