MODEL 1
REMARK VINA RESULT: -5.485739883      0.000      0.000
REMARK  7 active torsions:
REMARK  status: ('A' for Active; 'I' for Inactive)
REMARK    1  A    between atoms: N1_1  and  C1_4 
REMARK    2  A    between atoms: C2_7  and  C3_8 
REMARK    3  A    between atoms: C3_8  and  N3_9 
REMARK    4  A    between atoms: C3_8  and  C4_13 
REMARK    5  A    between atoms: C4_13  and  N4_14 
REMARK    6  A    between atoms: N4_14  and  N5_16 
REMARK    7  A    between atoms: N6_20  and  N7_21 
ROOT
HETATM    1  C1  UNL     1     -27.207  15.018  57.286  1.00  0.00     0.696 A 
HETATM    2  N2  UNL     1     -26.228  14.827  58.183  1.00  0.00    -0.190 N 
ATOM      3  H2  UNL     1     -25.252  14.646  57.950  1.00  0.00     0.184 HD
HETATM    4  C2  UNL     1     -26.716  14.909  59.431  1.00  0.00     0.080 A 
HETATM    5  C5  UNL     1     -28.064  15.161  59.289  1.00  0.00     0.162 A 
HETATM    6  N6  UNL     1     -28.350  15.225  57.964  1.00  0.00    -0.103 N 
ENDROOT
BRANCH   4   7
HETATM    7  C3  UNL     1     -26.001  14.766  60.721  1.00  0.00     0.274 C 
BRANCH   7   8
HETATM    8  N3  UNL     1     -26.785  13.955  61.657  1.00  0.00    -0.065 N 
ATOM      9  H33 UNL     1     -27.630  13.585  61.222  1.00  0.00     0.275 HD
ATOM     10  H32 UNL     1     -26.324  13.071  61.871  1.00  0.00     0.275 HD
ATOM     11  H31 UNL     1     -26.995  14.487  62.502  1.00  0.00     0.275 HD
ENDBRANCH   7   8
BRANCH   7  12
HETATM   12  C4  UNL     1     -24.685  14.132  60.458  1.00  0.00     0.118 C 
BRANCH  12  13
HETATM   13  N4  UNL     1     -24.413  12.961  60.909  1.00  0.00    -0.320 N 
ATOM     14  H4  UNL     1     -24.978  12.158  60.632  1.00  0.00     0.185 HD
BRANCH  13  15
HETATM   15  N5  UNL     1     -23.341  12.797  61.777  1.00  0.00    -0.346 N 
ATOM     16  H52 UNL     1     -23.100  13.550  62.421  1.00  0.00     0.176 HD
ATOM     17  H51 UNL     1     -22.810  11.926  61.758  1.00  0.00     0.176 HD
ENDBRANCH  13  15
ENDBRANCH  12  13
ENDBRANCH   7  12
ENDBRANCH   4   7
BRANCH   1  18
HETATM   18  N1  UNL     1     -27.139  15.015  55.995  1.00  0.00    -0.233 N 
ATOM     19  H12 UNL     1     -26.731  15.779  55.455  1.00  0.00     0.174 HD
ATOM     20  H11 UNL     1     -27.460  14.305  55.336  1.00  0.00     0.174 HD
ENDBRANCH   1  18
BRANCH   6  21
HETATM   21  N7  UNL     1     -29.627  15.467  57.473  1.00  0.00    -0.325 N 
ATOM     22  H72 UNL     1     -29.912  16.363  57.078  1.00  0.00     0.178 HD
ATOM     23  H71 UNL     1     -30.430  14.838  57.431  1.00  0.00     0.178 HD
ENDBRANCH   6  21
TORSDOF 7
ENDMDL
MODEL 2
REMARK VINA RESULT: -5.465584373      0.761      1.590
REMARK  7 active torsions:
REMARK  status: ('A' for Active; 'I' for Inactive)
REMARK    1  A    between atoms: N1_1  and  C1_4 
REMARK    2  A    between atoms: C2_7  and  C3_8 
REMARK    3  A    between atoms: C3_8  and  N3_9 
REMARK    4  A    between atoms: C3_8  and  C4_13 
REMARK    5  A    between atoms: C4_13  and  N4_14 
REMARK    6  A    between atoms: N4_14  and  N5_16 
REMARK    7  A    between atoms: N6_20  and  N7_21 
ROOT
HETATM    1  C1  UNL     1     -28.415  15.240  58.043  1.00  0.00     0.696 A 
HETATM    2  N2  UNL     1     -28.135  15.190  59.354  1.00  0.00    -0.190 N 
ATOM      3  H2  UNL     1     -28.816  15.328  60.101  1.00  0.00     0.184 HD
HETATM    4  C2  UNL     1     -26.830  14.934  59.543  1.00  0.00     0.080 A 
HETATM    5  C5  UNL     1     -26.285  14.823  58.282  1.00  0.00     0.162 A 
HETATM    6  N6  UNL     1     -27.272  15.014  57.371  1.00  0.00    -0.103 N 
ENDROOT
BRANCH   4   7
HETATM    7  C3  UNL     1     -26.086  14.791  60.816  1.00  0.00     0.274 C 
BRANCH   7   8
HETATM    8  N3  UNL     1     -26.816  13.923  61.744  1.00  0.00    -0.065 N 
ATOM      9  H33 UNL     1     -26.285  13.749  62.598  1.00  0.00     0.275 HD
ATOM     10  H32 UNL     1     -27.617  14.399  62.158  1.00  0.00     0.275 HD
ATOM     11  H31 UNL     1     -27.088  13.054  61.284  1.00  0.00     0.275 HD
ENDBRANCH   7   8
BRANCH   7  12
HETATM   12  C4  UNL     1     -24.749  14.223  60.515  1.00  0.00     0.118 C 
BRANCH  12  13
HETATM   13  N4  UNL     1     -24.435  13.034  60.886  1.00  0.00    -0.320 N 
ATOM     14  H4  UNL     1     -24.985  12.235  60.572  1.00  0.00     0.185 HD
BRANCH  13  15
HETATM   15  N5  UNL     1     -23.340  12.847  61.720  1.00  0.00    -0.346 N 
ATOM     16  H52 UNL     1     -22.615  13.563  61.761  1.00  0.00     0.176 HD
ATOM     17  H51 UNL     1     -23.277  11.996  62.279  1.00  0.00     0.176 HD
ENDBRANCH  13  15
ENDBRANCH  12  13
ENDBRANCH   7  12
ENDBRANCH   4   7
BRANCH   1  18
HETATM   18  N1  UNL     1     -29.548  15.462  57.461  1.00  0.00    -0.233 N 
ATOM     19  H12 UNL     1     -30.160  14.717  57.128  1.00  0.00     0.174 HD
ATOM     20  H11 UNL     1     -29.996  16.352  57.246  1.00  0.00     0.174 HD
ENDBRANCH   1  18
BRANCH   6  21
HETATM   21  N7  UNL     1     -27.059  14.968  55.998  1.00  0.00    -0.325 N 
ATOM     22  H72 UNL     1     -26.660  14.159  55.523  1.00  0.00     0.178 HD
ATOM     23  H71 UNL     1     -27.251  15.681  55.294  1.00  0.00     0.178 HD
ENDBRANCH   6  21
TORSDOF 7
ENDMDL
MODEL 3
REMARK VINA RESULT: -5.399492148      1.554      4.701
REMARK  7 active torsions:
REMARK  status: ('A' for Active; 'I' for Inactive)
REMARK    1  A    between atoms: N1_1  and  C1_4 
REMARK    2  A    between atoms: C2_7  and  C3_8 
REMARK    3  A    between atoms: C3_8  and  N3_9 
REMARK    4  A    between atoms: C3_8  and  C4_13 
REMARK    5  A    between atoms: C4_13  and  N4_14 
REMARK    6  A    between atoms: N4_14  and  N5_16 
REMARK    7  A    between atoms: N6_20  and  N7_21 
ROOT
HETATM    1  C1  UNL     1     -24.661  14.185  60.150  1.00  0.00     0.696 A 
HETATM    2  N2  UNL     1     -25.970  14.325  60.406  1.00  0.00    -0.190 N 
ATOM      3  H2  UNL     1     -26.395  14.248  61.331  1.00  0.00     0.184 HD
HETATM    4  C2  UNL     1     -26.644  14.580  59.272  1.00  0.00     0.080 A 
HETATM    5  C5  UNL     1     -25.696  14.596  58.271  1.00  0.00     0.162 A 
HETATM    6  N6  UNL     1     -24.482  14.351  58.827  1.00  0.00    -0.103 N 
ENDROOT
BRANCH   4   7
HETATM    7  C3  UNL     1     -28.096  14.805  59.083  1.00  0.00     0.274 C 
BRANCH   7   8
HETATM    8  N3  UNL     1     -28.710  15.275  60.328  1.00  0.00    -0.065 N 
ATOM      9  H33 UNL     1     -28.322  14.801  61.145  1.00  0.00     0.275 HD
ATOM     10  H32 UNL     1     -28.426  16.228  60.556  1.00  0.00     0.275 HD
ATOM     11  H31 UNL     1     -29.725  15.183  60.284  1.00  0.00     0.275 HD
ENDBRANCH   7   8
BRANCH   7  12
HETATM   12  C4  UNL     1     -28.278  15.805  58.003  1.00  0.00     0.118 C 
BRANCH  12  13
HETATM   13  N4  UNL     1     -28.875  15.496  56.908  1.00  0.00    -0.320 N 
ATOM     14  H4  UNL     1     -29.885  15.610  56.822  1.00  0.00     0.185 HD
BRANCH  13  15
HETATM   15  N5  UNL     1     -28.132  15.005  55.842  1.00  0.00    -0.346 N 
ATOM     16  H52 UNL     1     -27.117  15.100  55.854  1.00  0.00     0.176 HD
ATOM     17  H51 UNL     1     -28.612  14.555  55.063  1.00  0.00     0.176 HD
ENDBRANCH  13  15
ENDBRANCH  12  13
ENDBRANCH   7  12
ENDBRANCH   4   7
BRANCH   1  18
HETATM   18  N1  UNL     1     -23.694  13.935  60.970  1.00  0.00    -0.233 N 
ATOM     19  H12 UNL     1     -23.657  14.306  61.920  1.00  0.00     0.174 HD
ATOM     20  H11 UNL     1     -22.859  13.368  60.825  1.00  0.00     0.174 HD
ENDBRANCH   1  18
BRANCH   6  21
HETATM   21  N7  UNL     1     -23.306  14.298  58.090  1.00  0.00    -0.325 N 
ATOM     22  H72 UNL     1     -23.112  13.572  57.400  1.00  0.00     0.178 HD
ATOM     23  H71 UNL     1     -22.503  14.927  58.114  1.00  0.00     0.178 HD
ENDBRANCH   6  21
TORSDOF 7
ENDMDL
MODEL 4
REMARK VINA RESULT: -5.399302316      1.345      2.360
REMARK  7 active torsions:
REMARK  status: ('A' for Active; 'I' for Inactive)
REMARK    1  A    between atoms: N1_1  and  C1_4 
REMARK    2  A    between atoms: C2_7  and  C3_8 
REMARK    3  A    between atoms: C3_8  and  N3_9 
REMARK    4  A    between atoms: C3_8  and  C4_13 
REMARK    5  A    between atoms: C4_13  and  N4_14 
REMARK    6  A    between atoms: N4_14  and  N5_16 
REMARK    7  A    between atoms: N6_20  and  N7_21 
ROOT
HETATM    1  C1  UNL     1     -27.824  15.162  58.128  1.00  0.00     0.696 A 
HETATM    2  N2  UNL     1     -26.846  14.834  58.985  1.00  0.00    -0.190 N 
ATOM      3  H2  UNL     1     -26.909  14.915  60.000  1.00  0.00     0.184 HD
HETATM    4  C2  UNL     1     -25.772  14.383  58.316  1.00  0.00     0.080 A 
HETATM    5  C5  UNL     1     -26.112  14.441  56.982  1.00  0.00     0.162 A 
HETATM    6  N6  UNL     1     -27.377  14.922  56.883  1.00  0.00    -0.103 N 
ENDROOT
BRANCH   4   7
HETATM    7  C3  UNL     1     -24.473  13.912  58.852  1.00  0.00     0.274 C 
BRANCH   7   8
HETATM    8  N3  UNL     1     -23.375  14.322  57.973  1.00  0.00    -0.065 N 
ATOM      9  H33 UNL     1     -23.697  14.501  57.022  1.00  0.00     0.275 HD
ATOM     10  H32 UNL     1     -23.038  15.258  58.198  1.00  0.00     0.275 HD
ATOM     11  H31 UNL     1     -22.622  13.634  57.996  1.00  0.00     0.275 HD
ENDBRANCH   7   8
BRANCH   7  12
HETATM   12  C4  UNL     1     -24.294  14.480  60.211  1.00  0.00     0.118 C 
BRANCH  12  13
HETATM   13  N4  UNL     1     -23.880  13.750  61.184  1.00  0.00    -0.320 N 
ATOM     14  H4  UNL     1     -23.009  13.978  61.664  1.00  0.00     0.185 HD
BRANCH  13  15
HETATM   15  N5  UNL     1     -24.630  12.648  61.576  1.00  0.00    -0.346 N 
ATOM     16  H52 UNL     1     -24.177  11.739  61.656  1.00  0.00     0.176 HD
ATOM     17  H51 UNL     1     -25.622  12.765  61.779  1.00  0.00     0.176 HD
ENDBRANCH  13  15
ENDBRANCH  12  13
ENDBRANCH   7  12
ENDBRANCH   4   7
BRANCH   1  18
HETATM   18  N1  UNL     1     -29.003  15.630  58.380  1.00  0.00    -0.233 N 
ATOM     19  H12 UNL     1     -29.342  16.519  58.012  1.00  0.00     0.174 HD
ATOM     20  H11 UNL     1     -29.746  15.226  58.949  1.00  0.00     0.174 HD
ENDBRANCH   1  18
BRANCH   6  21
HETATM   21  N7  UNL     1     -28.027  15.106  55.668  1.00  0.00    -0.325 N 
ATOM     22  H72 UNL     1     -27.908  15.939  55.093  1.00  0.00     0.178 HD
ATOM     23  H71 UNL     1     -28.680  14.486  55.189  1.00  0.00     0.178 HD
ENDBRANCH   6  21
TORSDOF 7
ENDMDL
MODEL 5
REMARK VINA RESULT: -5.381400401      1.616      2.979
REMARK  7 active torsions:
REMARK  status: ('A' for Active; 'I' for Inactive)
REMARK    1  A    between atoms: N1_1  and  C1_4 
REMARK    2  A    between atoms: C2_7  and  C3_8 
REMARK    3  A    between atoms: C3_8  and  N3_9 
REMARK    4  A    between atoms: C3_8  and  C4_13 
REMARK    5  A    between atoms: C4_13  and  N4_14 
REMARK    6  A    between atoms: N4_14  and  N5_16 
REMARK    7  A    between atoms: N6_20  and  N7_21 
ROOT
HETATM    1  C1  UNL     1     -28.389  14.735  60.489  1.00  0.00     0.696 A 
HETATM    2  N2  UNL     1     -27.162  14.427  60.935  1.00  0.00    -0.190 N 
ATOM      3  H2  UNL     1     -26.949  14.105  61.879  1.00  0.00     0.184 HD
HETATM    4  C2  UNL     1     -26.253  14.602  59.961  1.00  0.00     0.080 A 
HETATM    5  C5  UNL     1     -26.963  15.042  58.864  1.00  0.00     0.162 A 
HETATM    6  N6  UNL     1     -28.274  15.119  59.205  1.00  0.00    -0.103 N 
ENDROOT
BRANCH   4   7
HETATM    7  C3  UNL     1     -24.789  14.384  60.005  1.00  0.00     0.274 C 
BRANCH   7   8
HETATM    8  N3  UNL     1     -24.483  13.052  60.535  1.00  0.00    -0.065 N 
ATOM      9  H33 UNL     1     -24.019  13.103  61.443  1.00  0.00     0.275 HD
ATOM     10  H32 UNL     1     -25.326  12.555  60.823  1.00  0.00     0.275 HD
ATOM     11  H31 UNL     1     -23.938  12.515  59.861  1.00  0.00     0.275 HD
ENDBRANCH   7   8
BRANCH   7  12
HETATM   12  C4  UNL     1     -24.252  14.533  58.631  1.00  0.00     0.118 C 
BRANCH  12  13
HETATM   13  N4  UNL     1     -24.024  13.506  57.893  1.00  0.00    -0.320 N 
ATOM     14  H4  UNL     1     -23.224  12.902  58.083  1.00  0.00     0.185 HD
BRANCH  13  15
HETATM   15  N5  UNL     1     -24.878  13.225  56.834  1.00  0.00    -0.346 N 
ATOM     16  H52 UNL     1     -25.845  13.546  56.873  1.00  0.00     0.176 HD
ATOM     17  H51 UNL     1     -24.525  12.702  56.032  1.00  0.00     0.176 HD
ENDBRANCH  13  15
ENDBRANCH  12  13
ENDBRANCH   7  12
ENDBRANCH   4   7
BRANCH   1  18
HETATM   18  N1  UNL     1     -29.517  14.697  61.119  1.00  0.00    -0.233 N 
ATOM     19  H12 UNL     1     -30.185  13.932  61.024  1.00  0.00     0.174 HD
ATOM     20  H11 UNL     1     -29.911  15.374  61.773  1.00  0.00     0.174 HD
ENDBRANCH   1  18
BRANCH   6  21
HETATM   21  N7  UNL     1     -29.266  15.531  58.322  1.00  0.00    -0.325 N 
ATOM     22  H72 UNL     1     -30.243  15.637  58.593  1.00  0.00     0.178 HD
ATOM     23  H71 UNL     1     -29.186  15.777  57.335  1.00  0.00     0.178 HD
ENDBRANCH   6  21
TORSDOF 7
ENDMDL
