MODEL 1
REMARK VINA RESULT: -6.304560289      0.000      0.000
REMARK  3 active torsions:
REMARK  status: ('A' for Active; 'I' for Inactive)
REMARK    1  A    between atoms: N1_1  and  C1_4 
REMARK    2  A    between atoms: C2_7  and  C3_8 
REMARK    3  A    between atoms: N3_9  and  N4_11 
REMARK       I    between atoms: N4_11  and  C4_13 
REMARK       I    between atoms: C4_13  and  N5_14 
REMARK       I    between atoms: C4_13  and  N6_18 
ROOT
HETATM    1  C3  UNL     1     -25.240  14.499  58.441  1.00  0.00     0.165 C 
HETATM    2  N3  UNL     1     -25.210  13.671  59.416  1.00  0.00    -0.309 N 
ATOM      3  H3  UNL     1     -26.069  13.188  59.678  1.00  0.00     0.185 HD
ENDROOT
BRANCH   2   4
HETATM    4  N4  UNL     1     -24.051  13.407  60.130  1.00  0.00    -0.284 N 
HETATM    5  C4  UNL     1     -24.118  13.433  61.578  1.00  0.00     0.494 C 
HETATM    6  N5  UNL     1     -22.799  13.131  62.099  1.00  0.00    -0.032 N 
HETATM    7  N6  UNL     1     -24.475  14.787  62.025  1.00  0.00    -0.032 N 
ATOM      8  H53 UNL     1     -22.426  12.253  61.739  1.00  0.00     0.279 HD
ATOM      9  H52 UNL     1     -22.079  13.749  61.728  1.00  0.00     0.279 HD
ATOM     10  H51 UNL     1     -22.846  13.149  63.118  1.00  0.00     0.279 HD
ATOM     11  H63 UNL     1     -23.841  15.495  61.655  1.00  0.00     0.279 HD
ATOM     12  H62 UNL     1     -25.335  15.123  61.592  1.00  0.00     0.279 HD
ATOM     13  H61 UNL     1     -24.521  14.805  63.043  1.00  0.00     0.279 HD
ATOM     14  H4  UNL     1     -23.176  13.201  59.649  1.00  0.00     0.184 HD
ENDBRANCH   2   4
BRANCH   1  15
HETATM   15  C2  UNL     1     -26.491  14.751  57.708  1.00  0.00     0.202 A 
HETATM   16  N2  UNL     1     -27.653  15.215  58.191  1.00  0.00    -0.166 N 
HETATM   17  C1  UNL     1     -28.557  15.306  57.197  1.00  0.00     0.698 A 
ATOM     18  H2  UNL     1     -27.827  15.461  59.165  1.00  0.00     0.186 HD
HETATM   19  N7  UNL     1     -27.909  14.884  56.097  1.00  0.00    -0.089 N 
HETATM   20  O1  UNL     1     -26.674  14.556  56.426  1.00  0.00    -0.203 OA
ATOM     21  H7  UNL     1     -28.308  14.826  55.160  1.00  0.00     0.213 HD
BRANCH  17  22
HETATM   22  N1  UNL     1     -29.788  15.705  57.234  1.00  0.00    -0.233 N 
ATOM     23  H12 UNL     1     -30.105  16.657  57.049  1.00  0.00     0.174 HD
ATOM     24  H11 UNL     1     -30.637  15.179  57.443  1.00  0.00     0.174 HD
ENDBRANCH  17  22
ENDBRANCH   1  15
TORSDOF 3
ENDMDL
MODEL 2
REMARK VINA RESULT: -6.069202594      1.957      2.370
REMARK  3 active torsions:
REMARK  status: ('A' for Active; 'I' for Inactive)
REMARK    1  A    between atoms: N1_1  and  C1_4 
REMARK    2  A    between atoms: C2_7  and  C3_8 
REMARK    3  A    between atoms: N3_9  and  N4_11 
REMARK       I    between atoms: N4_11  and  C4_13 
REMARK       I    between atoms: C4_13  and  N5_14 
REMARK       I    between atoms: C4_13  and  N6_18 
ROOT
HETATM    1  C3  UNL     1     -27.621  15.064  60.533  1.00  0.00     0.165 C 
HETATM    2  N3  UNL     1     -26.664  14.274  60.847  1.00  0.00    -0.309 N 
ATOM      3  H3  UNL     1     -26.225  13.718  60.112  1.00  0.00     0.185 HD
ENDROOT
BRANCH   2   4
HETATM    4  N4  UNL     1     -26.204  14.147  62.147  1.00  0.00    -0.284 N 
HETATM    5  C4  UNL     1     -24.866  13.626  62.352  1.00  0.00     0.494 C 
HETATM    6  N5  UNL     1     -24.608  13.585  63.779  1.00  0.00    -0.032 N 
HETATM    7  N6  UNL     1     -24.798  12.248  61.846  1.00  0.00    -0.032 N 
ATOM      8  H53 UNL     1     -24.751  14.488  64.230  1.00  0.00     0.279 HD
ATOM      9  H52 UNL     1     -25.317  13.060  64.291  1.00  0.00     0.279 HD
ATOM     10  H51 UNL     1     -23.667  13.218  63.923  1.00  0.00     0.279 HD
ATOM     11  H63 UNL     1     -25.513  11.649  62.259  1.00  0.00     0.279 HD
ATOM     12  H62 UNL     1     -25.095  12.178  60.872  1.00  0.00     0.279 HD
ATOM     13  H61 UNL     1     -23.857  11.882  61.990  1.00  0.00     0.279 HD
ATOM     14  H4  UNL     1     -26.790  14.413  62.939  1.00  0.00     0.184 HD
ENDBRANCH   2   4
BRANCH   1  15
HETATM   15  C2  UNL     1     -28.082  15.170  59.139  1.00  0.00     0.202 A 
HETATM   16  N2  UNL     1     -27.389  14.923  58.018  1.00  0.00    -0.166 N 
HETATM   17  C1  UNL     1     -28.169  15.138  56.941  1.00  0.00     0.698 A 
ATOM     18  H2  UNL     1     -26.416  14.619  57.985  1.00  0.00     0.186 HD
HETATM   19  N7  UNL     1     -29.356  15.523  57.443  1.00  0.00    -0.089 N 
HETATM   20  O1  UNL     1     -29.281  15.535  58.760  1.00  0.00    -0.203 OA
ATOM     21  H7  UNL     1     -30.181  15.766  56.893  1.00  0.00     0.213 HD
BRANCH  17  22
HETATM   22  N1  UNL     1     -27.892  15.016  55.683  1.00  0.00    -0.233 N 
ATOM     23  H12 UNL     1     -27.351  15.682  55.131  1.00  0.00     0.174 HD
ATOM     24  H11 UNL     1     -28.145  14.275  55.029  1.00  0.00     0.174 HD
ENDBRANCH  17  22
ENDBRANCH   1  15
TORSDOF 3
ENDMDL
MODEL 3
REMARK VINA RESULT: -5.922366906      2.226      3.035
REMARK  3 active torsions:
REMARK  status: ('A' for Active; 'I' for Inactive)
REMARK    1  A    between atoms: N1_1  and  C1_4 
REMARK    2  A    between atoms: C2_7  and  C3_8 
REMARK    3  A    between atoms: N3_9  and  N4_11 
REMARK       I    between atoms: N4_11  and  C4_13 
REMARK       I    between atoms: C4_13  and  N5_14 
REMARK       I    between atoms: C4_13  and  N6_18 
ROOT
HETATM    1  C3  UNL     1     -24.618  14.115  60.886  1.00  0.00     0.165 C 
HETATM    2  N3  UNL     1     -25.458  13.353  61.478  1.00  0.00    -0.309 N 
ATOM      3  H3  UNL     1     -26.258  13.001  60.952  1.00  0.00     0.185 HD
ENDROOT
BRANCH   2   4
HETATM    4  N4  UNL     1     -25.320  12.989  62.808  1.00  0.00    -0.284 N 
HETATM    5  C4  UNL     1     -24.345  11.970  63.141  1.00  0.00     0.494 C 
HETATM    6  N5  UNL     1     -24.380  11.758  64.576  1.00  0.00    -0.032 N 
HETATM    7  N6  UNL     1     -24.722  10.705  62.494  1.00  0.00    -0.032 N 
ATOM      8  H53 UNL     1     -24.244  12.620  65.104  1.00  0.00     0.279 HD
ATOM      9  H52 UNL     1     -25.315  11.534  64.916  1.00  0.00     0.279 HD
ATOM     10  H51 UNL     1     -23.694  11.041  64.810  1.00  0.00     0.279 HD
ATOM     11  H63 UNL     1     -25.673  10.420  62.728  1.00  0.00     0.279 HD
ATOM     12  H62 UNL     1     -24.845  10.808  61.487  1.00  0.00     0.279 HD
ATOM     13  H61 UNL     1     -24.036   9.988  62.729  1.00  0.00     0.279 HD
ATOM     14  H4  UNL     1     -25.890  13.426  63.532  1.00  0.00     0.184 HD
ENDBRANCH   2   4
BRANCH   1  15
HETATM   15  C2  UNL     1     -24.800  14.479  59.472  1.00  0.00     0.202 A 
HETATM   16  N2  UNL     1     -25.918  14.402  58.735  1.00  0.00    -0.166 N 
HETATM   17  C1  UNL     1     -25.671  14.831  57.482  1.00  0.00     0.698 A 
ATOM     18  H2  UNL     1     -26.821  14.068  59.072  1.00  0.00     0.186 HD
HETATM   19  N7  UNL     1     -24.370  15.170  57.481  1.00  0.00    -0.089 N 
HETATM   20  O1  UNL     1     -23.868  14.951  58.682  1.00  0.00    -0.203 OA
ATOM     21  H7  UNL     1     -23.854  15.538  56.681  1.00  0.00     0.213 HD
BRANCH  17  22
HETATM   22  N1  UNL     1     -26.468  14.919  56.467  1.00  0.00    -0.233 N 
ATOM     23  H12 UNL     1     -26.713  14.152  55.840  1.00  0.00     0.174 HD
ATOM     24  H11 UNL     1     -26.982  15.725  56.110  1.00  0.00     0.174 HD
ENDBRANCH  17  22
ENDBRANCH   1  15
TORSDOF 3
ENDMDL
MODEL 4
REMARK VINA RESULT: -5.855984906      1.216      1.248
REMARK  3 active torsions:
REMARK  status: ('A' for Active; 'I' for Inactive)
REMARK    1  A    between atoms: N1_1  and  C1_4 
REMARK    2  A    between atoms: C2_7  and  C3_8 
REMARK    3  A    between atoms: N3_9  and  N4_11 
REMARK       I    between atoms: N4_11  and  C4_13 
REMARK       I    between atoms: C4_13  and  N5_14 
REMARK       I    between atoms: C4_13  and  N6_18 
ROOT
HETATM    1  C3  UNL     1     -24.955  14.483  59.475  1.00  0.00     0.165 C 
HETATM    2  N3  UNL     1     -24.742  13.318  59.958  1.00  0.00    -0.309 N 
ATOM      3  H3  UNL     1     -25.193  12.514  59.521  1.00  0.00     0.185 HD
ENDROOT
BRANCH   2   4
HETATM    4  N4  UNL     1     -23.920  13.108  61.054  1.00  0.00    -0.284 N 
HETATM    5  C4  UNL     1     -24.464  12.387  62.189  1.00  0.00     0.494 C 
HETATM    6  N5  UNL     1     -23.431  12.291  63.203  1.00  0.00    -0.032 N 
HETATM    7  N6  UNL     1     -25.581  13.151  62.761  1.00  0.00    -0.032 N 
ATOM      8  H53 UNL     1     -22.570  11.875  62.849  1.00  0.00     0.279 HD
ATOM      9  H52 UNL     1     -23.049  13.201  63.461  1.00  0.00     0.279 HD
ATOM     10  H51 UNL     1     -23.813  11.785  64.002  1.00  0.00     0.279 HD
ATOM     11  H63 UNL     1     -25.313  14.106  63.002  1.00  0.00     0.279 HD
ATOM     12  H62 UNL     1     -26.294  13.372  62.066  1.00  0.00     0.279 HD
ATOM     13  H61 UNL     1     -25.963  12.645  63.560  1.00  0.00     0.279 HD
ATOM     14  H4  UNL     1     -22.960  13.451  61.062  1.00  0.00     0.184 HD
ENDBRANCH   2   4
BRANCH   1  15
HETATM   15  C2  UNL     1     -25.834  14.664  58.309  1.00  0.00     0.202 A 
HETATM   16  N2  UNL     1     -27.120  15.045  58.295  1.00  0.00    -0.166 N 
HETATM   17  C1  UNL     1     -27.569  15.091  57.026  1.00  0.00     0.698 A 
ATOM     18  H2  UNL     1     -27.676  15.267  59.121  1.00  0.00     0.186 HD
HETATM   19  N7  UNL     1     -26.518  14.726  56.271  1.00  0.00    -0.089 N 
HETATM   20  O1  UNL     1     -25.490  14.475  57.060  1.00  0.00    -0.203 OA
ATOM     21  H7  UNL     1     -26.515  14.655  55.253  1.00  0.00     0.213 HD
BRANCH  17  22
HETATM   22  N1  UNL     1     -28.740  15.409  56.574  1.00  0.00    -0.233 N 
ATOM     23  H12 UNL     1     -29.597  15.440  57.127  1.00  0.00     0.174 HD
ATOM     24  H11 UNL     1     -29.024  15.675  55.631  1.00  0.00     0.174 HD
ENDBRANCH  17  22
ENDBRANCH   1  15
TORSDOF 3
ENDMDL
MODEL 5
REMARK VINA RESULT: -5.576624893      3.192      4.488
REMARK  3 active torsions:
REMARK  status: ('A' for Active; 'I' for Inactive)
REMARK    1  A    between atoms: N1_1  and  C1_4 
REMARK    2  A    between atoms: C2_7  and  C3_8 
REMARK    3  A    between atoms: N3_9  and  N4_11 
REMARK       I    between atoms: N4_11  and  C4_13 
REMARK       I    between atoms: C4_13  and  N5_14 
REMARK       I    between atoms: C4_13  and  N6_18 
ROOT
HETATM    1  C3  UNL     1     -28.016  15.176  59.799  1.00  0.00     0.165 C 
HETATM    2  N3  UNL     1     -28.575  14.239  60.468  1.00  0.00    -0.309 N 
ATOM      3  H3  UNL     1     -28.238  13.283  60.350  1.00  0.00     0.185 HD
ENDROOT
BRANCH   2   4
HETATM    4  N4  UNL     1     -29.620  14.476  61.345  1.00  0.00    -0.284 N 
HETATM    5  C4  UNL     1     -29.365  15.308  62.505  1.00  0.00     0.494 C 
HETATM    6  N5  UNL     1     -30.594  15.413  63.268  1.00  0.00    -0.032 N 
HETATM    7  N6  UNL     1     -28.363  14.657  63.360  1.00  0.00    -0.032 N 
ATOM      8  H53 UNL     1     -31.378  15.749  62.708  1.00  0.00     0.279 HD
ATOM      9  H52 UNL     1     -30.982  14.503  63.515  1.00  0.00     0.279 HD
ATOM     10  H51 UNL     1     -30.415  15.998  64.084  1.00  0.00     0.279 HD
ATOM     11  H63 UNL     1     -28.634  13.708  63.618  1.00  0.00     0.279 HD
ATOM     12  H62 UNL     1     -27.508  14.431  62.851  1.00  0.00     0.279 HD
ATOM     13  H61 UNL     1     -28.184  15.243  64.176  1.00  0.00     0.279 HD
ATOM     14  H4  UNL     1     -30.544  14.076  61.180  1.00  0.00     0.184 HD
ENDBRANCH   2   4
BRANCH   1  15
HETATM   15  C2  UNL     1     -26.908  14.882  58.876  1.00  0.00     0.202 A 
HETATM   16  N2  UNL     1     -25.707  14.360  59.165  1.00  0.00    -0.166 N 
HETATM   17  C1  UNL     1     -24.974  14.247  58.041  1.00  0.00     0.698 A 
ATOM     18  H2  UNL     1     -25.394  14.088  60.097  1.00  0.00     0.186 HD
HETATM   19  N7  UNL     1     -25.766  14.718  57.060  1.00  0.00    -0.089 N 
HETATM   20  O1  UNL     1     -26.918  15.092  57.583  1.00  0.00    -0.203 OA
ATOM     21  H7  UNL     1     -25.517  14.775  56.073  1.00  0.00     0.213 HD
BRANCH  17  22
HETATM   22  N1  UNL     1     -23.773  13.795  57.879  1.00  0.00    -0.233 N 
ATOM     23  H12 UNL     1     -23.516  12.809  57.823  1.00  0.00     0.174 HD
ATOM     24  H11 UNL     1     -22.893  14.303  57.782  1.00  0.00     0.174 HD
ENDBRANCH  17  22
ENDBRANCH   1  15
TORSDOF 3
ENDMDL
