MODEL 1
REMARK VINA RESULT: -7.210115077      0.000      0.000
REMARK  3 active torsions:
REMARK  status: ('A' for Active; 'I' for Inactive)
REMARK    1  A    between atoms: C2_2  and  O2_4 
REMARK    2  A    between atoms: O2_4  and  C3_5 
REMARK    3  A    between atoms: C14_18  and  O5_19 
ROOT
HETATM    1  C3  UNL     1      58.197  76.241  -3.065  1.00  0.00     0.188 C 
HETATM    2  O3  UNL     1      57.952  77.375  -3.811  1.00  0.00    -0.343 OA
HETATM    3  C4  UNL     1      56.970  77.394  -4.729  1.00  0.00     0.057 C 
HETATM    4  C5  UNL     1      57.455  77.883  -6.112  1.00  0.00     0.045 C 
HETATM    5  C6  UNL     1      55.824  78.372  -4.439  1.00  0.00     0.045 C 
HETATM    6  C7  UNL     1      56.300  76.071  -5.000  1.00  0.00     0.038 C 
HETATM    7  C8  UNL     1      57.378  75.058  -5.152  1.00  0.00     0.013 C 
HETATM    8  C9  UNL     1      58.358  75.006  -3.997  1.00  0.00     0.050 C 
HETATM    9  C10 UNL     1      59.720  74.702  -4.447  1.00  0.00     0.013 C 
HETATM   10  C11 UNL     1      60.748  75.752  -4.410  1.00  0.00     0.039 C 
HETATM   11  C12 UNL     1      60.623  76.759  -3.332  1.00  0.00     0.075 C 
HETATM   12  C13 UNL     1      60.629  78.119  -3.882  1.00  0.00     0.047 C 
HETATM   13  O4  UNL     1      61.700  76.694  -2.406  1.00  0.00    -0.331 OA
HETATM   14  C14 UNL     1      61.271  77.515  -1.364  1.00  0.00     0.246 C 
HETATM   15 CL1  UNL     1      61.964  76.878   0.132  1.00  0.00    -0.057 Cl
HETATM   16  C15 UNL     1      59.735  77.437  -1.379  1.00  0.00     0.104 C 
HETATM   17  C16 UNL     1      59.510  76.377  -2.388  1.00  0.00     0.051 C 
HETATM   18  C17 UNL     1      59.943  75.072  -1.702  1.00  0.00     0.024 C 
ENDROOT
BRANCH   1  19
HETATM   19  O2  UNL     1      57.135  75.819  -2.290  1.00  0.00    -0.282 OA
BRANCH  19  20
HETATM   20  C2  UNL     1      56.307  76.400  -1.423  1.00  0.00     0.257 C 
HETATM   21  C1  UNL     1      55.155  75.680  -0.837  1.00  0.00     0.126 C 
HETATM   22  O1  UNL     1      56.597  77.572  -1.170  1.00  0.00    -0.266 OA
ENDBRANCH  19  20
ENDBRANCH   1  19
BRANCH  14  23
HETATM   23  O5  UNL     1      61.714  78.830  -1.484  1.00  0.00    -0.353 OA
ATOM     24  H5  UNL     1      61.457  79.380  -0.752  1.00  0.00     0.214 HD
ENDBRANCH  14  23
TORSDOF 3
ENDMDL
MODEL 2
REMARK VINA RESULT: -7.052169418      2.511      5.085
REMARK  3 active torsions:
REMARK  status: ('A' for Active; 'I' for Inactive)
REMARK    1  A    between atoms: C2_2  and  O2_4 
REMARK    2  A    between atoms: O2_4  and  C3_5 
REMARK    3  A    between atoms: C14_18  and  O5_19 
ROOT
HETATM    1  C3  UNL     1      58.814  76.864  -4.160  1.00  0.00     0.188 C 
HETATM    2  O3  UNL     1      59.395  77.498  -3.082  1.00  0.00    -0.343 OA
HETATM    3  C4  UNL     1      60.708  77.360  -2.830  1.00  0.00     0.057 C 
HETATM    4  C5  UNL     1      60.994  76.935  -1.372  1.00  0.00     0.045 C 
HETATM    5  C6  UNL     1      61.534  78.648  -2.945  1.00  0.00     0.045 C 
HETATM    6  C7  UNL     1      61.437  76.348  -3.678  1.00  0.00     0.038 C 
HETATM    7  C8  UNL     1      60.598  75.120  -3.708  1.00  0.00     0.013 C 
HETATM    8  C9  UNL     1      59.166  75.348  -4.148  1.00  0.00     0.050 C 
HETATM    9  C10 UNL     1      58.229  74.468  -3.443  1.00  0.00     0.013 C 
HETATM   10  C11 UNL     1      57.316  75.033  -2.440  1.00  0.00     0.039 C 
HETATM   11  C12 UNL     1      56.862  76.422  -2.672  1.00  0.00     0.075 C 
HETATM   12  C13 UNL     1      57.124  77.263  -1.498  1.00  0.00     0.047 C 
HETATM   13  O4  UNL     1      55.463  76.499  -2.917  1.00  0.00    -0.331 OA
HETATM   14  C14 UNL     1      55.290  77.810  -3.356  1.00  0.00     0.246 C 
HETATM   15 CL1  UNL     1      53.936  77.814  -4.492  1.00  0.00    -0.057 Cl
HETATM   16  C15 UNL     1      56.618  78.204  -4.026  1.00  0.00     0.104 C 
HETATM   17  C16 UNL     1      57.338  76.910  -4.017  1.00  0.00     0.051 C 
HETATM   18  C17 UNL     1      56.629  76.048  -5.074  1.00  0.00     0.024 C 
ENDROOT
BRANCH   1  19
HETATM   19  O2  UNL     1      59.334  77.219  -5.389  1.00  0.00    -0.282 OA
BRANCH  19  20
HETATM   20  C2  UNL     1      59.181  78.250  -6.218  1.00  0.00     0.257 C 
HETATM   21  C1  UNL     1      58.593  78.091  -7.567  1.00  0.00     0.126 C 
HETATM   22  O1  UNL     1      59.572  79.323  -5.752  1.00  0.00    -0.266 OA
ENDBRANCH  19  20
ENDBRANCH   1  19
BRANCH  14  23
HETATM   23  O5  UNL     1      54.957  78.693  -2.331  1.00  0.00    -0.353 OA
ATOM     24  H5  UNL     1      55.700  78.939  -1.793  1.00  0.00     0.214 HD
ENDBRANCH  14  23
TORSDOF 3
ENDMDL
MODEL 3
REMARK VINA RESULT: -7.018224865      2.957      5.326
REMARK  3 active torsions:
REMARK  status: ('A' for Active; 'I' for Inactive)
REMARK    1  A    between atoms: C2_2  and  O2_4 
REMARK    2  A    between atoms: O2_4  and  C3_5 
REMARK    3  A    between atoms: C14_18  and  O5_19 
ROOT
HETATM    1  C3  UNL     1      58.914  77.283  -4.955  1.00  0.00     0.188 C 
HETATM    2  O3  UNL     1      60.030  76.481  -5.066  1.00  0.00    -0.343 OA
HETATM    3  C4  UNL     1      61.235  76.921  -4.664  1.00  0.00     0.057 C 
HETATM    4  C5  UNL     1      62.323  76.756  -5.748  1.00  0.00     0.045 C 
HETATM    5  C6  UNL     1      61.851  76.154  -3.487  1.00  0.00     0.045 C 
HETATM    6  C7  UNL     1      61.304  78.374  -4.266  1.00  0.00     0.038 C 
HETATM    7  C8  UNL     1      60.592  79.149  -5.317  1.00  0.00     0.013 C 
HETATM    8  C9  UNL     1      59.182  78.673  -5.602  1.00  0.00     0.050 C 
HETATM    9  C10 UNL     1      58.832  78.809  -7.019  1.00  0.00     0.013 C 
HETATM   10  C11 UNL     1      58.701  77.607  -7.854  1.00  0.00     0.039 C 
HETATM   11  C12 UNL     1      58.218  76.384  -7.175  1.00  0.00     0.075 C 
HETATM   12  C13 UNL     1      59.138  75.262  -7.399  1.00  0.00     0.047 C 
HETATM   13  O4  UNL     1      56.948  75.964  -7.657  1.00  0.00    -0.331 OA
HETATM   14  C14 UNL     1      56.567  74.986  -6.740  1.00  0.00     0.246 C 
HETATM   15 CL1  UNL     1      54.804  75.020  -6.629  1.00  0.00    -0.057 Cl
HETATM   16  C15 UNL     1      57.246  75.374  -5.414  1.00  0.00     0.104 C 
HETATM   17  C16 UNL     1      57.812  76.699  -5.758  1.00  0.00     0.051 C 
HETATM   18  C17 UNL     1      56.601  77.641  -5.846  1.00  0.00     0.024 C 
ENDROOT
BRANCH   1  19
HETATM   19  O2  UNL     1      58.610  77.675  -3.666  1.00  0.00    -0.282 OA
BRANCH  19  20
HETATM   20  C2  UNL     1      58.045  77.092  -2.610  1.00  0.00     0.257 C 
HETATM   21  C1  UNL     1      58.643  75.906  -1.956  1.00  0.00     0.126 C 
HETATM   22  O1  UNL     1      56.998  77.633  -2.246  1.00  0.00    -0.266 OA
ENDBRANCH  19  20
ENDBRANCH   1  19
BRANCH  14  23
HETATM   23  O5  UNL     1      56.921  73.698  -7.133  1.00  0.00    -0.353 OA
ATOM     24  H5  UNL     1      57.439  73.237  -6.483  1.00  0.00     0.214 HD
ENDBRANCH  14  23
TORSDOF 3
ENDMDL
MODEL 4
REMARK VINA RESULT: -6.938444276      2.292      4.065
REMARK  3 active torsions:
REMARK  status: ('A' for Active; 'I' for Inactive)
REMARK    1  A    between atoms: C2_2  and  O2_4 
REMARK    2  A    between atoms: O2_4  and  C3_5 
REMARK    3  A    between atoms: C14_18  and  O5_19 
ROOT
HETATM    1  C3  UNL     1      58.028  77.053  -3.181  1.00  0.00     0.188 C 
HETATM    2  O3  UNL     1      56.790  77.659  -3.226  1.00  0.00    -0.343 OA
HETATM    3  C4  UNL     1      55.907  77.493  -2.226  1.00  0.00     0.057 C 
HETATM    4  C5  UNL     1      54.518  77.038  -2.725  1.00  0.00     0.045 C 
HETATM    5  C6  UNL     1      55.555  78.767  -1.447  1.00  0.00     0.045 C 
HETATM    6  C7  UNL     1      56.290  76.482  -1.174  1.00  0.00     0.038 C 
HETATM    7  C8  UNL     1      56.772  75.270  -1.888  1.00  0.00     0.013 C 
HETATM    8  C9  UNL     1      57.874  75.531  -2.895  1.00  0.00     0.050 C 
HETATM    9  C10 UNL     1      57.766  74.657  -4.066  1.00  0.00     0.013 C 
HETATM   10  C11 UNL     1      57.354  75.222  -5.359  1.00  0.00     0.039 C 
HETATM   11  C12 UNL     1      57.752  76.623  -5.622  1.00  0.00     0.075 C 
HETATM   12  C13 UNL     1      56.589  77.439  -5.989  1.00  0.00     0.047 C 
HETATM   13  O4  UNL     1      58.674  76.729  -6.700  1.00  0.00    -0.331 OA
HETATM   14  C14 UNL     1      59.109  78.051  -6.616  1.00  0.00     0.246 C 
HETATM   15 CL1  UNL     1      60.775  78.099  -7.202  1.00  0.00    -0.057 Cl
HETATM   16  C15 UNL     1      58.999  78.431  -5.129  1.00  0.00     0.104 C 
HETATM   17  C16 UNL     1      58.655  77.124  -4.523  1.00  0.00     0.051 C 
HETATM   18  C17 UNL     1      59.946  76.294  -4.601  1.00  0.00     0.024 C 
ENDROOT
BRANCH   1  19
HETATM   19  O2  UNL     1      58.812  77.420  -2.104  1.00  0.00    -0.282 OA
BRANCH  19  20
HETATM   20  C2  UNL     1      60.054  77.151  -1.704  1.00  0.00     0.257 C 
HETATM   21  C1  UNL     1      60.395  75.896  -0.998  1.00  0.00     0.126 C 
HETATM   22  O1  UNL     1      60.866  78.038  -1.978  1.00  0.00    -0.266 OA
ENDBRANCH  19  20
ENDBRANCH   1  19
BRANCH  14  23
HETATM   23  O5  UNL     1      58.375  78.922  -7.419  1.00  0.00    -0.353 OA
ATOM     24  H5  UNL     1      58.095  79.706  -6.961  1.00  0.00     0.214 HD
ENDBRANCH  14  23
TORSDOF 3
ENDMDL
MODEL 5
REMARK VINA RESULT: -6.885318182      2.784      5.112
REMARK  3 active torsions:
REMARK  status: ('A' for Active; 'I' for Inactive)
REMARK    1  A    between atoms: C2_2  and  O2_4 
REMARK    2  A    between atoms: O2_4  and  C3_5 
REMARK    3  A    between atoms: C14_18  and  O5_19 
ROOT
HETATM    1  C3  UNL     1      59.390  77.058  -4.231  1.00  0.00     0.188 C 
HETATM    2  O3  UNL     1      60.407  76.151  -4.446  1.00  0.00    -0.343 OA
HETATM    3  C4  UNL     1      61.656  76.405  -4.018  1.00  0.00     0.057 C 
HETATM    4  C5  UNL     1      62.714  76.236  -5.131  1.00  0.00     0.045 C 
HETATM    5  C6  UNL     1      62.184  75.450  -2.941  1.00  0.00     0.045 C 
HETATM    6  C7  UNL     1      61.892  77.789  -3.468  1.00  0.00     0.038 C 
HETATM    7  C8  UNL     1      61.270  78.749  -4.418  1.00  0.00     0.013 C 
HETATM    8  C9  UNL     1      59.813  78.470  -4.729  1.00  0.00     0.050 C 
HETATM    9  C10 UNL     1      59.476  78.799  -6.117  1.00  0.00     0.013 C 
HETATM   10  C11 UNL     1      59.205  77.717  -7.075  1.00  0.00     0.039 C 
HETATM   11  C12 UNL     1      58.588  76.490  -6.523  1.00  0.00     0.075 C 
HETATM   12  C13 UNL     1      59.372  75.302  -6.881  1.00  0.00     0.047 C 
HETATM   13  O4  UNL     1      57.275  76.272  -7.027  1.00  0.00    -0.331 OA
HETATM   14  C14 UNL     1      56.789  75.250  -6.214  1.00  0.00     0.246 C 
HETATM   15 CL1  UNL     1      55.042  75.472  -6.071  1.00  0.00    -0.057 Cl
HETATM   16  C15 UNL     1      57.513  75.412  -4.865  1.00  0.00     0.104 C 
HETATM   17  C16 UNL     1      58.225  76.694  -5.074  1.00  0.00     0.051 C 
HETATM   18  C17 UNL     1      57.130  77.772  -5.041  1.00  0.00     0.024 C 
ENDROOT
BRANCH   1  19
HETATM   19  O2  UNL     1      59.138  77.340  -2.903  1.00  0.00    -0.282 OA
BRANCH  19  20
HETATM   20  C2  UNL     1      58.614  76.670  -1.877  1.00  0.00     0.257 C 
HETATM   21  C1  UNL     1      57.205  76.849  -1.462  1.00  0.00     0.126 C 
HETATM   22  O1  UNL     1      59.410  75.905  -1.327  1.00  0.00    -0.266 OA
ENDBRANCH  19  20
ENDBRANCH   1  19
BRANCH  14  23
HETATM   23  O5  UNL     1      56.990  73.980  -6.749  1.00  0.00    -0.353 OA
ATOM     24  H5  UNL     1      56.492  73.304  -6.305  1.00  0.00     0.214 HD
ENDBRANCH  14  23
TORSDOF 3
ENDMDL
