MODEL 1
REMARK VINA RESULT: -8.378534678      0.000      0.000
REMARK  12 active torsions:
REMARK  status: ('A' for Active; 'I' for Inactive)
REMARK    1  A    between atoms: C1_2  and  C2_3 
REMARK    2  A    between atoms: C2_3  and  C3_4 
REMARK    3  A    between atoms: C3_4  and  C4_5 
REMARK    4  A    between atoms: C4_5  and  C5_6 
REMARK    5  A    between atoms: C5_6  and  C6_7 
REMARK    6  A    between atoms: C6_7  and  N2_8 
REMARK    7  A    between atoms: C9_12  and  N3_13 
REMARK    8  A    between atoms: C18_30  and  N8_31 
REMARK       I    between atoms: N8_31  and  C19_33 
REMARK    9  A    between atoms: C19_33  and  C20_35 
REMARK   10  A    between atoms: C20_35  and  N9_36 
REMARK   11  A    between atoms: C20_35  and  N10_40 
REMARK   12  A    between atoms: N13_50  and  O5_52 
ROOT
HETATM    1  N2  UNL     1      -2.754  19.158  12.098  1.00  0.00    -0.264 N 
HETATM    2  C7  UNL     1      -1.402  19.316  12.111  1.00  0.00     0.282 A 
HETATM    3  O1  UNL     1      -0.717  20.026  12.892  1.00  0.00    -0.265 OA
HETATM    4  C8  UNL     1      -0.882  18.552  11.104  1.00  0.00     0.159 A 
HETATM    5  C9  UNL     1       0.420  18.344  10.677  1.00  0.00     0.160 A 
HETATM    6  N6  UNL     1       0.557  17.511   9.636  1.00  0.00    -0.332 N 
ATOM      7  H6  UNL     1       1.505  17.339   9.301  1.00  0.00     0.168 HD
HETATM    8  C16 UNL     1      -0.439  16.882   8.996  1.00  0.00     0.149 A 
HETATM    9  C17 UNL     1      -0.223  16.038   7.932  1.00  0.00     0.290 A 
HETATM   10  O2  UNL     1       0.971  15.866   7.561  1.00  0.00    -0.265 OA
HETATM   11  N7  UNL     1      -1.244  15.426   7.315  1.00  0.00    -0.154 N 
ATOM     12  H7  UNL     1      -1.069  14.803   6.526  1.00  0.00     0.187 HD
HETATM   13  C18 UNL     1      -2.496  15.641   7.743  1.00  0.00     0.689 A 
HETATM   14  N11 UNL     1      -2.742  16.465   8.788  1.00  0.00    -0.173 N 
ATOM     15  H11 UNL     1      -3.705  16.610   9.093  1.00  0.00     0.186 HD
HETATM   16  C21 UNL     1      -1.749  17.096   9.432  1.00  0.00     0.165 A 
HETATM   17  N12 UNL     1      -1.985  17.916  10.470  1.00  0.00    -0.237 N 
HETATM   18  C22 UNL     1      -3.101  18.314  11.106  1.00  0.00     0.338 A 
HETATM   19  O4  UNL     1      -4.294  17.995  10.872  1.00  0.00    -0.246 OA
ENDROOT
BRANCH  13  20
HETATM   20  N8  UNL     1      -3.495  15.079   7.186  1.00  0.00    -0.156 N 
HETATM   21  C19 UNL     1      -3.443  14.015   6.271  1.00  0.00     0.294 C 
HETATM   22  O3  UNL     1      -2.970  12.909   6.646  1.00  0.00    -0.268 OA
ATOM     23  H8  UNL     1      -4.420  15.437   7.428  1.00  0.00     0.187 HD
BRANCH  21  24
HETATM   24  C20 UNL     1      -3.920  14.115   4.867  1.00  0.00     0.469 C 
BRANCH  24  25
HETATM   25  N9  UNL     1      -3.184  15.171   4.171  1.00  0.00    -0.042 N 
ATOM     26  H93 UNL     1      -2.983  15.965   4.781  1.00  0.00     0.277 HD
ATOM     27  H92 UNL     1      -2.224  14.898   3.964  1.00  0.00     0.277 HD
ATOM     28  H91 UNL     1      -3.694  15.450   3.333  1.00  0.00     0.277 HD
ENDBRANCH  24  25
BRANCH  24  29
HETATM   29  N10 UNL     1      -3.708  12.900   4.120  1.00  0.00    -0.042 N 
ATOM     30 3H10 UNL     1      -2.713  12.714   3.998  1.00  0.00     0.277 HD
ATOM     31 2H10 UNL     1      -3.962  12.082   4.674  1.00  0.00     0.277 HD
ATOM     32 1H10 UNL     1      -4.193  12.900   3.223  1.00  0.00     0.277 HD
ENDBRANCH  24  29
ENDBRANCH  21  24
ENDBRANCH  13  20
BRANCH   5  33
HETATM   33  N3  UNL     1       1.518  18.984  11.317  1.00  0.00    -0.219 N 
HETATM   34  N4  UNL     1       2.091  20.141  11.031  1.00  0.00    -0.013 NA
HETATM   35  N5  UNL     1       3.092  20.407  11.852  1.00  0.00    -0.281 N 
HETATM   36  C10 UNL     1       3.202  19.393  12.726  1.00  0.00     0.074 A 
ATOM     37  H5  UNL     1       3.680  21.241  11.827  1.00  0.00     0.184 HD
HETATM   38  C11 UNL     1       4.050  19.139  13.782  1.00  0.00     0.033 A 
HETATM   39  C15 UNL     1       2.210  18.497  12.387  1.00  0.00     0.084 A 
HETATM   40  C12 UNL     1       3.865  17.963  14.476  1.00  0.00     0.002 A 
HETATM   41  C13 UNL     1       2.880  17.056  14.152  1.00  0.00     0.002 A 
HETATM   42  C14 UNL     1       2.032  17.329  13.083  1.00  0.00     0.034 A 
ENDBRANCH   5  33
BRANCH   1  43
HETATM   43  C6  UNL     1      -3.644  19.817  13.024  1.00  0.00     0.137 C 
BRANCH  43  44
HETATM   44  C5  UNL     1      -4.165  21.130  12.475  1.00  0.00     0.020 C 
BRANCH  44  45
HETATM   45  C4  UNL     1      -4.005  22.176  13.556  1.00  0.00     0.002 C 
BRANCH  45  46
HETATM   46  C3  UNL     1      -2.585  22.238  14.055  1.00  0.00     0.007 C 
BRANCH  46  47
HETATM   47  C2  UNL     1      -1.744  23.295  13.413  1.00  0.00     0.075 C 
BRANCH  47  48
HETATM   48  C1  UNL     1      -0.327  23.293  13.761  1.00  0.00     0.113 C 
HETATM   49  N1  UNL     1       0.243  23.996  14.833  1.00  0.00    -0.086 NA
HETATM   50  N13 UNL     1       0.471  22.575  13.012  1.00  0.00    -0.260 N 
ATOM     51  H13 UNL     1       0.088  22.050  12.226  1.00  0.00     0.195 HD
BRANCH  50  52
HETATM   52  O5  UNL     1       1.796  22.520  13.270  1.00  0.00    -0.289 OA
ATOM     53  H5  UNL     1       2.366  21.954  12.763  1.00  0.00     0.244 HD
ENDBRANCH  50  52
ENDBRANCH  47  48
ENDBRANCH  46  47
ENDBRANCH  45  46
ENDBRANCH  44  45
ENDBRANCH  43  44
ENDBRANCH   1  43
TORSDOF 12
ENDMDL
MODEL 2
REMARK VINA RESULT: -8.278792348      3.864      8.165
REMARK  12 active torsions:
REMARK  status: ('A' for Active; 'I' for Inactive)
REMARK    1  A    between atoms: C1_2  and  C2_3 
REMARK    2  A    between atoms: C2_3  and  C3_4 
REMARK    3  A    between atoms: C3_4  and  C4_5 
REMARK    4  A    between atoms: C4_5  and  C5_6 
REMARK    5  A    between atoms: C5_6  and  C6_7 
REMARK    6  A    between atoms: C6_7  and  N2_8 
REMARK    7  A    between atoms: C9_12  and  N3_13 
REMARK    8  A    between atoms: C18_30  and  N8_31 
REMARK       I    between atoms: N8_31  and  C19_33 
REMARK    9  A    between atoms: C19_33  and  C20_35 
REMARK   10  A    between atoms: C20_35  and  N9_36 
REMARK   11  A    between atoms: C20_35  and  N10_40 
REMARK   12  A    between atoms: N13_50  and  O5_52 
ROOT
HETATM    1  N2  UNL     1      -0.086  18.191  11.620  1.00  0.00    -0.264 N 
HETATM    2  C7  UNL     1      -1.020  18.220  12.609  1.00  0.00     0.282 A 
HETATM    3  O1  UNL     1      -1.600  17.244  13.151  1.00  0.00    -0.265 OA
HETATM    4  C8  UNL     1      -1.240  19.529  12.938  1.00  0.00     0.159 A 
HETATM    5  C9  UNL     1      -2.077  20.123  13.869  1.00  0.00     0.160 A 
HETATM    6  N6  UNL     1      -2.028  21.461  13.915  1.00  0.00    -0.332 N 
ATOM      7  H6  UNL     1      -2.635  21.924  14.592  1.00  0.00     0.168 HD
HETATM    8  C16 UNL     1      -1.253  22.246  13.154  1.00  0.00     0.149 A 
HETATM    9  C17 UNL     1      -1.254  23.618  13.257  1.00  0.00     0.290 A 
HETATM   10  O2  UNL     1      -2.027  24.134  14.111  1.00  0.00    -0.265 OA
HETATM   11  N7  UNL     1      -0.466  24.372  12.479  1.00  0.00    -0.154 N 
ATOM     12  H7  UNL     1      -0.478  25.388  12.566  1.00  0.00     0.187 HD
HETATM   13  C18 UNL     1       0.338  23.778  11.584  1.00  0.00     0.689 A 
HETATM   14  N11 UNL     1       0.363  22.431  11.458  1.00  0.00    -0.173 N 
ATOM     15  H11 UNL     1       0.985  22.006  10.770  1.00  0.00     0.186 HD
HETATM   16  C21 UNL     1      -0.410  21.641  12.219  1.00  0.00     0.165 A 
HETATM   17  N12 UNL     1      -0.392  20.302  12.099  1.00  0.00    -0.237 N 
HETATM   18  C22 UNL     1       0.290  19.449  11.315  1.00  0.00     0.338 A 
HETATM   19  O4  UNL     1       1.145  19.706  10.431  1.00  0.00    -0.246 OA
ENDROOT
BRANCH  13  20
HETATM   20  N8  UNL     1       1.103  24.457  10.825  1.00  0.00    -0.156 N 
HETATM   21  C19 UNL     1       2.094  23.941   9.973  1.00  0.00     0.294 C 
HETATM   22  O3  UNL     1       1.753  23.180   9.029  1.00  0.00    -0.268 OA
ATOM     23  H8  UNL     1       0.986  25.470  10.837  1.00  0.00     0.187 HD
BRANCH  21  24
HETATM   24  C20 UNL     1       3.542  24.242  10.119  1.00  0.00     0.469 C 
BRANCH  24  25
HETATM   25  N9  UNL     1       3.722  25.348  11.062  1.00  0.00    -0.042 N 
ATOM     26  H93 UNL     1       2.852  25.595  11.534  1.00  0.00     0.277 HD
ATOM     27  H92 UNL     1       4.261  25.069  11.881  1.00  0.00     0.277 HD
ATOM     28  H91 UNL     1       4.138  26.145  10.581  1.00  0.00     0.277 HD
ENDBRANCH  24  25
BRANCH  24  29
HETATM   29  N10 UNL     1       4.293  23.127  10.639  1.00  0.00    -0.042 N 
ATOM     30 3H10 UNL     1       3.690  22.493  11.164  1.00  0.00     0.277 HD
ATOM     31 2H10 UNL     1       4.579  22.498   9.889  1.00  0.00     0.277 HD
ATOM     32 1H10 UNL     1       5.093  23.418  11.199  1.00  0.00     0.277 HD
ENDBRANCH  24  29
ENDBRANCH  21  24
ENDBRANCH  13  20
BRANCH   5  33
HETATM   33  N3  UNL     1      -2.923  19.341  14.705  1.00  0.00    -0.219 N 
HETATM   34  N4  UNL     1      -2.638  18.733  15.845  1.00  0.00    -0.013 NA
HETATM   35  N5  UNL     1      -3.687  18.097  16.336  1.00  0.00    -0.281 N 
HETATM   36  C10 UNL     1      -4.722  18.281  15.499  1.00  0.00     0.074 A 
ATOM     37  H5  UNL     1      -3.708  17.560  17.203  1.00  0.00     0.184 HD
HETATM   38  C11 UNL     1      -6.033  17.860  15.507  1.00  0.00     0.033 A 
HETATM   39  C15 UNL     1      -4.238  19.065  14.473  1.00  0.00     0.084 A 
HETATM   40  C12 UNL     1      -6.832  18.252  14.454  1.00  0.00     0.002 A 
HETATM   41  C13 UNL     1      -6.367  19.034  13.420  1.00  0.00     0.002 A 
HETATM   42  C14 UNL     1      -5.039  19.451  13.429  1.00  0.00     0.034 A 
ENDBRANCH   5  33
BRANCH   1  43
HETATM   43  C6  UNL     1       0.400  16.972  11.016  1.00  0.00     0.137 C 
BRANCH  43  44
HETATM   44  C5  UNL     1       1.913  16.907  11.004  1.00  0.00     0.020 C 
BRANCH  44  45
HETATM   45  C4  UNL     1       2.392  17.038  12.432  1.00  0.00     0.002 C 
BRANCH  45  46
HETATM   46  C3  UNL     1       3.840  17.449  12.492  1.00  0.00     0.007 C 
BRANCH  46  47
HETATM   47  C2  UNL     1       4.147  18.505  13.505  1.00  0.00     0.075 C 
BRANCH  47  48
HETATM   48  C1  UNL     1       4.154  19.882  13.021  1.00  0.00     0.113 C 
HETATM   49  N1  UNL     1       5.238  20.512  12.391  1.00  0.00    -0.086 NA
HETATM   50  N13 UNL     1       3.059  20.579  13.188  1.00  0.00    -0.260 N 
ATOM     51  H13 UNL     1       2.252  20.150  13.641  1.00  0.00     0.195 HD
BRANCH  50  52
HETATM   52  O5  UNL     1       2.986  21.861  12.766  1.00  0.00    -0.289 OA
ATOM     53  H5  UNL     1       2.989  22.577  13.390  1.00  0.00     0.244 HD
ENDBRANCH  50  52
ENDBRANCH  47  48
ENDBRANCH  46  47
ENDBRANCH  45  46
ENDBRANCH  44  45
ENDBRANCH  43  44
ENDBRANCH   1  43
TORSDOF 12
ENDMDL
MODEL 3
REMARK VINA RESULT: -8.201969525      3.465      8.259
REMARK  12 active torsions:
REMARK  status: ('A' for Active; 'I' for Inactive)
REMARK    1  A    between atoms: C1_2  and  C2_3 
REMARK    2  A    between atoms: C2_3  and  C3_4 
REMARK    3  A    between atoms: C3_4  and  C4_5 
REMARK    4  A    between atoms: C4_5  and  C5_6 
REMARK    5  A    between atoms: C5_6  and  C6_7 
REMARK    6  A    between atoms: C6_7  and  N2_8 
REMARK    7  A    between atoms: C9_12  and  N3_13 
REMARK    8  A    between atoms: C18_30  and  N8_31 
REMARK       I    between atoms: N8_31  and  C19_33 
REMARK    9  A    between atoms: C19_33  and  C20_35 
REMARK   10  A    between atoms: C20_35  and  N9_36 
REMARK   11  A    between atoms: C20_35  and  N10_40 
REMARK   12  A    between atoms: N13_50  and  O5_52 
ROOT
HETATM    1  N2  UNL     1      -2.503  18.816  10.929  1.00  0.00    -0.264 N 
HETATM    2  C7  UNL     1      -3.094  18.940  12.149  1.00  0.00     0.282 A 
HETATM    3  O1  UNL     1      -3.881  18.134  12.709  1.00  0.00    -0.265 OA
HETATM    4  C8  UNL     1      -2.683  20.124  12.695  1.00  0.00     0.159 A 
HETATM    5  C9  UNL     1      -2.972  20.738  13.903  1.00  0.00     0.160 A 
HETATM    6  N6  UNL     1      -2.375  21.920  14.105  1.00  0.00    -0.332 N 
ATOM      7  H6  UNL     1      -2.571  22.394  14.986  1.00  0.00     0.168 HD
HETATM    8  C16 UNL     1      -1.544  22.536  13.253  1.00  0.00     0.149 A 
HETATM    9  C17 UNL     1      -0.965  23.754  13.528  1.00  0.00     0.290 A 
HETATM   10  O2  UNL     1      -1.245  24.293  14.634  1.00  0.00    -0.265 OA
HETATM   11  N7  UNL     1      -0.137  24.341  12.652  1.00  0.00    -0.154 N 
ATOM     12  H7  UNL     1       0.285  25.244  12.869  1.00  0.00     0.187 HD
HETATM   13  C18 UNL     1       0.130  23.731  11.489  1.00  0.00     0.689 A 
HETATM   14  N11 UNL     1      -0.422  22.532  11.188  1.00  0.00    -0.173 N 
ATOM     15  H11 UNL     1      -0.201  22.091  10.296  1.00  0.00     0.186 HD
HETATM   16  C21 UNL     1      -1.255  21.912  12.038  1.00  0.00     0.165 A 
HETATM   17  N12 UNL     1      -1.809  20.722  11.746  1.00  0.00    -0.237 N 
HETATM   18  C22 UNL     1      -1.729  19.894  10.690  1.00  0.00     0.338 A 
HETATM   19  O4  UNL     1      -1.069  20.033   9.630  1.00  0.00    -0.246 OA
ENDROOT
BRANCH  13  20
HETATM   20  N8  UNL     1       0.911  24.253  10.628  1.00  0.00    -0.156 N 
HETATM   21  C19 UNL     1       1.933  23.591   9.927  1.00  0.00     0.294 C 
HETATM   22  O3  UNL     1       1.630  22.648   9.150  1.00  0.00    -0.268 OA
ATOM     23  H8  UNL     1       0.782  25.245  10.429  1.00  0.00     0.187 HD
BRANCH  21  24
HETATM   24  C20 UNL     1       3.373  23.942  10.049  1.00  0.00     0.469 C 
BRANCH  24  25
HETATM   25  N9  UNL     1       3.516  25.172  10.829  1.00  0.00    -0.042 N 
ATOM     26  H93 UNL     1       3.211  25.995  10.308  1.00  0.00     0.277 HD
ATOM     27  H92 UNL     1       2.841  25.223  11.592  1.00  0.00     0.277 HD
ATOM     28  H91 UNL     1       4.476  25.260  11.159  1.00  0.00     0.277 HD
ENDBRANCH  24  25
BRANCH  24  29
HETATM   29  N10 UNL     1       4.137  22.927  10.730  1.00  0.00    -0.042 N 
ATOM     30 3H10 UNL     1       4.585  22.298  10.064  1.00  0.00     0.277 HD
ATOM     31 2H10 UNL     1       4.968  23.326  11.166  1.00  0.00     0.277 HD
ATOM     32 1H10 UNL     1       3.582  22.407  11.409  1.00  0.00     0.277 HD
ENDBRANCH  24  29
ENDBRANCH  21  24
ENDBRANCH  13  20
BRANCH   5  33
HETATM   33  N3  UNL     1      -3.849  20.132  14.847  1.00  0.00    -0.219 N 
HETATM   34  N4  UNL     1      -3.579  19.230  15.776  1.00  0.00    -0.013 NA
HETATM   35  N5  UNL     1      -4.656  18.904  16.469  1.00  0.00    -0.281 N 
HETATM   36  C10 UNL     1      -5.694  19.609  15.991  1.00  0.00     0.074 A 
ATOM     37  H5  UNL     1      -4.693  18.231  17.235  1.00  0.00     0.184 HD
HETATM   38  C11 UNL     1      -7.029  19.674  16.323  1.00  0.00     0.033 A 
HETATM   39  C15 UNL     1      -5.183  20.383  14.970  1.00  0.00     0.084 A 
HETATM   40  C12 UNL     1      -7.824  20.536  15.598  1.00  0.00     0.002 A 
HETATM   41  C13 UNL     1      -7.332  21.316  14.575  1.00  0.00     0.002 A 
HETATM   42  C14 UNL     1      -5.980  21.239  14.253  1.00  0.00     0.034 A 
ENDBRANCH   5  33
BRANCH   1  43
HETATM   43  C6  UNL     1      -2.705  17.685  10.055  1.00  0.00     0.137 C 
BRANCH  43  44
HETATM   44  C5  UNL     1      -1.763  16.543  10.376  1.00  0.00     0.020 C 
BRANCH  44  45
HETATM   45  C4  UNL     1      -0.556  16.674   9.475  1.00  0.00     0.002 C 
BRANCH  45  46
HETATM   46  C3  UNL     1       0.726  16.659  10.266  1.00  0.00     0.007 C 
BRANCH  46  47
HETATM   47  C2  UNL     1       0.617  17.237  11.640  1.00  0.00     0.075 C 
BRANCH  47  48
HETATM   48  C1  UNL     1       1.442  18.410  11.914  1.00  0.00     0.113 C 
HETATM   49  N1  UNL     1       2.225  18.596  13.064  1.00  0.00    -0.086 NA
HETATM   50  N13 UNL     1       1.449  19.358  11.013  1.00  0.00    -0.260 N 
ATOM     51  H13 UNL     1       0.892  19.253  10.165  1.00  0.00     0.195 HD
BRANCH  50  52
HETATM   52  O5  UNL     1       2.188  20.476  11.192  1.00  0.00    -0.289 OA
ATOM     53  H5  UNL     1       2.678  20.854  10.472  1.00  0.00     0.244 HD
ENDBRANCH  50  52
ENDBRANCH  47  48
ENDBRANCH  46  47
ENDBRANCH  45  46
ENDBRANCH  44  45
ENDBRANCH  43  44
ENDBRANCH   1  43
TORSDOF 12
ENDMDL
MODEL 4
REMARK VINA RESULT: -8.196906402      3.508      8.094
REMARK  12 active torsions:
REMARK  status: ('A' for Active; 'I' for Inactive)
REMARK    1  A    between atoms: C1_2  and  C2_3 
REMARK    2  A    between atoms: C2_3  and  C3_4 
REMARK    3  A    between atoms: C3_4  and  C4_5 
REMARK    4  A    between atoms: C4_5  and  C5_6 
REMARK    5  A    between atoms: C5_6  and  C6_7 
REMARK    6  A    between atoms: C6_7  and  N2_8 
REMARK    7  A    between atoms: C9_12  and  N3_13 
REMARK    8  A    between atoms: C18_30  and  N8_31 
REMARK       I    between atoms: N8_31  and  C19_33 
REMARK    9  A    between atoms: C19_33  and  C20_35 
REMARK   10  A    between atoms: C20_35  and  N9_36 
REMARK   11  A    between atoms: C20_35  and  N10_40 
REMARK   12  A    between atoms: N13_50  and  O5_52 
ROOT
HETATM    1  N2  UNL     1      -1.264  18.241  11.229  1.00  0.00    -0.264 N 
HETATM    2  C7  UNL     1      -1.942  18.295  12.408  1.00  0.00     0.282 A 
HETATM    3  O1  UNL     1      -2.568  17.366  12.981  1.00  0.00    -0.265 OA
HETATM    4  C8  UNL     1      -1.834  19.569  12.894  1.00  0.00     0.159 A 
HETATM    5  C9  UNL     1      -2.325  20.167  14.043  1.00  0.00     0.160 A 
HETATM    6  N6  UNL     1      -2.014  21.461  14.196  1.00  0.00    -0.332 N 
ATOM      7  H6  UNL     1      -2.363  21.927  15.034  1.00  0.00     0.168 HD
HETATM    8  C16 UNL     1      -1.285  22.199  13.347  1.00  0.00     0.149 A 
HETATM    9  C17 UNL     1      -1.004  23.528  13.570  1.00  0.00     0.290 A 
HETATM   10  O2  UNL     1      -1.463  24.050  14.623  1.00  0.00    -0.265 OA
HETATM   11  N7  UNL     1      -0.271  24.236  12.699  1.00  0.00    -0.154 N 
ATOM     12  H7  UNL     1      -0.071  25.220  12.876  1.00  0.00     0.187 HD
HETATM   13  C18 UNL     1       0.195  23.639  11.592  1.00  0.00     0.689 A 
HETATM   14  N11 UNL     1      -0.063  22.334  11.345  1.00  0.00    -0.173 N 
ATOM     15  H11 UNL     1       0.304  21.905  10.495  1.00  0.00     0.186 HD
HETATM   16  C21 UNL     1      -0.792  21.591  12.191  1.00  0.00     0.165 A 
HETATM   17  N12 UNL     1      -1.054  20.294  11.952  1.00  0.00    -0.237 N 
HETATM   18  C22 UNL     1      -0.730  19.449  10.957  1.00  0.00     0.338 A 
HETATM   19  O4  UNL     1      -0.052  19.674   9.925  1.00  0.00    -0.246 OA
ENDROOT
BRANCH  13  20
HETATM   20  N8  UNL     1       0.895  24.274  10.738  1.00  0.00    -0.156 N 
HETATM   21  C19 UNL     1       1.907  23.732   9.928  1.00  0.00     0.294 C 
HETATM   22  O3  UNL     1       1.606  22.841   9.090  1.00  0.00    -0.268 OA
ATOM     23  H8  UNL     1       0.703  25.271  10.633  1.00  0.00     0.187 HD
BRANCH  21  24
HETATM   24  C20 UNL     1       3.330  24.152  10.000  1.00  0.00     0.469 C 
BRANCH  24  25
HETATM   25  N9  UNL     1       3.448  25.354  10.827  1.00  0.00    -0.042 N 
ATOM     26  H93 UNL     1       4.373  25.779  10.756  1.00  0.00     0.277 HD
ATOM     27  H92 UNL     1       2.900  26.130  10.457  1.00  0.00     0.277 HD
ATOM     28  H91 UNL     1       3.200  25.133  11.791  1.00  0.00     0.277 HD
ENDBRANCH  24  25
BRANCH  24  29
HETATM   29  N10 UNL     1       4.176  23.150  10.601  1.00  0.00    -0.042 N 
ATOM     30 3H10 UNL     1       4.509  23.453  11.516  1.00  0.00     0.277 HD
ATOM     31 2H10 UNL     1       3.632  22.335  10.885  1.00  0.00     0.277 HD
ATOM     32 1H10 UNL     1       4.953  22.880   9.999  1.00  0.00     0.277 HD
ENDBRANCH  24  29
ENDBRANCH  21  24
ENDBRANCH  13  20
BRANCH   5  33
HETATM   33  N3  UNL     1      -3.106  19.434  14.982  1.00  0.00    -0.219 N 
HETATM   34  N4  UNL     1      -2.705  18.622  15.946  1.00  0.00    -0.013 NA
HETATM   35  N5  UNL     1      -3.726  18.119  16.618  1.00  0.00    -0.281 N 
HETATM   36  C10 UNL     1      -4.860  18.607  16.089  1.00  0.00     0.074 A 
ATOM     37  H5  UNL     1      -3.663  17.472  17.404  1.00  0.00     0.184 HD
HETATM   38  C11 UNL     1      -6.194  18.431  16.381  1.00  0.00     0.033 A 
HETATM   39  C15 UNL     1      -4.467  19.435  15.058  1.00  0.00     0.084 A 
HETATM   40  C12 UNL     1      -7.110  19.110  15.606  1.00  0.00     0.002 A 
HETATM   41  C13 UNL     1      -6.736  19.941  14.573  1.00  0.00     0.002 A 
HETATM   42  C14 UNL     1      -5.383  20.108  14.292  1.00  0.00     0.034 A 
ENDBRANCH   5  33
BRANCH   1  43
HETATM   43  C6  UNL     1      -1.160  17.048  10.423  1.00  0.00     0.137 C 
BRANCH  43  44
HETATM   44  C5  UNL     1       0.277  16.600  10.253  1.00  0.00     0.020 C 
BRANCH  44  45
HETATM   45  C4  UNL     1       0.941  16.658  11.610  1.00  0.00     0.002 C 
BRANCH  45  46
HETATM   46  C3  UNL     1       2.267  17.370  11.544  1.00  0.00     0.007 C 
BRANCH  46  47
HETATM   47  C2  UNL     1       2.486  18.381  12.625  1.00  0.00     0.075 C 
BRANCH  47  48
HETATM   48  C1  UNL     1       3.248  19.569  12.253  1.00  0.00     0.113 C 
HETATM   49  N1  UNL     1       2.759  20.632  11.478  1.00  0.00    -0.086 NA
HETATM   50  N13 UNL     1       4.482  19.644  12.679  1.00  0.00    -0.260 N 
ATOM     51  H13 UNL     1       4.867  18.889  13.245  1.00  0.00     0.195 HD
BRANCH  50  52
HETATM   52  O5  UNL     1       5.253  20.713  12.378  1.00  0.00    -0.289 OA
ATOM     53  H5  UNL     1       6.127  20.798  12.739  1.00  0.00     0.244 HD
ENDBRANCH  50  52
ENDBRANCH  47  48
ENDBRANCH  46  47
ENDBRANCH  45  46
ENDBRANCH  44  45
ENDBRANCH  43  44
ENDBRANCH   1  43
TORSDOF 12
ENDMDL
MODEL 5
REMARK VINA RESULT: -8.097010661      0.949      1.064
REMARK  12 active torsions:
REMARK  status: ('A' for Active; 'I' for Inactive)
REMARK    1  A    between atoms: C1_2  and  C2_3 
REMARK    2  A    between atoms: C2_3  and  C3_4 
REMARK    3  A    between atoms: C3_4  and  C4_5 
REMARK    4  A    between atoms: C4_5  and  C5_6 
REMARK    5  A    between atoms: C5_6  and  C6_7 
REMARK    6  A    between atoms: C6_7  and  N2_8 
REMARK    7  A    between atoms: C9_12  and  N3_13 
REMARK    8  A    between atoms: C18_30  and  N8_31 
REMARK       I    between atoms: N8_31  and  C19_33 
REMARK    9  A    between atoms: C19_33  and  C20_35 
REMARK   10  A    between atoms: C20_35  and  N9_36 
REMARK   11  A    between atoms: C20_35  and  N10_40 
REMARK   12  A    between atoms: N13_50  and  O5_52 
ROOT
HETATM    1  N2  UNL     1      -2.668  17.877  12.776  1.00  0.00    -0.264 N 
HETATM    2  C7  UNL     1      -1.426  18.395  12.580  1.00  0.00     0.282 A 
HETATM    3  O1  UNL     1      -0.795  19.189  13.326  1.00  0.00    -0.265 OA
HETATM    4  C8  UNL     1      -0.948  17.900  11.398  1.00  0.00     0.159 A 
HETATM    5  C9  UNL     1       0.249  18.095  10.728  1.00  0.00     0.160 A 
HETATM    6  N6  UNL     1       0.374  17.433   9.570  1.00  0.00    -0.332 N 
ATOM      7  H6  UNL     1       1.245  17.558   9.056  1.00  0.00     0.168 HD
HETATM    8  C16 UNL     1      -0.543  16.619   9.027  1.00  0.00     0.149 A 
HETATM    9  C17 UNL     1      -0.345  15.969   7.831  1.00  0.00     0.290 A 
HETATM   10  O2  UNL     1       0.752  16.165   7.239  1.00  0.00    -0.265 OA
HETATM   11  N7  UNL     1      -1.284  15.163   7.317  1.00  0.00    -0.154 N 
ATOM     12  H7  UNL     1      -1.124  14.688   6.429  1.00  0.00     0.187 HD
HETATM   13  C18 UNL     1      -2.436  14.987   7.981  1.00  0.00     0.689 A 
HETATM   14  N11 UNL     1      -2.661  15.611   9.161  1.00  0.00    -0.173 N 
ATOM     15  H11 UNL     1      -3.546  15.459   9.645  1.00  0.00     0.186 HD
HETATM   16  C21 UNL     1      -1.746  16.426   9.708  1.00  0.00     0.165 A 
HETATM   17  N12 UNL     1      -1.963  17.050  10.879  1.00  0.00    -0.237 N 
HETATM   18  C22 UNL     1      -2.989  17.066  11.748  1.00  0.00     0.338 A 
HETATM   19  O4  UNL     1      -4.086  16.458  11.679  1.00  0.00    -0.246 OA
ENDROOT
BRANCH  13  20
HETATM   20  N8  UNL     1      -3.355  14.229   7.529  1.00  0.00    -0.156 N 
HETATM   21  C19 UNL     1      -3.188  13.187   6.602  1.00  0.00     0.294 C 
HETATM   22  O3  UNL     1      -2.464  12.204   6.911  1.00  0.00    -0.268 OA
ATOM     23  H8  UNL     1      -4.301  14.395   7.873  1.00  0.00     0.187 HD
BRANCH  21  24
HETATM   24  C20 UNL     1      -3.824  13.173   5.259  1.00  0.00     0.469 C 
BRANCH  24  25
HETATM   25  N9  UNL     1      -3.445  14.379   4.522  1.00  0.00    -0.042 N 
ATOM     26  H93 UNL     1      -4.002  14.504   3.676  1.00  0.00     0.277 HD
ATOM     27  H92 UNL     1      -3.725  15.231   5.009  1.00  0.00     0.277 HD
ATOM     28  H91 UNL     1      -2.445  14.360   4.324  1.00  0.00     0.277 HD
ENDBRANCH  24  25
BRANCH  24  29
HETATM   29  N10 UNL     1      -3.409  12.049   4.458  1.00  0.00    -0.042 N 
ATOM     30 3H10 UNL     1      -2.710  12.328   3.770  1.00  0.00     0.277 HD
ATOM     31 2H10 UNL     1      -2.847  11.397   5.007  1.00  0.00     0.277 HD
ATOM     32 1H10 UNL     1      -4.192  11.573   4.013  1.00  0.00     0.277 HD
ENDBRANCH  24  29
ENDBRANCH  21  24
ENDBRANCH  13  20
BRANCH   5  33
HETATM   33  N3  UNL     1       1.260  18.948  11.255  1.00  0.00    -0.219 N 
HETATM   34  N4  UNL     1       1.564  20.189  10.915  1.00  0.00    -0.013 NA
HETATM   35  N5  UNL     1       2.571  20.659  11.632  1.00  0.00    -0.281 N 
HETATM   36  C10 UNL     1       2.963  19.701  12.488  1.00  0.00     0.074 A 
ATOM     37  H5  UNL     1       2.979  21.590  11.549  1.00  0.00     0.184 HD
HETATM   38  C11 UNL     1       3.945  19.636  13.452  1.00  0.00     0.033 A 
HETATM   39  C15 UNL     1       2.136  18.624  12.249  1.00  0.00     0.084 A 
HETATM   40  C12 UNL     1       4.063  18.459  14.159  1.00  0.00     0.002 A 
HETATM   41  C13 UNL     1       3.246  17.372  13.935  1.00  0.00     0.002 A 
HETATM   42  C14 UNL     1       2.259  17.456  12.957  1.00  0.00     0.034 A 
ENDBRANCH   5  33
BRANCH   1  43
HETATM   43  C6  UNL     1      -3.487  18.178  13.927  1.00  0.00     0.137 C 
BRANCH  43  44
HETATM   44  C5  UNL     1      -4.359  19.396  13.702  1.00  0.00     0.020 C 
BRANCH  44  45
HETATM   45  C4  UNL     1      -3.875  20.487  14.631  1.00  0.00     0.002 C 
BRANCH  45  46
HETATM   46  C3  UNL     1      -3.905  21.835  13.959  1.00  0.00     0.007 C 
BRANCH  46  47
HETATM   47  C2  UNL     1      -2.852  22.035  12.915  1.00  0.00     0.075 C 
BRANCH  47  48
HETATM   48  C1  UNL     1      -1.552  22.498  13.390  1.00  0.00     0.113 C 
HETATM   49  N1  UNL     1      -1.353  23.447  14.404  1.00  0.00    -0.086 NA
HETATM   50  N13 UNL     1      -0.492  21.981  12.824  1.00  0.00    -0.260 N 
ATOM     51  H13 UNL     1      -0.602  21.287  12.085  1.00  0.00     0.195 HD
BRANCH  50  52
HETATM   52  O5  UNL     1       0.748  22.357  13.209  1.00  0.00    -0.289 OA
ATOM     53  H5  UNL     1       1.513  21.874  12.919  1.00  0.00     0.244 HD
ENDBRANCH  50  52
ENDBRANCH  47  48
ENDBRANCH  46  47
ENDBRANCH  45  46
ENDBRANCH  44  45
ENDBRANCH  43  44
ENDBRANCH   1  43
TORSDOF 12
ENDMDL
