MODEL 1
REMARK VINA RESULT: -6.950577289      0.000      0.000
REMARK  7 active torsions:
REMARK  status: ('A' for Active; 'I' for Inactive)
REMARK    1  A    between atoms: N1_2  and  C2_4 
REMARK       I    between atoms: N2_6  and  C4_8 
REMARK       I    between atoms: C4_8  and  N6_24 
REMARK       I    between atoms: N3_9  and  C5_11 
REMARK    2  A    between atoms: C5_11  and  C6_13 
REMARK    3  A    between atoms: C9_18  and  S1_19 
REMARK    4  A    between atoms: N6_24  and  C11_26 
REMARK    5  A    between atoms: C11_26  and  C12_27 
REMARK    6  A    between atoms: C11_26  and  C14_31 
REMARK    7  A    between atoms: C12_27  and  C13_29 
ROOT
HETATM    1  C2  UNL     1       8.483   2.892  18.768  1.00  0.00     0.088 C 
HETATM    2  C3  UNL     1       8.789   3.813  17.657  1.00  0.00     0.089 C 
HETATM    3  N2  UNL     1       7.882   3.308  19.794  1.00  0.00    -0.181 N 
ATOM      4  H2  UNL     1       7.710   2.605  20.513  1.00  0.00     0.185 HD
HETATM    5  C4  UNL     1       7.415   4.596  20.093  1.00  0.00     0.683 C 
HETATM    6  N3  UNL     1       7.865   5.621  19.477  1.00  0.00    -0.154 N 
ATOM      7  H3  UNL     1       8.575   5.452  18.764  1.00  0.00     0.187 HD
HETATM    8  C5  UNL     1       7.481   6.962  19.682  1.00  0.00     0.287 C 
HETATM    9  O1  UNL     1       6.664   7.560  18.913  1.00  0.00    -0.265 OA
HETATM   10  N6  UNL     1       6.446   4.767  21.108  1.00  0.00    -0.214 N 
ATOM     11  H6  UNL     1       6.801   4.729  22.064  1.00  0.00     0.178 HD
ENDROOT
BRANCH  10  12
HETATM   12  C11 UNL     1       5.051   4.983  20.985  1.00  0.00     0.173 C 
BRANCH  12  13
HETATM   13  C12 UNL     1       4.635   6.065  21.956  1.00  0.00     0.160 C 
HETATM   14  O3  UNL     1       4.586   7.219  21.573  1.00  0.00    -0.295 OA
BRANCH  13  15
HETATM   15  C13 UNL     1       4.284   5.770  23.353  1.00  0.00     0.165 C 
HETATM   16 BR1  UNL     1       2.637   6.550  23.945  1.00  0.00    -0.088 Br
ENDBRANCH  13  15
ENDBRANCH  12  13
BRANCH  12  17
HETATM   17  C14 UNL     1       4.202   3.753  21.195  1.00  0.00     0.008 C 
HETATM   18  C15 UNL     1       4.967   2.605  21.810  1.00  0.00     0.012 C 
HETATM   19  C16 UNL     1       3.563   3.306  19.926  1.00  0.00     0.012 C 
ENDBRANCH  12  17
ENDBRANCH  10  12
BRANCH   1  20
HETATM   20  N1  UNL     1       8.863   1.526  18.690  1.00  0.00    -0.384 N 
HETATM   21  C1  UNL     1      10.092   1.076  18.057  1.00  0.00     0.147 C 
ATOM     22  H1  UNL     1       8.243   0.827  19.098  1.00  0.00     0.160 HD
ENDBRANCH   1  20
BRANCH   8  23
HETATM   23  C6  UNL     1       8.008   7.732  20.799  1.00  0.00     0.118 A 
HETATM   24  C7  UNL     1       9.000   8.673  20.623  1.00  0.00     0.122 A 
HETATM   25  N4  UNL     1       9.498   9.391  21.657  1.00  0.00    -0.370 N 
HETATM   26  C8  UNL     1       9.038   9.210  22.906  1.00  0.00     0.127 A 
ATOM     27  H4  UNL     1      10.233  10.078  21.486  1.00  0.00     0.164 HD
HETATM   28  C9  UNL     1       8.046   8.273  23.096  1.00  0.00     0.116 A 
HETATM   29  N5  UNL     1       7.559   7.564  22.055  1.00  0.00    -0.342 N 
ATOM     30  H5  UNL     1       6.825   6.876  22.227  1.00  0.00     0.167 HD
BRANCH  28  31
HETATM   31  S1  UNL     1       7.456   8.047  24.727  1.00  0.00     0.064 S 
HETATM   32  C10 UNL     1       5.875   8.773  24.988  1.00  0.00     0.134 C 
HETATM   33  O2  UNL     1       8.557   8.751  25.781  1.00  0.00    -0.252 OA
ENDBRANCH  28  31
ENDBRANCH   8  23
TORSDOF 7
ENDMDL
MODEL 2
REMARK VINA RESULT: -6.789779998      3.082      5.190
REMARK  7 active torsions:
REMARK  status: ('A' for Active; 'I' for Inactive)
REMARK    1  A    between atoms: N1_2  and  C2_4 
REMARK       I    between atoms: N2_6  and  C4_8 
REMARK       I    between atoms: C4_8  and  N6_24 
REMARK       I    between atoms: N3_9  and  C5_11 
REMARK    2  A    between atoms: C5_11  and  C6_13 
REMARK    3  A    between atoms: C9_18  and  S1_19 
REMARK    4  A    between atoms: N6_24  and  C11_26 
REMARK    5  A    between atoms: C11_26  and  C12_27 
REMARK    6  A    between atoms: C11_26  and  C14_31 
REMARK    7  A    between atoms: C12_27  and  C13_29 
ROOT
HETATM    1  C2  UNL     1       6.762  10.615  18.243  1.00  0.00     0.088 C 
HETATM    2  C3  UNL     1       5.543  11.137  18.890  1.00  0.00     0.089 C 
HETATM    3  N2  UNL     1       7.308   9.562  18.666  1.00  0.00    -0.181 N 
ATOM      4  H2  UNL     1       8.145   9.272  18.161  1.00  0.00     0.185 HD
HETATM    5  C4  UNL     1       6.932   8.729  19.730  1.00  0.00     0.683 C 
HETATM    6  N3  UNL     1       6.150   9.146  20.651  1.00  0.00    -0.154 N 
ATOM      7  H3  UNL     1       5.818  10.107  20.569  1.00  0.00     0.187 HD
HETATM    8  C5  UNL     1       5.699   8.412  21.767  1.00  0.00     0.287 C 
HETATM    9  O1  UNL     1       4.546   7.879  21.810  1.00  0.00    -0.265 OA
HETATM   10  N6  UNL     1       7.445   7.413  19.798  1.00  0.00    -0.214 N 
ATOM     11  H6  UNL     1       8.403   7.333  20.140  1.00  0.00     0.178 HD
ENDROOT
BRANCH  10  12
HETATM   12  C11 UNL     1       6.816   6.189  19.458  1.00  0.00     0.173 C 
BRANCH  12  13
HETATM   13  C12 UNL     1       6.905   5.248  20.638  1.00  0.00     0.160 C 
HETATM   14  O3  UNL     1       7.841   5.349  21.410  1.00  0.00    -0.295 OA
BRANCH  13  15
HETATM   15  C13 UNL     1       5.895   4.208  20.887  1.00  0.00     0.165 C 
HETATM   16 BR1  UNL     1       6.613   2.484  21.317  1.00  0.00    -0.088 Br
ENDBRANCH  13  15
ENDBRANCH  12  13
BRANCH  12  17
HETATM   17  C14 UNL     1       7.368   5.518  18.225  1.00  0.00     0.008 C 
HETATM   18  C15 UNL     1       6.302   4.851  17.388  1.00  0.00     0.012 C 
HETATM   19  C16 UNL     1       8.428   4.529  18.567  1.00  0.00     0.012 C 
ENDBRANCH  12  17
ENDBRANCH  10  12
BRANCH   1  20
HETATM   20  N1  UNL     1       7.331  11.296  17.135  1.00  0.00    -0.384 N 
HETATM   21  C1  UNL     1       6.589  11.603  15.922  1.00  0.00     0.147 C 
ATOM     22  H1  UNL     1       8.308  11.583  17.191  1.00  0.00     0.160 HD
ENDBRANCH   1  20
BRANCH   8  23
HETATM   23  C6  UNL     1       6.545   8.230  22.937  1.00  0.00     0.118 A 
HETATM   24  C7  UNL     1       6.098   7.557  24.054  1.00  0.00     0.122 A 
HETATM   25  N4  UNL     1       6.878   7.386  25.148  1.00  0.00    -0.370 N 
HETATM   26  C8  UNL     1       8.130   7.871  25.184  1.00  0.00     0.127 A 
ATOM     27  H4  UNL     1       6.509   6.883  25.955  1.00  0.00     0.164 HD
HETATM   28  C9  UNL     1       8.590   8.545  24.074  1.00  0.00     0.116 A 
HETATM   29  N5  UNL     1       7.801   8.708  22.990  1.00  0.00    -0.342 N 
ATOM     30  H5  UNL     1       8.169   9.213  22.184  1.00  0.00     0.167 HD
BRANCH  28  31
HETATM   31  S1  UNL     1      10.222   9.172  24.134  1.00  0.00     0.064 S 
HETATM   32  C10 UNL     1      11.099   8.659  25.570  1.00  0.00     0.134 C 
HETATM   33  O2  UNL     1      10.136  10.849  24.121  1.00  0.00    -0.252 OA
ENDBRANCH  28  31
ENDBRANCH   8  23
TORSDOF 7
ENDMDL
MODEL 3
REMARK VINA RESULT: -6.659068382      3.458      7.106
REMARK  7 active torsions:
REMARK  status: ('A' for Active; 'I' for Inactive)
REMARK    1  A    between atoms: N1_2  and  C2_4 
REMARK       I    between atoms: N2_6  and  C4_8 
REMARK       I    between atoms: C4_8  and  N6_24 
REMARK       I    between atoms: N3_9  and  C5_11 
REMARK    2  A    between atoms: C5_11  and  C6_13 
REMARK    3  A    between atoms: C9_18  and  S1_19 
REMARK    4  A    between atoms: N6_24  and  C11_26 
REMARK    5  A    between atoms: C11_26  and  C12_27 
REMARK    6  A    between atoms: C11_26  and  C14_31 
REMARK    7  A    between atoms: C12_27  and  C13_29 
ROOT
HETATM    1  C2  UNL     1       9.526   8.961  23.347  1.00  0.00     0.088 C 
HETATM    2  C3  UNL     1       8.633   8.024  24.056  1.00  0.00     0.089 C 
HETATM    3  N2  UNL     1       9.302   9.268  22.146  1.00  0.00    -0.181 N 
ATOM      4  H2  UNL     1       9.967   9.922  21.733  1.00  0.00     0.185 HD
HETATM    5  C4  UNL     1       8.272   8.844  21.293  1.00  0.00     0.683 C 
HETATM    6  N3  UNL     1       7.603   7.784  21.543  1.00  0.00    -0.154 N 
ATOM      7  H3  UNL     1       7.857   7.270  22.387  1.00  0.00     0.187 HD
HETATM    8  C5  UNL     1       6.550   7.252  20.771  1.00  0.00     0.287 C 
HETATM    9  O1  UNL     1       5.329   7.418  21.082  1.00  0.00    -0.265 OA
HETATM   10  N6  UNL     1       7.984   9.588  20.126  1.00  0.00    -0.214 N 
ATOM     11  H6  UNL     1       8.623   9.442  19.344  1.00  0.00     0.178 HD
ENDROOT
BRANCH  10  12
HETATM   12  C11 UNL     1       6.933  10.508  19.889  1.00  0.00     0.173 C 
BRANCH  12  13
HETATM   13  C12 UNL     1       6.481  10.378  18.452  1.00  0.00     0.160 C 
HETATM   14  O3  UNL     1       7.294  10.527  17.559  1.00  0.00    -0.295 OA
BRANCH  13  15
HETATM   15  C13 UNL     1       5.087  10.075  18.095  1.00  0.00     0.165 C 
HETATM   16 BR1  UNL     1       4.802   9.699  16.237  1.00  0.00    -0.088 Br
ENDBRANCH  13  15
ENDBRANCH  12  13
BRANCH  12  17
HETATM   17  C14 UNL     1       7.274  11.946  20.191  1.00  0.00     0.008 C 
HETATM   18  C15 UNL     1       7.823  12.143  21.584  1.00  0.00     0.012 C 
HETATM   19  C16 UNL     1       6.103  12.843  19.983  1.00  0.00     0.012 C 
ENDBRANCH  12  17
ENDBRANCH  10  12
BRANCH   1  20
HETATM   20  N1  UNL     1      10.645   9.526  24.012  1.00  0.00    -0.384 N 
HETATM   21  C1  UNL     1      11.012   9.189  25.379  1.00  0.00     0.147 C 
ATOM     22  H1  UNL     1      11.219  10.201  23.508  1.00  0.00     0.160 HD
ENDBRANCH   1  20
BRANCH   8  23
HETATM   23  C6  UNL     1       6.817   6.480  19.567  1.00  0.00     0.118 A 
HETATM   24  C7  UNL     1       6.243   6.808  18.357  1.00  0.00     0.122 A 
HETATM   25  N4  UNL     1       6.484   6.093  17.232  1.00  0.00    -0.370 N 
HETATM   26  C8  UNL     1       7.300   5.025  17.256  1.00  0.00     0.127 A 
ATOM     27  H4  UNL     1       6.039   6.367  16.356  1.00  0.00     0.164 HD
HETATM   28  C9  UNL     1       7.880   4.688  18.458  1.00  0.00     0.116 A 
HETATM   29  N5  UNL     1       7.631   5.410  19.572  1.00  0.00    -0.342 N 
ATOM     30  H5  UNL     1       8.075   5.134  20.448  1.00  0.00     0.167 HD
BRANCH  28  31
HETATM   31  S1  UNL     1       8.939   3.296  18.477  1.00  0.00     0.064 S 
HETATM   32  C10 UNL     1       9.368   2.742  16.862  1.00  0.00     0.134 C 
HETATM   33  O2  UNL     1       8.152   2.052  19.284  1.00  0.00    -0.252 OA
ENDBRANCH  28  31
ENDBRANCH   8  23
TORSDOF 7
ENDMDL
MODEL 4
REMARK VINA RESULT: -6.604541237      2.757      3.768
REMARK  7 active torsions:
REMARK  status: ('A' for Active; 'I' for Inactive)
REMARK    1  A    between atoms: N1_2  and  C2_4 
REMARK       I    between atoms: N2_6  and  C4_8 
REMARK       I    between atoms: C4_8  and  N6_24 
REMARK       I    between atoms: N3_9  and  C5_11 
REMARK    2  A    between atoms: C5_11  and  C6_13 
REMARK    3  A    between atoms: C9_18  and  S1_19 
REMARK    4  A    between atoms: N6_24  and  C11_26 
REMARK    5  A    between atoms: C11_26  and  C12_27 
REMARK    6  A    between atoms: C11_26  and  C14_31 
REMARK    7  A    between atoms: C12_27  and  C13_29 
ROOT
HETATM    1  C2  UNL     1       6.155   6.075  15.413  1.00  0.00     0.088 C 
HETATM    2  C3  UNL     1       4.996   6.915  15.771  1.00  0.00     0.089 C 
HETATM    3  N2  UNL     1       6.871   5.559  16.312  1.00  0.00    -0.181 N 
ATOM      4  H2  UNL     1       7.650   4.993  15.978  1.00  0.00     0.185 HD
HETATM    5  C4  UNL     1       6.752   5.650  17.707  1.00  0.00     0.683 C 
HETATM    6  N3  UNL     1       6.075   6.586  18.253  1.00  0.00    -0.154 N 
ATOM      7  H3  UNL     1       5.631   7.257  17.625  1.00  0.00     0.187 HD
HETATM    8  C5  UNL     1       5.880   6.788  19.635  1.00  0.00     0.287 C 
HETATM    9  O1  UNL     1       4.812   6.438  20.228  1.00  0.00    -0.265 OA
HETATM   10  N6  UNL     1       7.412   4.703  18.525  1.00  0.00    -0.214 N 
ATOM     11  H6  UNL     1       8.413   4.854  18.650  1.00  0.00     0.178 HD
ENDROOT
BRANCH  10  12
HETATM   12  C11 UNL     1       6.878   3.574  19.194  1.00  0.00     0.173 C 
BRANCH  12  13
HETATM   13  C12 UNL     1       7.326   3.602  20.638  1.00  0.00     0.160 C 
HETATM   14  O3  UNL     1       8.055   4.501  21.016  1.00  0.00    -0.295 OA
BRANCH  13  15
HETATM   15  C13 UNL     1       6.909   2.577  21.606  1.00  0.00     0.165 C 
HETATM   16 BR1  UNL     1       5.012   2.390  21.804  1.00  0.00    -0.088 Br
ENDBRANCH  13  15
ENDBRANCH  12  13
BRANCH  12  17
HETATM   17  C14 UNL     1       7.236   2.246  18.572  1.00  0.00     0.008 C 
HETATM   18  C15 UNL     1       8.726   2.039  18.438  1.00  0.00     0.012 C 
HETATM   19  C16 UNL     1       6.584   2.070  17.245  1.00  0.00     0.012 C 
ENDBRANCH  12  17
ENDBRANCH  10  12
BRANCH   1  20
HETATM   20  N1  UNL     1       6.474   5.838  14.050  1.00  0.00    -0.384 N 
HETATM   21  C1  UNL     1       6.526   6.892  13.050  1.00  0.00     0.147 C 
ATOM     22  H1  UNL     1       6.675   4.882  13.758  1.00  0.00     0.160 HD
ENDBRANCH   1  20
BRANCH   8  23
HETATM   23  C6  UNL     1       6.907   7.414  20.455  1.00  0.00     0.118 A 
HETATM   24  C7  UNL     1       7.974   8.080  19.892  1.00  0.00     0.122 A 
HETATM   25  N4  UNL     1       8.936   8.662  20.648  1.00  0.00    -0.370 N 
HETATM   26  C8  UNL     1       8.882   8.610  21.989  1.00  0.00     0.127 A 
ATOM     27  H4  UNL     1       9.710   9.146  20.193  1.00  0.00     0.164 HD
HETATM   28  C9  UNL     1       7.821   7.948  22.565  1.00  0.00     0.116 A 
HETATM   29  N5  UNL     1       6.869   7.371  21.798  1.00  0.00    -0.342 N 
ATOM     30  H5  UNL     1       6.096   6.887  22.254  1.00  0.00     0.167 HD
BRANCH  28  31
HETATM   31  S1  UNL     1       7.763   7.886  24.312  1.00  0.00     0.064 S 
HETATM   32  C10 UNL     1       6.814   9.192  25.011  1.00  0.00     0.134 C 
HETATM   33  O2  UNL     1       9.337   7.992  24.889  1.00  0.00    -0.252 OA
ENDBRANCH  28  31
ENDBRANCH   8  23
TORSDOF 7
ENDMDL
MODEL 5
REMARK VINA RESULT: -6.532063246      1.739      2.167
REMARK  7 active torsions:
REMARK  status: ('A' for Active; 'I' for Inactive)
REMARK    1  A    between atoms: N1_2  and  C2_4 
REMARK       I    between atoms: N2_6  and  C4_8 
REMARK       I    between atoms: C4_8  and  N6_24 
REMARK       I    between atoms: N3_9  and  C5_11 
REMARK    2  A    between atoms: C5_11  and  C6_13 
REMARK    3  A    between atoms: C9_18  and  S1_19 
REMARK    4  A    between atoms: N6_24  and  C11_26 
REMARK    5  A    between atoms: C11_26  and  C12_27 
REMARK    6  A    between atoms: C11_26  and  C14_31 
REMARK    7  A    between atoms: C12_27  and  C13_29 
ROOT
HETATM    1  C2  UNL     1       8.130   3.257  19.194  1.00  0.00     0.088 C 
HETATM    2  C3  UNL     1       8.442   4.463  18.403  1.00  0.00     0.089 C 
HETATM    3  N2  UNL     1       7.396   3.337  20.215  1.00  0.00    -0.181 N 
ATOM      4  H2  UNL     1       7.231   2.456  20.702  1.00  0.00     0.185 HD
HETATM    5  C4  UNL     1       6.773   4.459  20.780  1.00  0.00     0.683 C 
HETATM    6  N3  UNL     1       7.172   5.643  20.507  1.00  0.00    -0.154 N 
ATOM      7  H3  UNL     1       7.959   5.725  19.863  1.00  0.00     0.187 HD
HETATM    8  C5  UNL     1       6.634   6.847  21.007  1.00  0.00     0.287 C 
HETATM    9  O1  UNL     1       5.836   7.567  20.328  1.00  0.00    -0.265 OA
HETATM   10  N6  UNL     1       5.701   4.279  21.684  1.00  0.00    -0.214 N 
ATOM     11  H6  UNL     1       5.967   4.012  22.632  1.00  0.00     0.178 HD
ENDROOT
BRANCH  10  12
HETATM   12  C11 UNL     1       4.309   4.416  21.459  1.00  0.00     0.173 C 
BRANCH  12  13
HETATM   13  C12 UNL     1       3.643   4.841  22.748  1.00  0.00     0.160 C 
HETATM   14  O3  UNL     1       4.032   4.370  23.801  1.00  0.00    -0.295 OA
BRANCH  13  15
HETATM   15  C13 UNL     1       2.537   5.809  22.774  1.00  0.00     0.165 C 
HETATM   16 BR1  UNL     1       2.361   6.778  24.419  1.00  0.00    -0.088 Br
ENDBRANCH  13  15
ENDBRANCH  12  13
BRANCH  12  17
HETATM   17  C14 UNL     1       3.634   3.181  20.917  1.00  0.00     0.008 C 
HETATM   18  C15 UNL     1       4.179   1.902  21.508  1.00  0.00     0.012 C 
HETATM   19  C16 UNL     1       3.715   3.119  19.431  1.00  0.00     0.012 C 
ENDBRANCH  12  17
ENDBRANCH  10  12
BRANCH   1  20
HETATM   20  N1  UNL     1       8.652   1.995  18.810  1.00  0.00    -0.384 N 
HETATM   21  C1  UNL     1       9.878   1.840  18.041  1.00  0.00     0.147 C 
ATOM     22  H1  UNL     1       8.144   1.155  19.085  1.00  0.00     0.160 HD
ENDBRANCH   1  20
BRANCH   8  23
HETATM   23  C6  UNL     1       6.973   7.326  22.338  1.00  0.00     0.118 A 
HETATM   24  C7  UNL     1       6.088   7.223  23.390  1.00  0.00     0.122 A 
HETATM   25  N4  UNL     1       6.394   7.669  24.631  1.00  0.00    -0.370 N 
HETATM   26  C8  UNL     1       7.586   8.235  24.885  1.00  0.00     0.127 A 
ATOM     27  H4  UNL     1       5.711   7.575  25.383  1.00  0.00     0.164 HD
HETATM   28  C9  UNL     1       8.480   8.344  23.843  1.00  0.00     0.116 A 
HETATM   29  N5  UNL     1       8.161   7.895  22.610  1.00  0.00    -0.342 N 
ATOM     30  H5  UNL     1       8.844   7.991  21.858  1.00  0.00     0.167 HD
BRANCH  28  31
HETATM   31  S1  UNL     1      10.028   9.084  24.186  1.00  0.00     0.064 S 
HETATM   32  C10 UNL     1      10.573   8.794  25.834  1.00  0.00     0.134 C 
HETATM   33  O2  UNL     1       9.878  10.739  23.949  1.00  0.00    -0.252 OA
ENDBRANCH  28  31
ENDBRANCH   8  23
TORSDOF 7
ENDMDL
