MODEL 1
REMARK VINA RESULT: -7.206706256      0.000      0.000
REMARK  8 active torsions:
REMARK  status: ('A' for Active; 'I' for Inactive)
REMARK    1  A    between atoms: C2_2  and  C3_3 
REMARK    2  A    between atoms: C3_3  and  C4_4 
REMARK    3  A    between atoms: C3_3  and  N1_6 
REMARK    4  A    between atoms: C3_3  and  C12_18 
REMARK       I    between atoms: N1_6  and  C6_8 
REMARK       I    between atoms: C6_8  and  N2_10 
REMARK    5  A    between atoms: C10_14  and  O2_16 
REMARK    6  A    between atoms: C12_18  and  O3_19 
REMARK    7  A    between atoms: C12_18  and  N3_21 
REMARK    8  A    between atoms: C16_25  and  C17_26 
REMARK       I    between atoms: C17_26  and  N4_28 
ROOT
HETATM    1  C17 UNL     1       6.325   7.980  22.217  1.00  0.00     0.244 C 
HETATM    2  O4  UNL     1       6.068   7.778  23.452  1.00  0.00    -0.271 OA
HETATM    3  N4  UNL     1       7.121   9.089  21.905  1.00  0.00    -0.330 N 
HETATM    4  C18 UNL     1       7.558   9.496  20.603  1.00  0.00     0.164 C 
HETATM    5  C19 UNL     1       7.705  11.006  20.650  1.00  0.00     0.191 C 
HETATM    6  F1  UNL     1       6.674  11.636  19.984  1.00  0.00    -0.248 F 
HETATM    7  C20 UNL     1       7.761  11.353  22.101  1.00  0.00     0.079 C 
HETATM    8  C21 UNL     1       7.653  10.041  22.845  1.00  0.00     0.197 C 
HETATM    9  C22 UNL     1       8.972   9.583  23.320  1.00  0.00     0.085 C 
HETATM   10  N5  UNL     1      10.016   9.228  23.678  1.00  0.00    -0.195 NA
ENDROOT
BRANCH   1  11
HETATM   11  C16 UNL     1       5.770   7.027  21.182  1.00  0.00     0.178 C 
HETATM   12  N3  UNL     1       4.676   6.283  21.677  1.00  0.00    -0.350 N 
HETATM   13  C13 UNL     1       3.571   7.297  21.731  1.00  0.00     0.126 C 
HETATM   14  C14 UNL     1       3.830   8.293  20.680  1.00  0.00     0.022 C 
HETATM   15  C15 UNL     1       5.128   7.827  20.049  1.00  0.00     0.037 C 
BRANCH  12  16
HETATM   16  C12 UNL     1       4.503   5.005  22.169  1.00  0.00     0.143 C 
BRANCH  16  17
HETATM   17  C3  UNL     1       4.155   3.695  21.643  1.00  0.00     0.098 C 
BRANCH  17  18
HETATM   18  C2  UNL     1       4.074   2.778  22.881  1.00  0.00     0.035 C 
HETATM   19  C1  UNL     1       4.025   1.338  22.702  1.00  0.00     0.008 C 
ENDBRANCH  17  18
BRANCH  17  20
HETATM   20  C4  UNL     1       2.852   3.569  20.989  1.00  0.00     0.035 C 
HETATM   21  C5  UNL     1       1.721   4.083  21.843  1.00  0.00     0.008 C 
ENDBRANCH  17  20
BRANCH  17  22
HETATM   22  N1  UNL     1       5.300   3.274  20.853  1.00  0.00    -0.326 N 
HETATM   23  C6  UNL     1       5.703   3.532  19.559  1.00  0.00     0.321 C 
HETATM   24  O1  UNL     1       5.055   4.279  18.799  1.00  0.00    -0.247 OA
HETATM   25  N2  UNL     1       6.896   2.956  19.003  1.00  0.00    -0.302 N 
HETATM   26  C7  UNL     1       7.789   2.063  19.714  1.00  0.00     0.131 C 
HETATM   27  C10 UNL     1       7.391   3.170  17.670  1.00  0.00     0.133 C 
HETATM   28  C8  UNL     1       8.852   1.676  18.719  1.00  0.00     0.025 C 
HETATM   29  C9  UNL     1       8.159   1.899  17.392  1.00  0.00     0.062 C 
HETATM   30  C11 UNL     1       8.334   4.348  17.723  1.00  0.00     0.071 C 
ATOM     31  H1  UNL     1       5.939   2.662  21.361  1.00  0.00     0.165 HD
BRANCH  27  32
HETATM   32  O2  UNL     1       6.360   3.369  16.759  1.00  0.00    -0.371 OA
ATOM     33  H2  UNL     1       6.612   3.121  15.878  1.00  0.00     0.212 HD
ENDBRANCH  27  32
ENDBRANCH  17  22
ENDBRANCH  16  17
BRANCH  16  34
HETATM   34  O3  UNL     1       4.730   4.972  23.505  1.00  0.00    -0.347 OA
ATOM     35  H3  UNL     1       5.131   5.774  23.818  1.00  0.00     0.219 HD
ENDBRANCH  16  34
ENDBRANCH  12  16
ENDBRANCH   1  11
TORSDOF 8
ENDMDL
MODEL 2
REMARK VINA RESULT: -7.187113210      2.561      3.915
REMARK  8 active torsions:
REMARK  status: ('A' for Active; 'I' for Inactive)
REMARK    1  A    between atoms: C2_2  and  C3_3 
REMARK    2  A    between atoms: C3_3  and  C4_4 
REMARK    3  A    between atoms: C3_3  and  N1_6 
REMARK    4  A    between atoms: C3_3  and  C12_18 
REMARK       I    between atoms: N1_6  and  C6_8 
REMARK       I    between atoms: C6_8  and  N2_10 
REMARK    5  A    between atoms: C10_14  and  O2_16 
REMARK    6  A    between atoms: C12_18  and  O3_19 
REMARK    7  A    between atoms: C12_18  and  N3_21 
REMARK    8  A    between atoms: C16_25  and  C17_26 
REMARK       I    between atoms: C17_26  and  N4_28 
ROOT
HETATM    1  C17 UNL     1       8.030   7.714  21.506  1.00  0.00     0.244 C 
HETATM    2  O4  UNL     1       7.982   6.862  22.458  1.00  0.00    -0.271 OA
HETATM    3  N4  UNL     1       8.266   9.049  21.858  1.00  0.00    -0.330 N 
HETATM    4  C18 UNL     1       8.386  10.165  20.969  1.00  0.00     0.164 C 
HETATM    5  C19 UNL     1       7.897  11.381  21.734  1.00  0.00     0.191 C 
HETATM    6  F1  UNL     1       6.646  11.778  21.307  1.00  0.00    -0.248 F 
HETATM    7  C20 UNL     1       7.922  10.980  23.172  1.00  0.00     0.079 C 
HETATM    8  C21 UNL     1       8.430   9.555  23.196  1.00  0.00     0.197 C 
HETATM    9  C22 UNL     1       9.853   9.500  23.576  1.00  0.00     0.085 C 
HETATM   10  N5  UNL     1      10.976   9.470  23.863  1.00  0.00    -0.195 NA
ENDROOT
BRANCH   1  11
HETATM   11  C16 UNL     1       7.840   7.242  20.083  1.00  0.00     0.178 C 
HETATM   12  N3  UNL     1       7.129   6.023  20.017  1.00  0.00    -0.350 N 
HETATM   13  C13 UNL     1       5.725   6.428  20.359  1.00  0.00     0.126 C 
HETATM   14  C14 UNL     1       5.546   7.822  19.926  1.00  0.00     0.022 C 
HETATM   15  C15 UNL     1       6.899   8.201  19.353  1.00  0.00     0.037 C 
BRANCH  12  16
HETATM   16  C12 UNL     1       7.473   4.698  19.845  1.00  0.00     0.143 C 
BRANCH  16  17
HETATM   17  C3  UNL     1       7.504   3.733  18.756  1.00  0.00     0.098 C 
BRANCH  17  18
HETATM   18  C2  UNL     1       9.003   3.506  18.469  1.00  0.00     0.035 C 
HETATM   19  C1  UNL     1       9.474   2.174  18.141  1.00  0.00     0.008 C 
ENDBRANCH  17  18
BRANCH  17  20
HETATM   20  C4  UNL     1       6.963   2.403  19.035  1.00  0.00     0.035 C 
HETATM   21  C5  UNL     1       5.517   2.440  19.457  1.00  0.00     0.008 C 
ENDBRANCH  17  20
BRANCH  17  22
HETATM   22  N1  UNL     1       6.931   4.421  17.611  1.00  0.00    -0.326 N 
HETATM   23  C6  UNL     1       6.512   3.998  16.366  1.00  0.00     0.321 C 
HETATM   24  O1  UNL     1       6.558   2.799  16.023  1.00  0.00    -0.247 OA
HETATM   25  N2  UNL     1       5.994   4.910  15.385  1.00  0.00    -0.302 N 
HETATM   26  C7  UNL     1       5.856   6.339  15.582  1.00  0.00     0.131 C 
HETATM   27  C10 UNL     1       5.533   4.558  14.070  1.00  0.00     0.133 C 
HETATM   28  C8  UNL     1       5.334   6.879  14.275  1.00  0.00     0.025 C 
HETATM   29  C9  UNL     1       5.775   5.825  13.283  1.00  0.00     0.062 C 
HETATM   30  C11 UNL     1       4.052   4.282  14.169  1.00  0.00     0.071 C 
ATOM     31  H1  UNL     1       6.816   5.424  17.757  1.00  0.00     0.165 HD
BRANCH  27  32
HETATM   32  O2  UNL     1       6.231   3.476  13.548  1.00  0.00    -0.371 OA
ATOM     33  H2  UNL     1       7.067   3.351  13.980  1.00  0.00     0.212 HD
ENDBRANCH  27  32
ENDBRANCH  17  22
ENDBRANCH  16  17
BRANCH  16  34
HETATM   34  O3  UNL     1       7.904   4.159  21.012  1.00  0.00    -0.347 OA
ATOM     35  H3  UNL     1       8.346   4.799  21.557  1.00  0.00     0.219 HD
ENDBRANCH  16  34
ENDBRANCH  12  16
ENDBRANCH   1  11
TORSDOF 8
ENDMDL
MODEL 3
REMARK VINA RESULT: -7.157013603      1.896      2.320
REMARK  8 active torsions:
REMARK  status: ('A' for Active; 'I' for Inactive)
REMARK    1  A    between atoms: C2_2  and  C3_3 
REMARK    2  A    between atoms: C3_3  and  C4_4 
REMARK    3  A    between atoms: C3_3  and  N1_6 
REMARK    4  A    between atoms: C3_3  and  C12_18 
REMARK       I    between atoms: N1_6  and  C6_8 
REMARK       I    between atoms: C6_8  and  N2_10 
REMARK    5  A    between atoms: C10_14  and  O2_16 
REMARK    6  A    between atoms: C12_18  and  O3_19 
REMARK    7  A    between atoms: C12_18  and  N3_21 
REMARK    8  A    between atoms: C16_25  and  C17_26 
REMARK       I    between atoms: C17_26  and  N4_28 
ROOT
HETATM    1  C17 UNL     1       5.771   7.286  21.529  1.00  0.00     0.244 C 
HETATM    2  O4  UNL     1       4.511   7.483  21.608  1.00  0.00    -0.271 OA
HETATM    3  N4  UNL     1       6.606   8.311  21.989  1.00  0.00    -0.330 N 
HETATM    4  C18 UNL     1       8.038   8.305  22.024  1.00  0.00     0.164 C 
HETATM    5  C19 UNL     1       8.480   9.749  21.866  1.00  0.00     0.191 C 
HETATM    6  F1  UNL     1       8.982   9.989  20.604  1.00  0.00    -0.248 F 
HETATM    7  C20 UNL     1       7.272  10.569  22.179  1.00  0.00     0.079 C 
HETATM    8  C21 UNL     1       6.177   9.581  22.515  1.00  0.00     0.197 C 
HETATM    9  C22 UNL     1       5.981   9.472  23.972  1.00  0.00     0.085 C 
HETATM   10  N5  UNL     1       5.845   9.386  25.121  1.00  0.00    -0.195 NA
ENDROOT
BRANCH   1  11
HETATM   11  C16 UNL     1       6.279   5.980  20.961  1.00  0.00     0.178 C 
HETATM   12  N3  UNL     1       5.370   5.411  20.042  1.00  0.00    -0.350 N 
HETATM   13  C13 UNL     1       5.500   6.299  18.839  1.00  0.00     0.126 C 
HETATM   14  C14 UNL     1       6.868   6.840  18.831  1.00  0.00     0.022 C 
HETATM   15  C15 UNL     1       7.498   6.252  20.079  1.00  0.00     0.037 C 
BRANCH  12  16
HETATM   16  C12 UNL     1       4.428   4.404  20.094  1.00  0.00     0.143 C 
BRANCH  16  17
HETATM   17  C3  UNL     1       4.394   2.961  19.919  1.00  0.00     0.098 C 
BRANCH  17  18
HETATM   18  C2  UNL     1       4.251   2.390  21.345  1.00  0.00     0.035 C 
HETATM   19  C1  UNL     1       5.404   2.370  22.226  1.00  0.00     0.008 C 
ENDBRANCH  17  18
BRANCH  17  20
HETATM   20  C4  UNL     1       3.262   2.411  19.172  1.00  0.00     0.035 C 
HETATM   21  C5  UNL     1       2.463   1.418  19.976  1.00  0.00     0.008 C 
ENDBRANCH  17  20
BRANCH  17  22
HETATM   22  N1  UNL     1       5.712   2.597  19.425  1.00  0.00    -0.326 N 
HETATM   23  C6  UNL     1       6.232   2.418  18.160  1.00  0.00     0.321 C 
HETATM   24  O1  UNL     1       5.547   2.589  17.131  1.00  0.00    -0.247 OA
HETATM   25  N2  UNL     1       7.597   2.024  17.946  1.00  0.00    -0.302 N 
HETATM   26  C7  UNL     1       8.558   1.775  19.001  1.00  0.00     0.131 C 
HETATM   27  C10 UNL     1       8.222   1.818  16.667  1.00  0.00     0.133 C 
HETATM   28  C8  UNL     1       9.819   1.335  18.305  1.00  0.00     0.025 C 
HETATM   29  C9  UNL     1       9.301   0.810  16.983  1.00  0.00     0.062 C 
HETATM   30  C11 UNL     1       8.841   3.131  16.251  1.00  0.00     0.071 C 
ATOM     31  H1  UNL     1       6.393   2.441  20.168  1.00  0.00     0.165 HD
BRANCH  27  32
HETATM   32  O2  UNL     1       7.322   1.343  15.720  1.00  0.00    -0.371 OA
ATOM     33  H2  UNL     1       7.092   2.009  15.083  1.00  0.00     0.212 HD
ENDBRANCH  27  32
ENDBRANCH  17  22
ENDBRANCH  16  17
BRANCH  16  34
HETATM   34  O3  UNL     1       3.206   4.907  20.398  1.00  0.00    -0.347 OA
ATOM     35  H3  UNL     1       2.506   4.316  20.149  1.00  0.00     0.219 HD
ENDBRANCH  16  34
ENDBRANCH  12  16
ENDBRANCH   1  11
TORSDOF 8
ENDMDL
MODEL 4
REMARK VINA RESULT: -7.044538532      1.896      4.301
REMARK  8 active torsions:
REMARK  status: ('A' for Active; 'I' for Inactive)
REMARK    1  A    between atoms: C2_2  and  C3_3 
REMARK    2  A    between atoms: C3_3  and  C4_4 
REMARK    3  A    between atoms: C3_3  and  N1_6 
REMARK    4  A    between atoms: C3_3  and  C12_18 
REMARK       I    between atoms: N1_6  and  C6_8 
REMARK       I    between atoms: C6_8  and  N2_10 
REMARK    5  A    between atoms: C10_14  and  O2_16 
REMARK    6  A    between atoms: C12_18  and  O3_19 
REMARK    7  A    between atoms: C12_18  and  N3_21 
REMARK    8  A    between atoms: C16_25  and  C17_26 
REMARK       I    between atoms: C17_26  and  N4_28 
ROOT
HETATM    1  C17 UNL     1       7.892   7.532  21.488  1.00  0.00     0.244 C 
HETATM    2  O4  UNL     1       7.690   6.850  22.550  1.00  0.00    -0.271 OA
HETATM    3  N4  UNL     1       8.191   8.890  21.651  1.00  0.00    -0.330 N 
HETATM    4  C18 UNL     1       8.479   9.838  20.617  1.00  0.00     0.164 C 
HETATM    5  C19 UNL     1       8.009  11.189  21.127  1.00  0.00     0.191 C 
HETATM    6  F1  UNL     1       6.839  11.582  20.511  1.00  0.00    -0.248 F 
HETATM    7  C20 UNL     1       7.865  11.026  22.604  1.00  0.00     0.079 C 
HETATM    8  C21 UNL     1       8.262   9.597  22.904  1.00  0.00     0.197 C 
HETATM    9  C22 UNL     1       9.634   9.522  23.438  1.00  0.00     0.085 C 
HETATM   10  N5  UNL     1      10.719   9.475  23.845  1.00  0.00    -0.195 NA
ENDROOT
BRANCH   1  11
HETATM   11  C16 UNL     1       7.806   6.846  20.143  1.00  0.00     0.178 C 
HETATM   12  N3  UNL     1       7.054   5.652  20.203  1.00  0.00    -0.350 N 
HETATM   13  C13 UNL     1       5.644   6.143  20.348  1.00  0.00     0.126 C 
HETATM   14  C14 UNL     1       5.560   7.456  19.690  1.00  0.00     0.022 C 
HETATM   15  C15 UNL     1       6.971   7.703  19.191  1.00  0.00     0.037 C 
BRANCH  12  16
HETATM   16  C12 UNL     1       7.358   4.307  20.269  1.00  0.00     0.143 C 
BRANCH  16  17
HETATM   17  C3  UNL     1       7.101   3.112  19.480  1.00  0.00     0.098 C 
BRANCH  17  18
HETATM   18  C2  UNL     1       7.115   3.593  18.014  1.00  0.00     0.035 C 
HETATM   19  C1  UNL     1       5.860   3.752  17.303  1.00  0.00     0.008 C 
ENDBRANCH  17  18
BRANCH  17  20
HETATM   20  C4  UNL     1       8.105   2.050  19.543  1.00  0.00     0.035 C 
HETATM   21  C5  UNL     1       9.100   2.123  18.413  1.00  0.00     0.008 C 
ENDBRANCH  17  20
BRANCH  17  22
HETATM   22  N1  UNL     1       5.741   2.716  19.805  1.00  0.00    -0.326 N 
HETATM   23  C6  UNL     1       5.114   2.359  20.981  1.00  0.00     0.321 C 
HETATM   24  O1  UNL     1       5.715   2.349  22.075  1.00  0.00    -0.247 OA
HETATM   25  N2  UNL     1       3.730   1.977  21.022  1.00  0.00    -0.302 N 
HETATM   26  C7  UNL     1       2.856   1.923  19.868  1.00  0.00     0.131 C 
HETATM   27  C10 UNL     1       2.998   1.595  22.199  1.00  0.00     0.133 C 
HETATM   28  C8  UNL     1       1.534   1.418  20.385  1.00  0.00     0.025 C 
HETATM   29  C9  UNL     1       1.932   0.679  21.645  1.00  0.00     0.062 C 
HETATM   30  C11 UNL     1       2.369   2.845  22.766  1.00  0.00     0.071 C 
ATOM     31  H1  UNL     1       5.121   2.697  18.995  1.00  0.00     0.165 HD
BRANCH  27  32
HETATM   32  O2  UNL     1       3.808   0.952  23.128  1.00  0.00    -0.371 OA
ATOM     33  H2  UNL     1       3.797   1.390  23.972  1.00  0.00     0.212 HD
ENDBRANCH  27  32
ENDBRANCH  17  22
ENDBRANCH  16  17
BRANCH  16  34
HETATM   34  O3  UNL     1       8.103   4.039  21.369  1.00  0.00    -0.347 OA
ATOM     35  H3  UNL     1       8.364   4.830  21.824  1.00  0.00     0.219 HD
ENDBRANCH  16  34
ENDBRANCH  12  16
ENDBRANCH   1  11
TORSDOF 8
ENDMDL
MODEL 5
REMARK VINA RESULT: -7.012297168      2.845      4.393
REMARK  8 active torsions:
REMARK  status: ('A' for Active; 'I' for Inactive)
REMARK    1  A    between atoms: C2_2  and  C3_3 
REMARK    2  A    between atoms: C3_3  and  C4_4 
REMARK    3  A    between atoms: C3_3  and  N1_6 
REMARK    4  A    between atoms: C3_3  and  C12_18 
REMARK       I    between atoms: N1_6  and  C6_8 
REMARK       I    between atoms: C6_8  and  N2_10 
REMARK    5  A    between atoms: C10_14  and  O2_16 
REMARK    6  A    between atoms: C12_18  and  O3_19 
REMARK    7  A    between atoms: C12_18  and  N3_21 
REMARK    8  A    between atoms: C16_25  and  C17_26 
REMARK       I    between atoms: C17_26  and  N4_28 
ROOT
HETATM    1  C17 UNL     1       7.471   9.154  24.831  1.00  0.00     0.244 C 
HETATM    2  O4  UNL     1       6.799   9.216  25.917  1.00  0.00    -0.271 OA
HETATM    3  N4  UNL     1       8.854   8.967  24.948  1.00  0.00    -0.330 N 
HETATM    4  C18 UNL     1       9.799   8.843  23.879  1.00  0.00     0.164 C 
HETATM    5  C19 UNL     1      11.115   9.392  24.400  1.00  0.00     0.191 C 
HETATM    6  F1  UNL     1      11.390  10.635  23.869  1.00  0.00    -0.248 F 
HETATM    7  C20 UNL     1      10.975   9.410  25.887  1.00  0.00     0.079 C 
HETATM    8  C21 UNL     1       9.594   8.866  26.179  1.00  0.00     0.197 C 
HETATM    9  C22 UNL     1       9.652   7.457  26.608  1.00  0.00     0.085 C 
HETATM   10  N5  UNL     1       9.710   6.345  26.932  1.00  0.00    -0.195 NA
ENDROOT
BRANCH   1  11
HETATM   11  C16 UNL     1       6.749   9.280  23.509  1.00  0.00     0.178 C 
HETATM   12  N3  UNL     1       6.675   8.046  22.824  1.00  0.00    -0.350 N 
HETATM   13  C13 UNL     1       5.658   7.278  23.617  1.00  0.00     0.126 C 
HETATM   14  C14 UNL     1       4.735   8.251  24.219  1.00  0.00     0.022 C 
HETATM   15  C15 UNL     1       5.275   9.593  23.765  1.00  0.00     0.037 C 
BRANCH  12  16
HETATM   16  C12 UNL     1       7.366   7.462  21.783  1.00  0.00     0.143 C 
BRANCH  16  17
HETATM   17  C3  UNL     1       7.536   7.683  20.355  1.00  0.00     0.098 C 
BRANCH  17  18
HETATM   18  C2  UNL     1       6.140   8.103  19.848  1.00  0.00     0.035 C 
HETATM   19  C1  UNL     1       5.804   7.919  18.448  1.00  0.00     0.008 C 
ENDBRANCH  17  18
BRANCH  17  20
HETATM   20  C4  UNL     1       8.430   8.770  19.955  1.00  0.00     0.035 C 
HETATM   21  C5  UNL     1       7.862  10.132  20.260  1.00  0.00     0.008 C 
ENDBRANCH  17  20
BRANCH  17  22
HETATM   22  N1  UNL     1       7.839   6.377  19.792  1.00  0.00    -0.326 N 
HETATM   23  C6  UNL     1       7.240   5.138  19.901  1.00  0.00     0.321 C 
HETATM   24  O1  UNL     1       6.206   4.959  20.575  1.00  0.00    -0.247 OA
HETATM   25  N2  UNL     1       7.770   3.977  19.243  1.00  0.00    -0.302 N 
HETATM   26  C7  UNL     1       8.959   3.968  18.415  1.00  0.00     0.131 C 
HETATM   27  C10 UNL     1       7.213   2.652  19.299  1.00  0.00     0.133 C 
HETATM   28  C8  UNL     1       9.153   2.533  17.999  1.00  0.00     0.025 C 
HETATM   29  C9  UNL     1       8.423   1.773  19.086  1.00  0.00     0.062 C 
HETATM   30  C11 UNL     1       6.258   2.515  18.137  1.00  0.00     0.071 C 
ATOM     31  H1  UNL     1       8.664   6.377  19.193  1.00  0.00     0.165 HD
BRANCH  27  32
HETATM   32  O2  UNL     1       6.591   2.401  20.516  1.00  0.00    -0.371 OA
ATOM     33  H2  UNL     1       6.243   3.194  20.907  1.00  0.00     0.212 HD
ENDBRANCH  27  32
ENDBRANCH  17  22
ENDBRANCH  16  17
BRANCH  16  34
HETATM   34  O3  UNL     1       8.083   6.399  22.221  1.00  0.00    -0.347 OA
ATOM     35  H3  UNL     1       8.890   6.665  22.645  1.00  0.00     0.219 HD
ENDBRANCH  16  34
ENDBRANCH  12  16
ENDBRANCH   1  11
TORSDOF 8
ENDMDL
