MODEL 1
REMARK VINA RESULT: -9.981340005      0.000      0.000
REMARK  5 active torsions:
REMARK  status: ('A' for Active; 'I' for Inactive)
REMARK    1  A    between atoms: N1_2  and  C2_3 
REMARK       I    between atoms: N1_2  and  C10_15 
REMARK    2  A    between atoms: C2_3  and  C3_4 
REMARK       I    between atoms: C3_4  and  N2_6 
REMARK    3  A    between atoms: N2_6  and  C4_8 
REMARK    4  A    between atoms: C10_15  and  C11_17 
REMARK    5  A    between atoms: C11_17  and  N3_18 
ROOT
HETATM    1  N3  UNL     1       6.816   5.623  20.661  1.00  0.00    -0.304 N 
HETATM    2  C12 UNL     1       5.550   5.372  21.246  1.00  0.00     0.279 A 
HETATM    3  O3  UNL     1       4.798   6.223  21.758  1.00  0.00    -0.268 OA
HETATM    4  C13 UNL     1       5.284   3.939  21.142  1.00  0.00     0.221 A 
HETATM    5  N4  UNL     1       4.983   3.306  22.390  1.00  0.00    -0.349 N 
ATOM      6  H4  UNL     1       5.318   3.590  23.311  1.00  0.00     0.163 HD
HETATM    7  C14 UNL     1       4.129   2.205  22.102  1.00  0.00     0.073 A 
HETATM    8  C15 UNL     1       3.809   1.077  22.824  1.00  0.00     0.119 A 
HETATM    9  N5  UNL     1       2.958   0.202  22.278  1.00  0.00    -0.373 N 
ATOM     10  H5  UNL     1       2.722  -0.634  22.814  1.00  0.00     0.164 HD
HETATM   11  C16 UNL     1       2.394   0.353  21.071  1.00  0.00     0.090 A 
HETATM   12  C17 UNL     1       2.709   1.478  20.343  1.00  0.00     0.049 A 
HETATM   13  C18 UNL     1       3.586   2.424  20.853  1.00  0.00     0.062 A 
HETATM   14  N6  UNL     1       4.089   3.654  20.348  1.00  0.00    -0.345 N 
HETATM   15  C19 UNL     1       3.525   4.439  19.281  1.00  0.00     0.153 C 
HETATM   16  C20 UNL     1       6.462   3.363  20.466  1.00  0.00     0.027 A 
HETATM   17  C21 UNL     1       6.750   2.062  20.112  1.00  0.00     0.014 A 
HETATM   18  C22 UNL     1       7.936   1.734  19.473  1.00  0.00     0.001 A 
HETATM   19  C23 UNL     1       8.801   2.774  19.215  1.00  0.00     0.002 A 
HETATM   20  C24 UNL     1       8.514   4.069  19.568  1.00  0.00     0.030 A 
HETATM   21  C25 UNL     1       7.336   4.389  20.203  1.00  0.00     0.049 A 
ENDROOT
BRANCH   1  22
HETATM   22  C11 UNL     1       7.469   6.937  20.554  1.00  0.00     0.235 C 
BRANCH  22  23
HETATM   23  C10 UNL     1       7.634   7.517  21.908  1.00  0.00     0.238 C 
HETATM   24  N1  UNL     1       7.184   8.827  22.206  1.00  0.00    -0.346 N 
HETATM   25  C1  UNL     1       6.543   9.678  21.224  1.00  0.00     0.153 C 
HETATM   26  O2  UNL     1       8.180   6.834  22.803  1.00  0.00    -0.272 OA
BRANCH  24  27
HETATM   27  C2  UNL     1       7.355   9.373  23.536  1.00  0.00     0.228 C 
BRANCH  27  28
HETATM   28  C3  UNL     1       8.783   9.235  24.003  1.00  0.00     0.240 C 
HETATM   29  O1  UNL     1       9.667   9.924  23.461  1.00  0.00    -0.271 OA
HETATM   30  N2  UNL     1       9.065   8.335  25.030  1.00  0.00    -0.326 N 
ATOM     31  H2  UNL     1       8.273   7.813  25.405  1.00  0.00     0.169 HD
BRANCH  30  32
HETATM   32  C4  UNL     1      10.311   8.069  25.603  1.00  0.00     0.035 A 
HETATM   33  C5  UNL     1      11.495   8.354  25.005  1.00  0.00     0.032 A 
HETATM   34  C6  UNL     1      12.700   8.039  25.635  1.00  0.00     0.044 A 
HETATM   35  C7  UNL     1      12.707   7.435  26.870  1.00  0.00     0.116 A 
HETATM   36  F1  UNL     1      13.851   7.112  27.515  1.00  0.00    -0.206 F 
HETATM   37  C8  UNL     1      11.499   7.155  27.460  1.00  0.00     0.044 A 
HETATM   38  C9  UNL     1      10.329   7.459  26.849  1.00  0.00     0.032 A 
ENDBRANCH  30  32
ENDBRANCH  27  28
ENDBRANCH  24  27
ENDBRANCH  22  23
ENDBRANCH   1  22
TORSDOF 5
ENDMDL
MODEL 2
REMARK VINA RESULT: -9.917235015      2.198      4.014
REMARK  5 active torsions:
REMARK  status: ('A' for Active; 'I' for Inactive)
REMARK    1  A    between atoms: N1_2  and  C2_3 
REMARK       I    between atoms: N1_2  and  C10_15 
REMARK    2  A    between atoms: C2_3  and  C3_4 
REMARK       I    between atoms: C3_4  and  N2_6 
REMARK    3  A    between atoms: N2_6  and  C4_8 
REMARK    4  A    between atoms: C10_15  and  C11_17 
REMARK    5  A    between atoms: C11_17  and  N3_18 
ROOT
HETATM    1  N3  UNL     1       5.473   5.736  19.803  1.00  0.00    -0.304 N 
HETATM    2  C12 UNL     1       6.856   5.581  19.534  1.00  0.00     0.279 A 
HETATM    3  O3  UNL     1       7.749   6.409  19.793  1.00  0.00    -0.268 OA
HETATM    4  C13 UNL     1       7.045   4.278  18.901  1.00  0.00     0.221 A 
HETATM    5  N4  UNL     1       7.725   4.332  17.642  1.00  0.00    -0.349 N 
ATOM      6  H4  UNL     1       7.715   5.107  16.980  1.00  0.00     0.163 HD
HETATM    7  C14 UNL     1       8.418   3.099  17.492  1.00  0.00     0.073 A 
HETATM    8  C15 UNL     1       8.934   2.464  16.384  1.00  0.00     0.119 A 
HETATM    9  N5  UNL     1       9.544   1.287  16.560  1.00  0.00    -0.373 N 
ATOM     10  H5  UNL     1       9.926   0.818  15.739  1.00  0.00     0.164 HD
HETATM   11  C16 UNL     1       9.686   0.684  17.750  1.00  0.00     0.090 A 
HETATM   12  C17 UNL     1       9.172   1.311  18.862  1.00  0.00     0.049 A 
HETATM   13  C18 UNL     1       8.527   2.534  18.746  1.00  0.00     0.062 A 
HETATM   14  N6  UNL     1       7.911   3.401  19.689  1.00  0.00    -0.345 N 
HETATM   15  C19 UNL     1       8.110   3.399  21.115  1.00  0.00     0.153 C 
HETATM   16  C20 UNL     1       5.701   3.679  18.811  1.00  0.00     0.027 A 
HETATM   17  C21 UNL     1       5.288   2.465  18.303  1.00  0.00     0.014 A 
HETATM   18  C22 UNL     1       3.953   2.093  18.318  1.00  0.00     0.001 A 
HETATM   19  C23 UNL     1       3.071   2.998  18.865  1.00  0.00     0.002 A 
HETATM   20  C24 UNL     1       3.482   4.205  19.371  1.00  0.00     0.030 A 
HETATM   21  C25 UNL     1       4.808   4.570  19.353  1.00  0.00     0.049 A 
ENDROOT
BRANCH   1  22
HETATM   22  C11 UNL     1       4.845   6.906  20.438  1.00  0.00     0.235 C 
BRANCH  22  23
HETATM   23  C10 UNL     1       5.211   6.942  21.874  1.00  0.00     0.238 C 
HETATM   24  N1  UNL     1       5.936   8.030  22.420  1.00  0.00    -0.346 N 
HETATM   25  C1  UNL     1       6.363   9.165  21.627  1.00  0.00     0.153 C 
HETATM   26  O2  UNL     1       4.872   5.992  22.615  1.00  0.00    -0.272 OA
BRANCH  24  27
HETATM   27  C2  UNL     1       6.281   8.045  23.827  1.00  0.00     0.228 C 
BRANCH  27  28
HETATM   28  C3  UNL     1       7.745   7.743  24.031  1.00  0.00     0.240 C 
HETATM   29  O1  UNL     1       8.336   7.023  23.205  1.00  0.00    -0.271 OA
HETATM   30  N2  UNL     1       8.389   8.284  25.144  1.00  0.00    -0.326 N 
ATOM     31  H2  UNL     1       7.817   8.856  25.764  1.00  0.00     0.169 HD
BRANCH  30  32
HETATM   32  C4  UNL     1       9.730   8.129  25.502  1.00  0.00     0.035 A 
HETATM   33  C5  UNL     1      10.768   8.637  24.791  1.00  0.00     0.032 A 
HETATM   34  C6  UNL     1      12.083   8.421  25.206  1.00  0.00     0.044 A 
HETATM   35  C7  UNL     1      12.348   7.690  26.340  1.00  0.00     0.116 A 
HETATM   36  F1  UNL     1      13.608   7.457  26.776  1.00  0.00    -0.206 F 
HETATM   37  C8  UNL     1      11.285   7.184  27.046  1.00  0.00     0.044 A 
HETATM   38  C9  UNL     1      10.009   7.392  26.645  1.00  0.00     0.032 A 
ENDBRANCH  30  32
ENDBRANCH  27  28
ENDBRANCH  24  27
ENDBRANCH  22  23
ENDBRANCH   1  22
TORSDOF 5
ENDMDL
MODEL 3
REMARK VINA RESULT: -9.803405755      2.619      4.435
REMARK  5 active torsions:
REMARK  status: ('A' for Active; 'I' for Inactive)
REMARK    1  A    between atoms: N1_2  and  C2_3 
REMARK       I    between atoms: N1_2  and  C10_15 
REMARK    2  A    between atoms: C2_3  and  C3_4 
REMARK       I    between atoms: C3_4  and  N2_6 
REMARK    3  A    between atoms: N2_6  and  C4_8 
REMARK    4  A    between atoms: C10_15  and  C11_17 
REMARK    5  A    between atoms: C11_17  and  N3_18 
ROOT
HETATM    1  N3  UNL     1       4.646   5.478  20.886  1.00  0.00    -0.304 N 
HETATM    2  C12 UNL     1       4.950   4.200  20.353  1.00  0.00     0.279 A 
HETATM    3  O3  UNL     1       4.271   3.166  20.500  1.00  0.00    -0.268 OA
HETATM    4  C13 UNL     1       6.199   4.312  19.603  1.00  0.00     0.221 A 
HETATM    5  N4  UNL     1       7.213   3.389  20.013  1.00  0.00    -0.349 N 
ATOM      6  H4  UNL     1       7.335   2.995  20.946  1.00  0.00     0.163 HD
HETATM    7  C14 UNL     1       8.020   3.125  18.871  1.00  0.00     0.073 A 
HETATM    8  C15 UNL     1       9.291   2.612  18.743  1.00  0.00     0.119 A 
HETATM    9  N5  UNL     1       9.795   2.478  17.511  1.00  0.00    -0.373 N 
ATOM     10  H5  UNL     1      10.736   2.098  17.417  1.00  0.00     0.164 HD
HETATM   11  C16 UNL     1       9.139   2.813  16.390  1.00  0.00     0.090 A 
HETATM   12  C17 UNL     1       7.868   3.328  16.509  1.00  0.00     0.049 A 
HETATM   13  C18 UNL     1       7.289   3.491  17.760  1.00  0.00     0.062 A 
HETATM   14  N6  UNL     1       6.026   3.983  18.189  1.00  0.00    -0.345 N 
HETATM   15  C19 UNL     1       4.839   4.120  17.385  1.00  0.00     0.153 C 
HETATM   16  C20 UNL     1       6.612   5.722  19.725  1.00  0.00     0.027 A 
HETATM   17  C21 UNL     1       7.710   6.387  19.220  1.00  0.00     0.014 A 
HETATM   18  C22 UNL     1       7.909   7.738  19.459  1.00  0.00     0.001 A 
HETATM   19  C23 UNL     1       6.956   8.372  20.224  1.00  0.00     0.002 A 
HETATM   20  C24 UNL     1       5.864   7.711  20.727  1.00  0.00     0.030 A 
HETATM   21  C25 UNL     1       5.671   6.370  20.487  1.00  0.00     0.049 A 
ENDROOT
BRANCH   1  22
HETATM   22  C11 UNL     1       3.472   5.811  21.707  1.00  0.00     0.235 C 
BRANCH  22  23
HETATM   23  C10 UNL     1       3.911   6.128  23.087  1.00  0.00     0.238 C 
HETATM   24  N1  UNL     1       3.712   7.416  23.644  1.00  0.00    -0.346 N 
HETATM   25  C1  UNL     1       3.077   8.495  22.915  1.00  0.00     0.153 C 
HETATM   26  O2  UNL     1       4.468   5.240  23.771  1.00  0.00    -0.272 OA
BRANCH  24  27
HETATM   27  C2  UNL     1       4.148   7.703  24.995  1.00  0.00     0.228 C 
BRANCH  27  28
HETATM   28  C3  UNL     1       5.536   8.293  25.005  1.00  0.00     0.240 C 
HETATM   29  O1  UNL     1       5.673   9.517  25.187  1.00  0.00    -0.271 OA
HETATM   30  N2  UNL     1       6.624   7.443  24.809  1.00  0.00    -0.326 N 
ATOM     31  H2  UNL     1       6.409   6.458  24.663  1.00  0.00     0.169 HD
BRANCH  30  32
HETATM   32  C4  UNL     1       7.977   7.792  24.791  1.00  0.00     0.035 A 
HETATM   33  C5  UNL     1       8.767   7.821  25.894  1.00  0.00     0.032 A 
HETATM   34  C6  UNL     1      10.107   8.200  25.795  1.00  0.00     0.044 A 
HETATM   35  C7  UNL     1      10.647   8.550  24.581  1.00  0.00     0.116 A 
HETATM   36  F1  UNL     1      11.940   8.923  24.441  1.00  0.00    -0.206 F 
HETATM   37  C8  UNL     1       9.833   8.514  23.476  1.00  0.00     0.044 A 
HETATM   38  C9  UNL     1       8.533   8.147  23.570  1.00  0.00     0.032 A 
ENDBRANCH  30  32
ENDBRANCH  27  28
ENDBRANCH  24  27
ENDBRANCH  22  23
ENDBRANCH   1  22
TORSDOF 5
ENDMDL
MODEL 4
REMARK VINA RESULT: -9.753157777      3.849      8.312
REMARK  5 active torsions:
REMARK  status: ('A' for Active; 'I' for Inactive)
REMARK    1  A    between atoms: N1_2  and  C2_3 
REMARK       I    between atoms: N1_2  and  C10_15 
REMARK    2  A    between atoms: C2_3  and  C3_4 
REMARK       I    between atoms: C3_4  and  N2_6 
REMARK    3  A    between atoms: N2_6  and  C4_8 
REMARK    4  A    between atoms: C10_15  and  C11_17 
REMARK    5  A    between atoms: C11_17  and  N3_18 
ROOT
HETATM    1  N3  UNL     1       5.530   8.962  19.684  1.00  0.00    -0.304 N 
HETATM    2  C12 UNL     1       5.990   7.999  20.618  1.00  0.00     0.279 A 
HETATM    3  O3  UNL     1       5.696   6.788  20.626  1.00  0.00    -0.268 OA
HETATM    4  C13 UNL     1       6.869   8.679  21.566  1.00  0.00     0.221 A 
HETATM    5  N4  UNL     1       6.493   8.510  22.937  1.00  0.00    -0.349 N 
ATOM      6  H4  UNL     1       5.550   8.360  23.295  1.00  0.00     0.163 HD
HETATM    7  C14 UNL     1       7.687   8.590  23.707  1.00  0.00     0.073 A 
HETATM    8  C15 UNL     1       7.903   8.836  25.045  1.00  0.00     0.119 A 
HETATM    9  N5  UNL     1       9.166   8.850  25.486  1.00  0.00    -0.373 N 
ATOM     10  H5  UNL     1       9.324   9.033  26.477  1.00  0.00     0.164 HD
HETATM   11  C16 UNL     1      10.237   8.638  24.708  1.00  0.00     0.090 A 
HETATM   12  C17 UNL     1      10.030   8.392  23.370  1.00  0.00     0.049 A 
HETATM   13  C18 UNL     1       8.744   8.365  22.850  1.00  0.00     0.062 A 
HETATM   14  N6  UNL     1       8.229   8.141  21.543  1.00  0.00    -0.345 N 
HETATM   15  C19 UNL     1       8.917   7.515  20.444  1.00  0.00     0.153 C 
HETATM   16  C20 UNL     1       6.899  10.090  21.141  1.00  0.00     0.027 A 
HETATM   17  C21 UNL     1       7.563  11.177  21.671  1.00  0.00     0.014 A 
HETATM   18  C22 UNL     1       7.451  12.438  21.105  1.00  0.00     0.001 A 
HETATM   19  C23 UNL     1       6.645  12.541  19.993  1.00  0.00     0.002 A 
HETATM   20  C24 UNL     1       5.985  11.460  19.466  1.00  0.00     0.030 A 
HETATM   21  C25 UNL     1       6.098  10.210  20.032  1.00  0.00     0.049 A 
ENDROOT
BRANCH   1  22
HETATM   22  C11 UNL     1       4.623   8.701  18.556  1.00  0.00     0.235 C 
BRANCH  22  23
HETATM   23  C10 UNL     1       5.375   8.047  17.460  1.00  0.00     0.238 C 
HETATM   24  N1  UNL     1       5.052   6.737  17.026  1.00  0.00    -0.346 N 
HETATM   25  C1  UNL     1       3.981   5.959  17.615  1.00  0.00     0.153 C 
HETATM   26  O2  UNL     1       6.313   8.665  16.908  1.00  0.00    -0.272 OA
BRANCH  24  27
HETATM   27  C2  UNL     1       5.800   6.117  15.952  1.00  0.00     0.228 C 
BRANCH  27  28
HETATM   28  C3  UNL     1       6.343   4.774  16.371  1.00  0.00     0.240 C 
HETATM   29  O1  UNL     1       5.925   3.748  15.803  1.00  0.00    -0.271 OA
HETATM   30  N2  UNL     1       7.299   4.727  17.386  1.00  0.00    -0.326 N 
ATOM     31  H2  UNL     1       7.572   5.621  17.792  1.00  0.00     0.169 HD
BRANCH  30  32
HETATM   32  C4  UNL     1       7.923   3.592  17.907  1.00  0.00     0.035 A 
HETATM   33  C5  UNL     1       7.477   2.915  18.995  1.00  0.00     0.032 A 
HETATM   34  C6  UNL     1       8.170   1.798  19.467  1.00  0.00     0.044 A 
HETATM   35  C7  UNL     1       9.314   1.367  18.838  1.00  0.00     0.116 A 
HETATM   36  F1  UNL     1      10.015   0.291  19.262  1.00  0.00    -0.206 F 
HETATM   37  C8  UNL     1       9.749   2.065  17.738  1.00  0.00     0.044 A 
HETATM   38  C9  UNL     1       9.079   3.149  17.279  1.00  0.00     0.032 A 
ENDBRANCH  30  32
ENDBRANCH  27  28
ENDBRANCH  24  27
ENDBRANCH  22  23
ENDBRANCH   1  22
TORSDOF 5
ENDMDL
MODEL 5
REMARK VINA RESULT: -9.672140877      2.025      3.846
REMARK  5 active torsions:
REMARK  status: ('A' for Active; 'I' for Inactive)
REMARK    1  A    between atoms: N1_2  and  C2_3 
REMARK       I    between atoms: N1_2  and  C10_15 
REMARK    2  A    between atoms: C2_3  and  C3_4 
REMARK       I    between atoms: C3_4  and  N2_6 
REMARK    3  A    between atoms: N2_6  and  C4_8 
REMARK    4  A    between atoms: C10_15  and  C11_17 
REMARK    5  A    between atoms: C11_17  and  N3_18 
ROOT
HETATM    1  N3  UNL     1       4.812   6.069  21.403  1.00  0.00    -0.304 N 
HETATM    2  C12 UNL     1       5.630   6.344  20.279  1.00  0.00     0.279 A 
HETATM    3  O3  UNL     1       5.842   7.468  19.786  1.00  0.00    -0.268 OA
HETATM    4  C13 UNL     1       6.180   5.077  19.804  1.00  0.00     0.221 A 
HETATM    5  N4  UNL     1       5.923   4.808  18.422  1.00  0.00    -0.349 N 
ATOM      6  H4  UNL     1       5.122   5.132  17.879  1.00  0.00     0.163 HD
HETATM    7  C14 UNL     1       6.997   4.005  17.948  1.00  0.00     0.073 A 
HETATM    8  C15 UNL     1       7.117   3.187  16.846  1.00  0.00     0.119 A 
HETATM    9  N5  UNL     1       8.276   2.545  16.662  1.00  0.00    -0.373 N 
ATOM     10  H5  UNL     1       8.363   1.940  15.846  1.00  0.00     0.164 HD
HETATM   11  C16 UNL     1       9.332   2.648  17.483  1.00  0.00     0.090 A 
HETATM   12  C17 UNL     1       9.220   3.464  18.586  1.00  0.00     0.049 A 
HETATM   13  C18 UNL     1       8.044   4.156  18.834  1.00  0.00     0.062 A 
HETATM   14  N6  UNL     1       7.641   5.051  19.863  1.00  0.00    -0.345 N 
HETATM   15  C19 UNL     1       8.505   5.769  20.764  1.00  0.00     0.153 C 
HETATM   16  C20 UNL     1       5.640   4.044  20.707  1.00  0.00     0.027 A 
HETATM   17  C21 UNL     1       5.824   2.677  20.726  1.00  0.00     0.014 A 
HETATM   18  C22 UNL     1       5.212   1.880  21.680  1.00  0.00     0.001 A 
HETATM   19  C23 UNL     1       4.416   2.525  22.599  1.00  0.00     0.002 A 
HETATM   20  C24 UNL     1       4.232   3.885  22.580  1.00  0.00     0.030 A 
HETATM   21  C25 UNL     1       4.842   4.672  21.631  1.00  0.00     0.049 A 
ENDROOT
BRANCH   1  22
HETATM   22  C11 UNL     1       4.067   7.064  22.190  1.00  0.00     0.235 C 
BRANCH  22  23
HETATM   23  C10 UNL     1       4.743   7.269  23.493  1.00  0.00     0.238 C 
HETATM   24  N1  UNL     1       5.643   8.346  23.692  1.00  0.00    -0.346 N 
HETATM   25  C1  UNL     1       5.960   9.305  22.653  1.00  0.00     0.153 C 
HETATM   26  O2  UNL     1       4.512   6.476  24.433  1.00  0.00    -0.272 OA
BRANCH  24  27
HETATM   27  C2  UNL     1       6.292   8.527  24.974  1.00  0.00     0.228 C 
BRANCH  27  28
HETATM   28  C3  UNL     1       7.727   8.066  24.928  1.00  0.00     0.240 C 
HETATM   29  O1  UNL     1       8.102   7.346  23.984  1.00  0.00    -0.271 OA
HETATM   30  N2  UNL     1       8.589   8.463  25.951  1.00  0.00    -0.326 N 
ATOM     31  H2  UNL     1       8.185   9.047  26.682  1.00  0.00     0.169 HD
BRANCH  30  32
HETATM   32  C4  UNL     1       9.943   8.149  26.084  1.00  0.00     0.035 A 
HETATM   33  C5  UNL     1      10.904   8.555  25.216  1.00  0.00     0.032 A 
HETATM   34  C6  UNL     1      12.235   8.182  25.408  1.00  0.00     0.044 A 
HETATM   35  C7  UNL     1      12.594   7.397  26.479  1.00  0.00     0.116 A 
HETATM   36  F1  UNL     1      13.872   7.014  26.702  1.00  0.00    -0.206 F 
HETATM   37  C8  UNL     1      11.609   6.997  27.347  1.00  0.00     0.044 A 
HETATM   38  C9  UNL     1      10.316   7.358  27.162  1.00  0.00     0.032 A 
ENDBRANCH  30  32
ENDBRANCH  27  28
ENDBRANCH  24  27
ENDBRANCH  22  23
ENDBRANCH   1  22
TORSDOF 5
ENDMDL
