MODEL 1
REMARK VINA RESULT: -7.889422252      0.000      0.000
REMARK  7 active torsions:
REMARK  status: ('A' for Active; 'I' for Inactive)
REMARK    1  A    between atoms: C7_11  and  N3_12 
REMARK    2  A    between atoms: N3_12  and  C8_14 
REMARK    3  A    between atoms: C12_22  and  N7_23 
REMARK    4  A    between atoms: N7_23  and  C13_24 
REMARK    5  A    between atoms: C13_24  and  C14_25 
REMARK    6  A    between atoms: C13_24  and  C15_28 
REMARK    7  A    between atoms: C14_25  and  O2_26 
ROOT
HETATM    1  C1  UNL     1      -5.496  -9.191  33.381  1.00  0.00     0.070 C 
HETATM    2  C2  UNL     1      -5.523  -7.846  33.999  1.00  0.00     0.035 A 
HETATM    3  N1  UNL     1      -6.738  -7.230  34.120  1.00  0.00    -0.324 N 
ATOM      4  H1  UNL     1      -7.575  -7.713  33.794  1.00  0.00     0.169 HD
HETATM    5  C3  UNL     1      -6.859  -6.001  34.660  1.00  0.00     0.266 A 
HETATM    6  O1  UNL     1      -7.979  -5.431  34.776  1.00  0.00    -0.267 OA
HETATM    7  C4  UNL     1      -5.743  -5.322  35.113  1.00  0.00     0.114 A 
HETATM    8  C5  UNL     1      -5.875  -4.012  35.686  1.00  0.00     0.105 C 
HETATM    9  N2  UNL     1      -5.970  -2.947  36.169  1.00  0.00    -0.191 NA
HETATM   10  C6  UNL     1      -4.533  -5.969  34.978  1.00  0.00     0.060 A 
HETATM   11  C7  UNL     1      -4.381  -7.221  34.432  1.00  0.00     0.073 A 
ENDROOT
BRANCH  11  12
HETATM   12  N3  UNL     1      -3.135  -7.857  34.324  1.00  0.00    -0.190 N 
ATOM     13  H3  UNL     1      -2.956  -8.692  34.882  1.00  0.00     0.184 HD
BRANCH  12  14
HETATM   14  C8  UNL     1      -2.195  -7.411  33.529  1.00  0.00     0.686 A 
HETATM   15  N4  UNL     1      -2.496  -6.632  32.482  1.00  0.00    -0.177 N 
HETATM   16  C9  UNL     1      -1.551  -6.149  31.647  1.00  0.00     0.157 A 
ATOM     17  H4  UNL     1      -3.473  -6.397  32.308  1.00  0.00     0.185 HD
HETATM   18  N5  UNL     1      -1.906  -5.322  30.543  1.00  0.00    -0.080 NA
HETATM   19  C10 UNL     1      -0.242  -6.450  31.858  1.00  0.00     0.144 A 
HETATM   20  C11 UNL     1       0.819  -5.955  30.996  1.00  0.00     0.108 C 
HETATM   21  C12 UNL     1       0.113  -7.273  32.961  1.00  0.00     0.212 A 
HETATM   22  N6  UNL     1       1.677  -5.552  30.321  1.00  0.00    -0.191 NA
HETATM   23  N8  UNL     1      -0.915  -7.718  33.754  1.00  0.00    -0.163 N 
ATOM     24  H8  UNL     1      -0.691  -8.311  34.553  1.00  0.00     0.187 HD
BRANCH  21  25
HETATM   25  N7  UNL     1       1.276  -7.498  33.116  1.00  0.00    -0.420 NA
BRANCH  25  26
HETATM   26  C13 UNL     1       2.398  -8.087  33.502  1.00  0.00     0.192 C 
BRANCH  26  27
HETATM   27  C14 UNL     1       3.221  -8.706  32.339  1.00  0.00     0.203 C 
BRANCH  27  28
HETATM   28  O2  UNL     1       3.686  -7.683  31.530  1.00  0.00    -0.398 OA
ATOM     29  H2  UNL     1       4.088  -7.021  32.078  1.00  0.00     0.209 HD
ENDBRANCH  27  28
ENDBRANCH  26  27
BRANCH  26  30
HETATM   30  C15 UNL     1       3.388  -7.371  34.409  1.00  0.00     0.015 C 
HETATM   31  C16 UNL     1       3.753  -8.294  35.561  1.00  0.00     0.012 C 
HETATM   32  C17 UNL     1       2.735  -6.159  35.080  1.00  0.00     0.012 C 
ENDBRANCH  26  30
ENDBRANCH  25  26
ENDBRANCH  21  25
ENDBRANCH  12  14
ENDBRANCH  11  12
TORSDOF 7
ENDMDL
MODEL 2
REMARK VINA RESULT: -7.785885112      3.802      7.823
REMARK  7 active torsions:
REMARK  status: ('A' for Active; 'I' for Inactive)
REMARK    1  A    between atoms: C7_11  and  N3_12 
REMARK    2  A    between atoms: N3_12  and  C8_14 
REMARK    3  A    between atoms: C12_22  and  N7_23 
REMARK    4  A    between atoms: N7_23  and  C13_24 
REMARK    5  A    between atoms: C13_24  and  C14_25 
REMARK    6  A    between atoms: C13_24  and  C15_28 
REMARK    7  A    between atoms: C14_25  and  O2_26 
ROOT
HETATM    1  C1  UNL     1      -0.276  -5.497  30.372  1.00  0.00     0.070 C 
HETATM    2  C2  UNL     1       0.382  -6.127  31.539  1.00  0.00     0.035 A 
HETATM    3  N1  UNL     1       1.749  -6.112  31.581  1.00  0.00    -0.324 N 
ATOM      4  H1  UNL     1       2.264  -5.665  30.821  1.00  0.00     0.169 HD
HETATM    5  C3  UNL     1       2.434  -6.669  32.598  1.00  0.00     0.266 A 
HETATM    6  O1  UNL     1       3.695  -6.655  32.640  1.00  0.00    -0.267 OA
HETATM    7  C4  UNL     1       1.764  -7.280  33.642  1.00  0.00     0.114 A 
HETATM    8  C5  UNL     1       2.497  -7.874  34.724  1.00  0.00     0.105 C 
HETATM    9  N2  UNL     1       3.082  -8.352  35.621  1.00  0.00    -0.191 NA
HETATM   10  C6  UNL     1       0.386  -7.278  33.573  1.00  0.00     0.060 A 
HETATM   11  C7  UNL     1      -0.337  -6.717  32.549  1.00  0.00     0.073 A 
ENDROOT
BRANCH  11  12
HETATM   12  N3  UNL     1      -1.739  -6.720  32.518  1.00  0.00    -0.190 N 
ATOM     13  H3  UNL     1      -2.244  -5.923  32.905  1.00  0.00     0.184 HD
BRANCH  12  14
HETATM   14  C8  UNL     1      -2.420  -7.716  32.007  1.00  0.00     0.686 A 
HETATM   15  N4  UNL     1      -2.838  -8.727  32.779  1.00  0.00    -0.177 N 
HETATM   16  C9  UNL     1      -3.549  -9.764  32.286  1.00  0.00     0.157 A 
ATOM     17  H4  UNL     1      -2.612  -8.713  33.774  1.00  0.00     0.185 HD
HETATM   18  N5  UNL     1      -3.980 -10.823  33.137  1.00  0.00    -0.080 NA
HETATM   19  C10 UNL     1      -3.863  -9.803  30.964  1.00  0.00     0.144 A 
HETATM   20  C11 UNL     1      -4.629 -10.892  30.379  1.00  0.00     0.108 C 
HETATM   21  C12 UNL     1      -3.435  -8.746  30.117  1.00  0.00     0.212 A 
HETATM   22  N6  UNL     1      -5.254 -11.750  29.904  1.00  0.00    -0.191 NA
HETATM   23  N8  UNL     1      -2.718  -7.736  30.706  1.00  0.00    -0.163 N 
ATOM     24  H8  UNL     1      -2.397  -6.963  30.122  1.00  0.00     0.187 HD
BRANCH  21  25
HETATM   25  N7  UNL     1      -3.748  -8.817  28.965  1.00  0.00    -0.420 NA
BRANCH  25  26
HETATM   26  C13 UNL     1      -4.021  -8.465  27.718  1.00  0.00     0.192 C 
BRANCH  26  27
HETATM   27  C14 UNL     1      -3.782  -6.960  27.417  1.00  0.00     0.203 C 
BRANCH  27  28
HETATM   28  O2  UNL     1      -2.432  -6.688  27.556  1.00  0.00    -0.398 OA
ATOM     29  H2  UNL     1      -2.005  -6.833  26.720  1.00  0.00     0.209 HD
ENDBRANCH  27  28
ENDBRANCH  26  27
BRANCH  26  30
HETATM   30  C15 UNL     1      -3.451  -9.245  26.541  1.00  0.00     0.015 C 
HETATM   31  C16 UNL     1      -4.235  -8.883  25.288  1.00  0.00     0.012 C 
HETATM   32  C17 UNL     1      -3.683 -10.748  26.719  1.00  0.00     0.012 C 
ENDBRANCH  26  30
ENDBRANCH  25  26
ENDBRANCH  21  25
ENDBRANCH  12  14
ENDBRANCH  11  12
TORSDOF 7
ENDMDL
MODEL 3
REMARK VINA RESULT: -7.684983514      2.564      7.556
REMARK  7 active torsions:
REMARK  status: ('A' for Active; 'I' for Inactive)
REMARK    1  A    between atoms: C7_11  and  N3_12 
REMARK    2  A    between atoms: N3_12  and  C8_14 
REMARK    3  A    between atoms: C12_22  and  N7_23 
REMARK    4  A    between atoms: N7_23  and  C13_24 
REMARK    5  A    between atoms: C13_24  and  C14_25 
REMARK    6  A    between atoms: C13_24  and  C15_28 
REMARK    7  A    between atoms: C14_25  and  O2_26 
ROOT
HETATM    1  C1  UNL     1      -0.417  -5.910  30.427  1.00  0.00     0.070 C 
HETATM    2  C2  UNL     1       0.372  -6.373  31.591  1.00  0.00     0.035 A 
HETATM    3  N1  UNL     1       1.723  -6.510  31.426  1.00  0.00    -0.324 N 
ATOM      4  H1  UNL     1       2.139  -6.285  30.522  1.00  0.00     0.169 HD
HETATM    5  C3  UNL     1       2.520  -6.935  32.426  1.00  0.00     0.266 A 
HETATM    6  O1  UNL     1       3.766  -7.061  32.278  1.00  0.00    -0.267 OA
HETATM    7  C4  UNL     1       1.987  -7.246  33.663  1.00  0.00     0.114 A 
HETATM    8  C5  UNL     1       2.838  -7.700  34.726  1.00  0.00     0.105 C 
HETATM    9  N2  UNL     1       3.523  -8.059  35.608  1.00  0.00    -0.191 NA
HETATM   10  C6  UNL     1       0.622  -7.096  33.799  1.00  0.00     0.060 A 
HETATM   11  C7  UNL     1      -0.214  -6.666  32.797  1.00  0.00     0.073 A 
ENDROOT
BRANCH  11  12
HETATM   12  N3  UNL     1      -1.596  -6.510  32.975  1.00  0.00    -0.190 N 
ATOM     13  H3  UNL     1      -1.991  -5.569  32.985  1.00  0.00     0.184 HD
BRANCH  12  14
HETATM   14  C8  UNL     1      -2.396  -7.535  33.128  1.00  0.00     0.686 A 
HETATM   15  N4  UNL     1      -2.522  -8.455  32.163  1.00  0.00    -0.177 N 
HETATM   16  C9  UNL     1      -3.331  -9.529  32.292  1.00  0.00     0.157 A 
ATOM     17  H4  UNL     1      -1.988  -8.341  31.301  1.00  0.00     0.185 HD
HETATM   18  N5  UNL     1      -3.440 -10.490  31.245  1.00  0.00    -0.080 NA
HETATM   19  C10 UNL     1      -4.051  -9.703  33.431  1.00  0.00     0.144 A 
HETATM   20  C11 UNL     1      -4.935 -10.840  33.626  1.00  0.00     0.108 C 
HETATM   21  C12 UNL     1      -3.941  -8.745  34.475  1.00  0.00     0.212 A 
HETATM   22  N6  UNL     1      -5.633 -11.755  33.800  1.00  0.00    -0.191 NA
HETATM   23  N8  UNL     1      -3.095  -7.688  34.255  1.00  0.00    -0.163 N 
ATOM     24  H8  UNL     1      -2.996  -6.984  34.987  1.00  0.00     0.187 HD
BRANCH  21  25
HETATM   25  N7  UNL     1      -4.582  -8.948  35.464  1.00  0.00    -0.420 NA
BRANCH  25  26
HETATM   26  C13 UNL     1      -5.121  -8.784  36.662  1.00  0.00     0.192 C 
BRANCH  26  27
HETATM   27  C14 UNL     1      -4.441  -9.618  37.783  1.00  0.00     0.203 C 
BRANCH  27  28
HETATM   28  O2  UNL     1      -4.083 -10.850  37.263  1.00  0.00    -0.398 OA
ATOM     29  H2  UNL     1      -4.480 -11.531  37.794  1.00  0.00     0.209 HD
ENDBRANCH  27  28
ENDBRANCH  26  27
BRANCH  26  30
HETATM   30  C15 UNL     1      -5.356  -7.392  37.232  1.00  0.00     0.015 C 
HETATM   31  C16 UNL     1      -5.943  -6.509  36.141  1.00  0.00     0.012 C 
HETATM   32  C17 UNL     1      -4.029  -6.721  37.598  1.00  0.00     0.012 C 
ENDBRANCH  26  30
ENDBRANCH  25  26
ENDBRANCH  21  25
ENDBRANCH  12  14
ENDBRANCH  11  12
TORSDOF 7
ENDMDL
MODEL 4
REMARK VINA RESULT: -7.658235040      2.309      3.577
REMARK  7 active torsions:
REMARK  status: ('A' for Active; 'I' for Inactive)
REMARK    1  A    between atoms: C7_11  and  N3_12 
REMARK    2  A    between atoms: N3_12  and  C8_14 
REMARK    3  A    between atoms: C12_22  and  N7_23 
REMARK    4  A    between atoms: N7_23  and  C13_24 
REMARK    5  A    between atoms: C13_24  and  C14_25 
REMARK    6  A    between atoms: C13_24  and  C15_28 
REMARK    7  A    between atoms: C14_25  and  O2_26 
ROOT
HETATM    1  C1  UNL     1      -4.639  -7.650  36.629  1.00  0.00     0.070 C 
HETATM    2  C2  UNL     1      -4.496  -8.579  35.484  1.00  0.00     0.035 A 
HETATM    3  N1  UNL     1      -5.127  -9.790  35.569  1.00  0.00    -0.324 N 
ATOM      4  H1  UNL     1      -5.674 -10.007  36.401  1.00  0.00     0.169 HD
HETATM    5  C3  UNL     1      -5.045 -10.702  34.581  1.00  0.00     0.266 A 
HETATM    6  O1  UNL     1      -5.627 -11.819  34.655  1.00  0.00    -0.267 OA
HETATM    7  C4  UNL     1      -4.311 -10.436  33.440  1.00  0.00     0.114 A 
HETATM    8  C5  UNL     1      -4.225 -11.412  32.390  1.00  0.00     0.105 C 
HETATM    9  N2  UNL     1      -4.156 -12.193  31.518  1.00  0.00    -0.191 NA
HETATM   10  C6  UNL     1      -3.688  -9.207  33.383  1.00  0.00     0.060 A 
HETATM   11  C7  UNL     1      -3.754  -8.258  34.374  1.00  0.00     0.073 A 
ENDROOT
BRANCH  11  12
HETATM   12  N3  UNL     1      -3.120  -7.011  34.277  1.00  0.00    -0.190 N 
ATOM     13  H3  UNL     1      -3.489  -6.225  34.812  1.00  0.00     0.184 HD
BRANCH  12  14
HETATM   14  C8  UNL     1      -2.067  -6.826  33.521  1.00  0.00     0.686 A 
HETATM   15  N4  UNL     1      -2.123  -6.018  32.455  1.00  0.00    -0.177 N 
HETATM   16  C9  UNL     1      -1.054  -5.798  31.660  1.00  0.00     0.157 A 
ATOM     17  H4  UNL     1      -3.004  -5.552  32.235  1.00  0.00     0.185 HD
HETATM   18  N5  UNL     1      -1.148  -4.930  30.533  1.00  0.00    -0.080 NA
HETATM   19  C10 UNL     1       0.131  -6.406  31.932  1.00  0.00     0.144 A 
HETATM   20  C11 UNL     1       1.316  -6.204  31.114  1.00  0.00     0.108 C 
HETATM   21  C12 UNL     1       0.226  -7.270  33.057  1.00  0.00     0.212 A 
HETATM   22  N6  UNL     1       2.274  -6.037  30.475  1.00  0.00    -0.191 NA
HETATM   23  N8  UNL     1      -0.912  -7.433  33.806  1.00  0.00    -0.163 N 
ATOM     24  H8  UNL     1      -0.874  -8.047  34.620  1.00  0.00     0.187 HD
BRANCH  21  25
HETATM   25  N7  UNL     1       1.291  -7.771  33.265  1.00  0.00    -0.420 NA
BRANCH  25  26
HETATM   26  C13 UNL     1       2.315  -8.317  33.904  1.00  0.00     0.192 C 
BRANCH  26  27
HETATM   27  C14 UNL     1       3.557  -8.573  33.008  1.00  0.00     0.203 C 
BRANCH  27  28
HETATM   28  O2  UNL     1       3.127  -9.001  31.763  1.00  0.00    -0.398 OA
ATOM     29  H2  UNL     1       3.176  -9.949  31.734  1.00  0.00     0.209 HD
ENDBRANCH  27  28
ENDBRANCH  26  27
BRANCH  26  30
HETATM   30  C15 UNL     1       2.829  -7.727  35.210  1.00  0.00     0.015 C 
HETATM   31  C16 UNL     1       3.351  -6.323  34.941  1.00  0.00     0.012 C 
HETATM   32  C17 UNL     1       4.051  -8.501  35.714  1.00  0.00     0.012 C 
ENDBRANCH  26  30
ENDBRANCH  25  26
ENDBRANCH  21  25
ENDBRANCH  12  14
ENDBRANCH  11  12
TORSDOF 7
ENDMDL
MODEL 5
REMARK VINA RESULT: -7.638034617      2.637      7.523
REMARK  7 active torsions:
REMARK  status: ('A' for Active; 'I' for Inactive)
REMARK    1  A    between atoms: C7_11  and  N3_12 
REMARK    2  A    between atoms: N3_12  and  C8_14 
REMARK    3  A    between atoms: C12_22  and  N7_23 
REMARK    4  A    between atoms: N7_23  and  C13_24 
REMARK    5  A    between atoms: C13_24  and  C14_25 
REMARK    6  A    between atoms: C13_24  and  C15_28 
REMARK    7  A    between atoms: C14_25  and  O2_26 
ROOT
HETATM    1  C1  UNL     1      -1.856  -6.608  29.426  1.00  0.00     0.070 C 
HETATM    2  C2  UNL     1      -0.783  -6.666  30.445  1.00  0.00     0.035 A 
HETATM    3  N1  UNL     1       0.511  -6.664  30.002  1.00  0.00    -0.324 N 
ATOM      4  H1  UNL     1       0.693  -6.614  28.999  1.00  0.00     0.169 HD
HETATM    5  C3  UNL     1       1.552  -6.724  30.855  1.00  0.00     0.266 A 
HETATM    6  O1  UNL     1       2.747  -6.720  30.449  1.00  0.00    -0.267 OA
HETATM    7  C4  UNL     1       1.338  -6.791  32.219  1.00  0.00     0.114 A 
HETATM    8  C5  UNL     1       2.450  -6.857  33.125  1.00  0.00     0.105 C 
HETATM    9  N2  UNL     1       3.349  -6.898  33.877  1.00  0.00    -0.191 NA
HETATM   10  C6  UNL     1       0.023  -6.790  32.635  1.00  0.00     0.060 A 
HETATM   11  C7  UNL     1      -1.057  -6.729  31.788  1.00  0.00     0.073 A 
ENDROOT
BRANCH  11  12
HETATM   12  N3  UNL     1      -2.382  -6.715  32.247  1.00  0.00    -0.190 N 
ATOM     13  H3  UNL     1      -2.897  -5.835  32.244  1.00  0.00     0.184 HD
BRANCH  12  14
HETATM   14  C8  UNL     1      -2.979  -7.799  32.678  1.00  0.00     0.686 A 
HETATM   15  N4  UNL     1      -3.048  -8.894  31.911  1.00  0.00    -0.177 N 
HETATM   16  C9  UNL     1      -3.648 -10.029  32.328  1.00  0.00     0.157 A 
ATOM     17  H4  UNL     1      -2.634  -8.869  30.979  1.00  0.00     0.185 HD
HETATM   18  N5  UNL     1      -3.703 -11.178  31.485  1.00  0.00    -0.080 NA
HETATM   19  C10 UNL     1      -4.207 -10.086  33.565  1.00  0.00     0.144 A 
HETATM   20  C11 UNL     1      -4.863 -11.282  34.069  1.00  0.00     0.108 C 
HETATM   21  C12 UNL     1      -4.151  -8.942  34.406  1.00  0.00     0.212 A 
HETATM   22  N6  UNL     1      -5.376 -12.239  34.487  1.00  0.00    -0.191 NA
HETATM   23  N8  UNL     1      -3.522  -7.834  33.897  1.00  0.00    -0.163 N 
ATOM     24  H8  UNL     1      -3.466  -6.997  34.478  1.00  0.00     0.187 HD
BRANCH  21  25
HETATM   25  N7  UNL     1      -4.643  -9.044  35.491  1.00  0.00    -0.420 NA
BRANCH  25  26
HETATM   26  C13 UNL     1      -5.380  -8.787  36.561  1.00  0.00     0.192 C 
BRANCH  26  27
HETATM   27  C14 UNL     1      -5.096  -9.727  37.766  1.00  0.00     0.203 C 
BRANCH  27  28
HETATM   28  O2  UNL     1      -3.919 -10.414  37.525  1.00  0.00    -0.398 OA
ATOM     29  H2  UNL     1      -3.855 -10.592  36.594  1.00  0.00     0.209 HD
ENDBRANCH  27  28
ENDBRANCH  26  27
BRANCH  26  30
HETATM   30  C15 UNL     1      -5.485  -7.375  37.120  1.00  0.00     0.015 C 
HETATM   31  C16 UNL     1      -6.016  -6.456  36.031  1.00  0.00     0.012 C 
HETATM   32  C17 UNL     1      -4.099  -6.816  37.453  1.00  0.00     0.012 C 
ENDBRANCH  26  30
ENDBRANCH  25  26
ENDBRANCH  21  25
ENDBRANCH  12  14
ENDBRANCH  11  12
TORSDOF 7
ENDMDL
