MODEL 1
REMARK VINA RESULT: -6.399976110      0.000      0.000
REMARK  4 active torsions:
REMARK  status: ('A' for Active; 'I' for Inactive)
REMARK    1  A    between atoms: O1_2  and  C2_3 
REMARK    2  A    between atoms: C6_7  and  N1_8 
REMARK    3  A    between atoms: C8_15  and  N4_16 
REMARK    4  A    between atoms: C9_19  and  N5_20 
ROOT
HETATM    1  C2  UNL     1      -0.735  -4.378  31.172  1.00  0.00     0.103 A 
HETATM    2  C3  UNL     1      -0.092  -3.416  30.445  1.00  0.00     0.039 A 
HETATM    3  C4  UNL     1       1.282  -3.375  30.506  1.00  0.00     0.005 A 
HETATM    4  C5  UNL     1       2.026  -4.256  31.264  1.00  0.00     0.035 A 
HETATM    5  C6  UNL     1       1.380  -5.231  32.002  1.00  0.00     0.110 A 
HETATM    6  C9  UNL     1      -0.003  -5.272  31.938  1.00  0.00     0.165 A 
ENDROOT
BRANCH   5   7
HETATM    7  N1  UNL     1       2.042  -6.188  32.820  1.00  0.00    -0.080 N 
HETATM    8  N2  UNL     1       2.230  -6.086  34.147  1.00  0.00    -0.229 N 
HETATM    9  C7  UNL     1       2.889  -7.182  34.557  1.00  0.00     0.354 A 
ATOM     10  H2  UNL     1       1.925  -5.313  34.739  1.00  0.00     0.193 HD
HETATM   11  O2  UNL     1       3.242  -7.433  35.759  1.00  0.00    -0.245 OA
HETATM   12  N3  UNL     1       3.124  -7.985  33.497  1.00  0.00    -0.139 N 
HETATM   13  C8  UNL     1       2.589  -7.349  32.427  1.00  0.00     0.702 A 
ATOM     14  H3  UNL     1       3.605  -8.885  33.501  1.00  0.00     0.189 HD
BRANCH  13  15
HETATM   15  N4  UNL     1       2.610  -7.801  31.226  1.00  0.00    -0.233 N 
ATOM     16  H42 UNL     1       1.787  -7.904  30.633  1.00  0.00     0.174 HD
ATOM     17  H41 UNL     1       3.440  -8.111  30.720  1.00  0.00     0.174 HD
ENDBRANCH  13  15
ENDBRANCH   5   7
BRANCH   6  18
HETATM   18  N5  UNL     1      -0.667  -6.267  32.687  1.00  0.00    -0.110 N 
HETATM   19  O3  UNL     1      -0.797  -6.129  33.904  1.00  0.00    -0.532 OA
HETATM   20  O4  UNL     1      -1.151  -7.365  32.041  1.00  0.00    -0.532 OA
ENDBRANCH   6  18
BRANCH   1  21
HETATM   21  O1  UNL     1      -2.116  -4.515  31.186  1.00  0.00    -0.353 OA
HETATM   22  C1  UNL     1      -2.856  -5.029  30.103  1.00  0.00     0.210 C 
ENDBRANCH   1  21
TORSDOF 4
ENDMDL
MODEL 2
REMARK VINA RESULT: -6.335901119      1.768      5.078
REMARK  4 active torsions:
REMARK  status: ('A' for Active; 'I' for Inactive)
REMARK    1  A    between atoms: O1_2  and  C2_3 
REMARK    2  A    between atoms: C6_7  and  N1_8 
REMARK    3  A    between atoms: C8_15  and  N4_16 
REMARK    4  A    between atoms: C9_19  and  N5_20 
ROOT
HETATM    1  C2  UNL     1       2.656  -7.366  33.483  1.00  0.00     0.103 A 
HETATM    2  C3  UNL     1       3.450  -8.089  32.638  1.00  0.00     0.039 A 
HETATM    3  C4  UNL     1       3.267  -7.923  31.285  1.00  0.00     0.005 A 
HETATM    4  C5  UNL     1       2.324  -7.066  30.754  1.00  0.00     0.035 A 
HETATM    5  C6  UNL     1       1.518  -6.333  31.605  1.00  0.00     0.110 A 
HETATM    6  C9  UNL     1       1.704  -6.500  32.968  1.00  0.00     0.165 A 
ENDROOT
BRANCH   5   7
HETATM    7  N1  UNL     1       0.512  -5.425  31.172  1.00  0.00    -0.080 N 
HETATM    8  N2  UNL     1      -0.784  -5.727  30.977  1.00  0.00    -0.229 N 
HETATM    9  C7  UNL     1      -1.412  -4.610  30.574  1.00  0.00     0.354 A 
ATOM     10  H2  UNL     1      -1.214  -6.642  31.113  1.00  0.00     0.193 HD
HETATM   11  O2  UNL     1      -2.655  -4.516  30.294  1.00  0.00    -0.245 OA
HETATM   12  N3  UNL     1      -0.524  -3.595  30.510  1.00  0.00    -0.139 N 
HETATM   13  C8  UNL     1       0.666  -4.123  30.886  1.00  0.00     0.702 A 
ATOM     14  H3  UNL     1      -0.710  -2.631  30.235  1.00  0.00     0.189 HD
BRANCH  13  15
HETATM   15  N4  UNL     1       1.765  -3.463  30.954  1.00  0.00    -0.233 N 
ATOM     16  H42 UNL     1       2.388  -3.460  31.761  1.00  0.00     0.174 HD
ATOM     17  H41 UNL     1       2.150  -2.869  30.220  1.00  0.00     0.174 HD
ENDBRANCH  13  15
ENDBRANCH   5   7
BRANCH   6  18
HETATM   18  N5  UNL     1       0.885  -5.751  33.840  1.00  0.00    -0.110 N 
HETATM   19  O3  UNL     1       1.370  -4.820  34.484  1.00  0.00    -0.532 OA
HETATM   20  O4  UNL     1      -0.433  -6.081  33.951  1.00  0.00    -0.532 OA
ENDBRANCH   6  18
BRANCH   1  21
HETATM   21  O1  UNL     1       2.751  -7.451  34.865  1.00  0.00    -0.353 OA
HETATM   22  C1  UNL     1       3.897  -7.064  35.589  1.00  0.00     0.210 C 
ENDBRANCH   1  21
TORSDOF 4
ENDMDL
MODEL 3
REMARK VINA RESULT: -5.866973507      2.090      2.686
REMARK  4 active torsions:
REMARK  status: ('A' for Active; 'I' for Inactive)
REMARK    1  A    between atoms: O1_2  and  C2_3 
REMARK    2  A    between atoms: C6_7  and  N1_8 
REMARK    3  A    between atoms: C8_15  and  N4_16 
REMARK    4  A    between atoms: C9_19  and  N5_20 
ROOT
HETATM    1  C2  UNL     1      -1.368  -5.575  31.276  1.00  0.00     0.103 A 
HETATM    2  C3  UNL     1      -2.495  -5.744  32.030  1.00  0.00     0.039 A 
HETATM    3  C4  UNL     1      -2.337  -6.102  33.349  1.00  0.00     0.005 A 
HETATM    4  C5  UNL     1      -1.101  -6.297  33.932  1.00  0.00     0.035 A 
HETATM    5  C6  UNL     1       0.042  -6.127  33.172  1.00  0.00     0.110 A 
HETATM    6  C9  UNL     1      -0.118  -5.765  31.845  1.00  0.00     0.165 A 
ENDROOT
BRANCH   5   7
HETATM    7  N1  UNL     1       1.365  -6.304  33.664  1.00  0.00    -0.080 N 
HETATM    8  N2  UNL     1       2.055  -5.410  34.393  1.00  0.00    -0.229 N 
HETATM    9  C7  UNL     1       3.258  -5.940  34.667  1.00  0.00     0.354 A 
ATOM     10  H2  UNL     1       1.723  -4.491  34.687  1.00  0.00     0.193 HD
HETATM   11  O2  UNL     1       4.184  -5.376  35.342  1.00  0.00    -0.245 OA
HETATM   12  N3  UNL     1       3.341  -7.171  34.116  1.00  0.00    -0.139 N 
HETATM   13  C8  UNL     1       2.154  -7.378  33.498  1.00  0.00     0.702 A 
ATOM     14  H3  UNL     1       4.133  -7.812  34.158  1.00  0.00     0.189 HD
BRANCH  13  15
HETATM   15  N4  UNL     1       1.844  -8.445  32.855  1.00  0.00    -0.233 N 
ATOM     16  H42 UNL     1       0.890  -8.766  32.692  1.00  0.00     0.174 HD
ATOM     17  H41 UNL     1       2.503  -9.098  32.431  1.00  0.00     0.174 HD
ENDBRANCH  13  15
ENDBRANCH   5   7
BRANCH   6  18
HETATM   18  N5  UNL     1       1.046  -5.590  31.066  1.00  0.00    -0.110 N 
HETATM   19  O3  UNL     1       1.519  -6.546  30.451  1.00  0.00    -0.532 OA
HETATM   20  O4  UNL     1       1.624  -4.356  31.015  1.00  0.00    -0.532 OA
ENDBRANCH   6  18
BRANCH   1  21
HETATM   21  O1  UNL     1      -1.404  -5.214  29.936  1.00  0.00    -0.353 OA
HETATM   22  C1  UNL     1      -2.392  -5.666  29.038  1.00  0.00     0.210 C 
ENDBRANCH   1  21
TORSDOF 4
ENDMDL
MODEL 4
REMARK VINA RESULT: -5.468373037      3.463      5.396
REMARK  4 active torsions:
REMARK  status: ('A' for Active; 'I' for Inactive)
REMARK    1  A    between atoms: O1_2  and  C2_3 
REMARK    2  A    between atoms: C6_7  and  N1_8 
REMARK    3  A    between atoms: C8_15  and  N4_16 
REMARK    4  A    between atoms: C9_19  and  N5_20 
ROOT
HETATM    1  C2  UNL     1      -4.444  -6.677  28.647  1.00  0.00     0.103 A 
HETATM    2  C3  UNL     1      -4.621  -7.968  28.236  1.00  0.00     0.039 A 
HETATM    3  C4  UNL     1      -4.139  -8.972  29.043  1.00  0.00     0.005 A 
HETATM    4  C5  UNL     1      -3.489  -8.729  30.237  1.00  0.00     0.035 A 
HETATM    5  C6  UNL     1      -3.307  -7.424  30.657  1.00  0.00     0.110 A 
HETATM    6  C9  UNL     1      -3.794  -6.414  29.843  1.00  0.00     0.165 A 
ENDROOT
BRANCH   5   7
HETATM    7  N1  UNL     1      -2.650  -7.055  31.863  1.00  0.00    -0.080 N 
HETATM    8  N2  UNL     1      -1.364  -6.677  31.971  1.00  0.00    -0.229 N 
HETATM    9  C7  UNL     1      -1.119  -6.408  33.264  1.00  0.00     0.354 A 
ATOM     10  H2  UNL     1      -0.693  -6.606  31.205  1.00  0.00     0.193 HD
HETATM   11  O2  UNL     1      -0.001  -6.018  33.744  1.00  0.00    -0.245 OA
HETATM   12  N3  UNL     1      -2.243  -6.612  33.984  1.00  0.00    -0.139 N 
HETATM   13  C8  UNL     1      -3.182  -7.013  33.095  1.00  0.00     0.702 A 
ATOM     14  H3  UNL     1      -2.360  -6.489  34.990  1.00  0.00     0.189 HD
BRANCH  13  15
HETATM   15  N4  UNL     1      -4.395  -7.305  33.400  1.00  0.00    -0.233 N 
ATOM     16  H42 UNL     1      -5.180  -7.264  32.750  1.00  0.00     0.174 HD
ATOM     17  H41 UNL     1      -4.722  -7.613  34.315  1.00  0.00     0.174 HD
ENDBRANCH  13  15
ENDBRANCH   5   7
BRANCH   6  18
HETATM   18  N5  UNL     1      -3.612  -5.081  30.269  1.00  0.00    -0.110 N 
HETATM   19  O3  UNL     1      -4.542  -4.479  30.808  1.00  0.00    -0.532 OA
HETATM   20  O4  UNL     1      -2.401  -4.486  30.072  1.00  0.00    -0.532 OA
ENDBRANCH   6  18
BRANCH   1  21
HETATM   21  O1  UNL     1      -4.888  -5.584  27.916  1.00  0.00    -0.353 OA
HETATM   22  C1  UNL     1      -5.247  -5.656  26.555  1.00  0.00     0.210 C 
ENDBRANCH   1  21
TORSDOF 4
ENDMDL
MODEL 5
REMARK VINA RESULT: -5.288578798      5.187      7.494
REMARK  4 active torsions:
REMARK  status: ('A' for Active; 'I' for Inactive)
REMARK    1  A    between atoms: O1_2  and  C2_3 
REMARK    2  A    between atoms: C6_7  and  N1_8 
REMARK    3  A    between atoms: C8_15  and  N4_16 
REMARK    4  A    between atoms: C9_19  and  N5_20 
ROOT
HETATM    1  C2  UNL     1      -3.781  -6.869  32.131  1.00  0.00     0.103 A 
HETATM    2  C3  UNL     1      -3.727  -8.200  32.437  1.00  0.00     0.039 A 
HETATM    3  C4  UNL     1      -3.896  -9.102  31.413  1.00  0.00     0.005 A 
HETATM    4  C5  UNL     1      -4.116  -8.720  30.105  1.00  0.00     0.035 A 
HETATM    5  C6  UNL     1      -4.172  -7.375  29.791  1.00  0.00     0.110 A 
HETATM    6  C9  UNL     1      -4.001  -6.467  30.823  1.00  0.00     0.165 A 
ENDROOT
BRANCH   5   7
HETATM    7  N1  UNL     1      -4.397  -6.867  28.481  1.00  0.00    -0.080 N 
HETATM    8  N2  UNL     1      -5.601  -6.640  27.926  1.00  0.00    -0.229 N 
HETATM    9  C7  UNL     1      -5.400  -6.160  26.687  1.00  0.00     0.354 A 
ATOM     10  H2  UNL     1      -6.506  -6.802  28.368  1.00  0.00     0.193 HD
HETATM   11  O2  UNL     1      -6.316  -5.830  25.860  1.00  0.00    -0.245 OA
HETATM   12  N3  UNL     1      -4.074  -6.079  26.448  1.00  0.00    -0.139 N 
HETATM   13  C8  UNL     1      -3.468  -6.522  27.575  1.00  0.00     0.702 A 
ATOM     14  H3  UNL     1      -3.621  -5.752  25.595  1.00  0.00     0.189 HD
BRANCH  13  15
HETATM   15  N4  UNL     1      -2.197  -6.596  27.738  1.00  0.00    -0.233 N 
ATOM     16  H42 UNL     1      -1.723  -7.328  28.267  1.00  0.00     0.174 HD
ATOM     17  H41 UNL     1      -1.509  -5.943  27.364  1.00  0.00     0.174 HD
ENDBRANCH  13  15
ENDBRANCH   5   7
BRANCH   6  18
HETATM   18  N5  UNL     1      -4.055  -5.093  30.506  1.00  0.00    -0.110 N 
HETATM   19  O3  UNL     1      -5.140  -4.511  30.498  1.00  0.00    -0.532 OA
HETATM   20  O4  UNL     1      -2.896  -4.439  30.213  1.00  0.00    -0.532 OA
ENDBRANCH   6  18
BRANCH   1  21
HETATM   21  O1  UNL     1      -3.624  -5.870  33.082  1.00  0.00    -0.353 OA
HETATM   22  C1  UNL     1      -2.495  -5.765  33.918  1.00  0.00     0.210 C 
ENDBRANCH   1  21
TORSDOF 4
ENDMDL
