MODEL 1
REMARK VINA RESULT: -7.641240453      0.000      0.000
REMARK  3 active torsions:
REMARK  status: ('A' for Active; 'I' for Inactive)
REMARK    1  A    between atoms: C5_10  and  N3_11 
REMARK    2  A    between atoms: N3_11  and  S1_13 
REMARK    3  A    between atoms: S1_13  and  C6_16 
ROOT
HETATM    1  N3  UNL     1       0.509  -6.745  32.434  1.00  0.00    -0.274 N 
ATOM      2  H3  UNL     1       0.570  -7.734  32.678  1.00  0.00     0.179 HD
ENDROOT
BRANCH   1   3
HETATM    3  C5  UNL     1      -0.728  -6.289  31.963  1.00  0.00     0.086 A 
HETATM    4  C1  UNL     1      -1.893  -6.231  32.699  1.00  0.00     0.126 A 
HETATM    5  N1  UNL     1      -1.871  -6.633  33.912  1.00  0.00    -0.384 N 
HETATM    6  N2  UNL     1      -3.050  -5.763  32.166  1.00  0.00    -0.351 N 
ATOM      7  H12 UNL     1      -2.732  -6.591  34.456  1.00  0.00     0.157 HD
ATOM      8  H11 UNL     1      -1.001  -6.986  34.312  1.00  0.00     0.157 HD
HETATM    9  C2  UNL     1      -3.112  -5.336  30.903  1.00  0.00     0.090 A 
ATOM     10  H2  UNL     1      -3.891  -5.736  32.743  1.00  0.00     0.166 HD
HETATM   11  C3  UNL     1      -2.010  -5.358  30.107  1.00  0.00     0.019 A 
HETATM   12  C4  UNL     1      -0.813  -5.838  30.648  1.00  0.00     0.035 A 
ENDBRANCH   1   3
BRANCH   1  13
HETATM   13  S1  UNL     1       1.919  -5.820  32.643  1.00  0.00     0.296 S 
HETATM   14  O1  UNL     1       2.833  -5.802  31.454  1.00  0.00    -0.197 OA
HETATM   15  O2  UNL     1       1.610  -4.370  32.945  1.00  0.00    -0.197 OA
BRANCH  13  16
HETATM   16  C6  UNL     1       2.832  -6.415  34.012  1.00  0.00     0.239 A 
HETATM   17  N4  UNL     1       3.349  -5.653  35.001  1.00  0.00    -0.325 N 
HETATM   18  C7  UNL     1       3.985  -6.410  35.884  1.00  0.00     0.199 A 
ATOM     19  H4  UNL     1       3.262  -4.638  35.061  1.00  0.00     0.169 HD
HETATM   20  N5  UNL     1       3.877  -7.690  35.455  1.00  0.00    -0.294 N 
HETATM   21  N6  UNL     1       3.182  -7.673  34.330  1.00  0.00    -0.274 N 
ATOM     22  H5  UNL     1       4.261  -8.515  35.915  1.00  0.00     0.187 HD
ATOM     23  H6  UNL     1       2.946  -8.500  33.780  1.00  0.00     0.189 HD
ENDBRANCH  13  16
ENDBRANCH   1  13
TORSDOF 3
ENDMDL
MODEL 2
REMARK VINA RESULT: -7.511536074      1.630      2.355
REMARK  3 active torsions:
REMARK  status: ('A' for Active; 'I' for Inactive)
REMARK    1  A    between atoms: C5_10  and  N3_11 
REMARK    2  A    between atoms: N3_11  and  S1_13 
REMARK    3  A    between atoms: S1_13  and  C6_16 
ROOT
HETATM    1  N3  UNL     1       1.313  -5.668  33.134  1.00  0.00    -0.274 N 
ATOM      2  H3  UNL     1       1.290  -4.942  33.849  1.00  0.00     0.179 HD
ENDROOT
BRANCH   1   3
HETATM    3  C5  UNL     1       0.189  -5.771  32.306  1.00  0.00     0.086 A 
HETATM    4  C1  UNL     1       0.185  -5.596  30.938  1.00  0.00     0.126 A 
HETATM    5  N1  UNL     1       1.284  -5.304  30.354  1.00  0.00    -0.384 N 
HETATM    6  N2  UNL     1      -0.952  -5.726  30.206  1.00  0.00    -0.351 N 
ATOM      7  H12 UNL     1       1.280  -5.175  29.343  1.00  0.00     0.157 HD
ATOM      8  H11 UNL     1       2.137  -5.207  30.904  1.00  0.00     0.157 HD
HETATM    9  C2  UNL     1      -2.118  -6.028  30.780  1.00  0.00     0.090 A 
ATOM     10  H2  UNL     1      -0.914  -5.589  29.197  1.00  0.00     0.166 HD
HETATM   11  C3  UNL     1      -2.204  -6.218  32.124  1.00  0.00     0.019 A 
HETATM   12  C4  UNL     1      -1.038  -6.087  32.885  1.00  0.00     0.035 A 
ENDBRANCH   1   3
BRANCH   1  13
HETATM   13  S1  UNL     1       2.712  -6.631  33.069  1.00  0.00     0.296 S 
HETATM   14  O1  UNL     1       2.473  -8.049  32.643  1.00  0.00    -0.197 OA
HETATM   15  O2  UNL     1       3.738  -6.080  32.105  1.00  0.00    -0.197 OA
BRANCH  13  16
HETATM   16  C6  UNL     1       3.491  -6.666  34.636  1.00  0.00     0.239 A 
HETATM   17  N4  UNL     1       3.900  -7.779  35.285  1.00  0.00    -0.325 N 
HETATM   18  C7  UNL     1       4.448  -7.461  36.448  1.00  0.00     0.199 A 
ATOM     19  H4  UNL     1       3.800  -8.730  34.928  1.00  0.00     0.169 HD
HETATM   20  N5  UNL     1       4.392  -6.112  36.554  1.00  0.00    -0.294 N 
HETATM   21  N6  UNL     1       3.814  -5.652  35.457  1.00  0.00    -0.274 N 
ATOM     22  H5  UNL     1       4.734  -5.553  37.336  1.00  0.00     0.187 HD
ATOM     23  H6  UNL     1       3.638  -4.667  35.263  1.00  0.00     0.189 HD
ENDBRANCH  13  16
ENDBRANCH   1  13
TORSDOF 3
ENDMDL
MODEL 3
REMARK VINA RESULT: -7.497218915      1.038      1.684
REMARK  3 active torsions:
REMARK  status: ('A' for Active; 'I' for Inactive)
REMARK    1  A    between atoms: C5_10  and  N3_11 
REMARK    2  A    between atoms: N3_11  and  S1_13 
REMARK    3  A    between atoms: S1_13  and  C6_16 
ROOT
HETATM    1  N3  UNL     1       0.631  -6.740  32.871  1.00  0.00    -0.274 N 
ATOM      2  H3  UNL     1       0.588  -7.672  33.284  1.00  0.00     0.179 HD
ENDROOT
BRANCH   1   3
HETATM    3  C5  UNL     1      -0.503  -6.309  32.174  1.00  0.00     0.086 A 
HETATM    4  C1  UNL     1      -0.526  -5.899  30.858  1.00  0.00     0.126 A 
HETATM    5  N1  UNL     1       0.570  -5.892  30.200  1.00  0.00    -0.384 N 
HETATM    6  N2  UNL     1      -1.676  -5.504  30.254  1.00  0.00    -0.351 N 
ATOM      7  H12 UNL     1       0.553  -5.589  29.227  1.00  0.00     0.157 HD
ATOM      8  H11 UNL     1       1.434  -6.189  30.654  1.00  0.00     0.157 HD
HETATM    9  C2  UNL     1      -2.838  -5.496  30.909  1.00  0.00     0.090 A 
ATOM     10  H2  UNL     1      -1.651  -5.208  29.278  1.00  0.00     0.166 HD
HETATM   11  C3  UNL     1      -2.907  -5.884  32.210  1.00  0.00     0.019 A 
HETATM   12  C4  UNL     1      -1.727  -6.293  32.840  1.00  0.00     0.035 A 
ENDBRANCH   1   3
BRANCH   1  13
HETATM   13  S1  UNL     1       2.073  -5.870  33.100  1.00  0.00     0.296 S 
HETATM   14  O1  UNL     1       3.003  -5.887  31.924  1.00  0.00    -0.197 OA
HETATM   15  O2  UNL     1       1.815  -4.410  33.400  1.00  0.00    -0.197 OA
BRANCH  13  16
HETATM   16  C6  UNL     1       2.943  -6.501  34.481  1.00  0.00     0.239 A 
HETATM   17  N4  UNL     1       3.771  -5.790  35.279  1.00  0.00    -0.325 N 
HETATM   18  C7  UNL     1       4.273  -6.563  36.231  1.00  0.00     0.199 A 
ATOM     19  H4  UNL     1       3.980  -4.798  35.164  1.00  0.00     0.169 HD
HETATM   20  N5  UNL     1       3.758  -7.802  36.045  1.00  0.00    -0.294 N 
HETATM   21  N6  UNL     1       2.963  -7.745  34.989  1.00  0.00    -0.274 N 
ATOM     22  H5  UNL     1       3.948  -8.627  36.613  1.00  0.00     0.187 HD
ATOM     23  H6  UNL     1       2.438  -8.536  34.613  1.00  0.00     0.189 HD
ENDBRANCH  13  16
ENDBRANCH   1  13
TORSDOF 3
ENDMDL
MODEL 4
REMARK VINA RESULT: -7.328422095      1.538      5.766
REMARK  3 active torsions:
REMARK  status: ('A' for Active; 'I' for Inactive)
REMARK    1  A    between atoms: C5_10  and  N3_11 
REMARK    2  A    between atoms: N3_11  and  S1_13 
REMARK    3  A    between atoms: S1_13  and  C6_16 
ROOT
HETATM    1  N3  UNL     1       1.847  -5.445  33.506  1.00  0.00    -0.274 N 
ATOM      2  H3  UNL     1       1.242  -4.694  33.838  1.00  0.00     0.179 HD
ENDROOT
BRANCH   1   3
HETATM    3  C5  UNL     1       2.628  -6.096  34.469  1.00  0.00     0.086 A 
HETATM    4  C1  UNL     1       2.526  -7.427  34.815  1.00  0.00     0.126 A 
HETATM    5  N1  UNL     1       1.645  -8.145  34.231  1.00  0.00    -0.384 N 
HETATM    6  N2  UNL     1       3.333  -7.982  35.755  1.00  0.00    -0.351 N 
ATOM      7  H12 UNL     1       1.570  -9.129  34.487  1.00  0.00     0.157 HD
ATOM      8  H11 UNL     1       1.039  -7.727  33.525  1.00  0.00     0.157 HD
HETATM    9  C2  UNL     1       4.262  -7.264  36.387  1.00  0.00     0.090 A 
ATOM     10  H2  UNL     1       3.226  -8.971  35.983  1.00  0.00     0.166 HD
HETATM   11  C3  UNL     1       4.430  -5.943  36.107  1.00  0.00     0.019 A 
HETATM   12  C4  UNL     1       3.604  -5.363  35.140  1.00  0.00     0.035 A 
ENDBRANCH   1   3
BRANCH   1  13
HETATM   13  S1  UNL     1       1.805  -5.778  31.840  1.00  0.00     0.296 S 
HETATM   14  O1  UNL     1       2.392  -4.703  30.975  1.00  0.00    -0.197 OA
HETATM   15  O2  UNL     1       2.560  -7.042  31.493  1.00  0.00    -0.197 OA
BRANCH  13  16
HETATM   16  C6  UNL     1       0.155  -6.043  31.321  1.00  0.00     0.239 A 
HETATM   17  N4  UNL     1      -0.834  -6.560  32.082  1.00  0.00    -0.325 N 
HETATM   18  C7  UNL     1      -1.962  -6.631  31.390  1.00  0.00     0.199 A 
ATOM     19  H4  UNL     1      -0.727  -6.854  33.053  1.00  0.00     0.169 HD
HETATM   20  N5  UNL     1      -1.696  -6.149  30.153  1.00  0.00    -0.294 N 
HETATM   21  N6  UNL     1      -0.420  -5.801  30.130  1.00  0.00    -0.274 N 
ATOM     22  H5  UNL     1      -2.357  -6.068  29.381  1.00  0.00     0.187 HD
ATOM     23  H6  UNL     1       0.060  -5.405  29.321  1.00  0.00     0.189 HD
ENDBRANCH  13  16
ENDBRANCH   1  13
TORSDOF 3
ENDMDL
MODEL 5
REMARK VINA RESULT: -7.169333407      1.541      5.492
REMARK  3 active torsions:
REMARK  status: ('A' for Active; 'I' for Inactive)
REMARK    1  A    between atoms: C5_10  and  N3_11 
REMARK    2  A    between atoms: N3_11  and  S1_13 
REMARK    3  A    between atoms: S1_13  and  C6_16 
ROOT
HETATM    1  N3  UNL     1       2.740  -5.755  32.097  1.00  0.00    -0.274 N 
ATOM      2  H3  UNL     1       3.402  -6.005  31.363  1.00  0.00     0.179 HD
ENDROOT
BRANCH   1   3
HETATM    3  C5  UNL     1       2.969  -6.304  33.364  1.00  0.00     0.086 A 
HETATM    4  C1  UNL     1       2.652  -7.590  33.748  1.00  0.00     0.126 A 
HETATM    5  N1  UNL     1       2.091  -8.362  32.898  1.00  0.00    -0.384 N 
HETATM    6  N2  UNL     1       2.919  -8.048  34.998  1.00  0.00    -0.351 N 
ATOM      7  H12 UNL     1       1.856  -9.313  33.181  1.00  0.00     0.157 HD
ATOM      8  H11 UNL     1       1.889  -8.018  31.958  1.00  0.00     0.157 HD
HETATM    9  C2  UNL     1       3.503  -7.271  35.913  1.00  0.00     0.090 A 
ATOM     10  H2  UNL     1       2.669  -9.005  35.243  1.00  0.00     0.166 HD
HETATM   11  C3  UNL     1       3.849  -5.989  35.619  1.00  0.00     0.019 A 
HETATM   12  C4  UNL     1       3.577  -5.510  34.334  1.00  0.00     0.035 A 
ENDBRANCH   1   3
BRANCH   1  13
HETATM   13  S1  UNL     1       1.470  -4.714  31.657  1.00  0.00     0.296 S 
HETATM   14  O1  UNL     1       1.238  -3.579  32.610  1.00  0.00    -0.197 OA
HETATM   15  O2  UNL     1       1.701  -4.076  30.306  1.00  0.00    -0.197 OA
BRANCH  13  16
HETATM   16  C6  UNL     1      -0.024  -5.613  31.519  1.00  0.00     0.239 A 
HETATM   17  N4  UNL     1      -0.829  -5.637  30.434  1.00  0.00    -0.325 N 
HETATM   18  C7  UNL     1      -1.882  -6.411  30.655  1.00  0.00     0.199 A 
ATOM     19  H4  UNL     1      -0.651  -5.129  29.567  1.00  0.00     0.169 HD
HETATM   20  N5  UNL     1      -1.755  -6.899  31.912  1.00  0.00    -0.294 N 
HETATM   21  N6  UNL     1      -0.634  -6.409  32.415  1.00  0.00    -0.274 N 
ATOM     22  H5  UNL     1      -2.403  -7.529  32.383  1.00  0.00     0.187 HD
ATOM     23  H6  UNL     1      -0.282  -6.607  33.352  1.00  0.00     0.189 HD
ENDBRANCH  13  16
ENDBRANCH   1  13
TORSDOF 3
ENDMDL
