MODEL 1
REMARK VINA RESULT: -8.966041846      0.000      0.000
REMARK  9 active torsions:
REMARK  status: ('A' for Active; 'I' for Inactive)
REMARK    1  A    between atoms: C3_7  and  N3_8 
REMARK    2  A    between atoms: N3_8  and  C4_10 
REMARK    3  A    between atoms: C10_18  and  O1_19 
REMARK    4  A    between atoms: O1_19  and  C11_20 
REMARK    5  A    between atoms: C11_20  and  C12_21 
REMARK    6  A    between atoms: C12_21  and  O2_22 
REMARK    7  A    between atoms: C12_21  and  C13_24 
REMARK    8  A    between atoms: C13_24  and  N5_25 
REMARK    9  A    between atoms: N5_25  and  C14_28 
ROOT
HETATM    1  C1  UNL     1      29.260  40.361  23.728  1.00  0.00     0.147 C 
HETATM    2  N1  UNL     1      30.494  40.872  23.336  1.00  0.00    -0.379 N 
ATOM      3  H1  UNL     1      31.094  41.057  24.140  1.00  0.00     0.160 HD
HETATM    4  C2  UNL     1      31.062  41.165  22.269  1.00  0.00     0.141 A 
HETATM    5  N2  UNL     1      32.334  41.659  22.366  1.00  0.00    -0.175 N 
ATOM      6  H2  UNL     1      32.751  41.764  23.291  1.00  0.00     0.186 HD
HETATM    7  C3  UNL     1      33.039  42.004  21.304  1.00  0.00     0.682 A 
HETATM    8  N4  UNL     1      32.534  41.887  20.040  1.00  0.00    -0.169 N 
ATOM      9  H4  UNL     1      33.088  42.158  19.227  1.00  0.00     0.186 HD
HETATM   10  C10 UNL     1      31.298  41.409  19.899  1.00  0.00     0.182 A 
HETATM   11  C18 UNL     1      30.535  41.038  21.015  1.00  0.00     0.140 A 
HETATM   12  C19 UNL     1      29.224  40.536  20.807  1.00  0.00     0.107 C 
HETATM   13  N6  UNL     1      28.157  40.133  20.610  1.00  0.00    -0.191 NA
ENDROOT
BRANCH  10  14
HETATM   14  O1  UNL     1      30.734  41.266  18.650  1.00  0.00    -0.332 OA
BRANCH  14  15
HETATM   15  C11 UNL     1      31.209  40.160  17.879  1.00  0.00     0.210 C 
BRANCH  15  16
HETATM   16  C12 UNL     1      31.448  40.569  16.448  1.00  0.00     0.168 C 
BRANCH  16  17
HETATM   17  O2  UNL     1      32.787  40.804  16.191  1.00  0.00    -0.392 OA
ATOM     18  H2  UNL     1      33.144  40.185  15.564  1.00  0.00     0.210 HD
ENDBRANCH  16  17
BRANCH  16  19
HETATM   19  C13 UNL     1      30.643  41.835  16.142  1.00  0.00     0.267 C 
BRANCH  19  20
HETATM   20  N5  UNL     1      29.333  41.444  15.674  1.00  0.00    -0.065 N 
ATOM     21  H52 UNL     1      29.289  41.428  14.656  1.00  0.00     0.278 HD
ATOM     22  H51 UNL     1      29.150  40.457  15.855  1.00  0.00     0.278 HD
BRANCH  20  23
HETATM   23  C14 UNL     1      28.303  42.286  16.237  1.00  0.00     0.115 C 
HETATM   24  C15 UNL     1      27.345  42.789  15.194  1.00  0.00     0.045 C 
HETATM   25  C16 UNL     1      28.934  43.489  16.913  1.00  0.00     0.045 C 
HETATM   26  C17 UNL     1      27.514  41.470  17.238  1.00  0.00     0.045 C 
ENDBRANCH  20  23
ENDBRANCH  19  20
ENDBRANCH  16  19
ENDBRANCH  15  16
ENDBRANCH  14  15
ENDBRANCH  10  14
BRANCH   7  27
HETATM   27  N3  UNL     1      34.218  42.454  21.398  1.00  0.00    -0.221 N 
ATOM     28  H3  UNL     1      34.498  43.126  20.684  1.00  0.00     0.178 HD
BRANCH  27  29
HETATM   29  C4  UNL     1      35.213  42.135  22.390  1.00  0.00     0.099 C 
HETATM   30  C5  UNL     1      36.292  43.132  22.380  1.00  0.00     0.026 C 
HETATM   31  C6  UNL     1      37.668  42.651  22.671  1.00  0.00     0.002 C 
HETATM   32  C7  UNL     1      37.981  41.271  22.214  1.00  0.00     0.000 C 
HETATM   33  C8  UNL     1      36.921  40.333  22.808  1.00  0.00     0.002 C 
HETATM   34  C9  UNL     1      35.643  40.715  22.125  1.00  0.00     0.026 C 
ENDBRANCH  27  29
ENDBRANCH   7  27
TORSDOF 9
ENDMDL
MODEL 2
REMARK VINA RESULT: -8.750616458      0.794      1.114
REMARK  9 active torsions:
REMARK  status: ('A' for Active; 'I' for Inactive)
REMARK    1  A    between atoms: C3_7  and  N3_8 
REMARK    2  A    between atoms: N3_8  and  C4_10 
REMARK    3  A    between atoms: C10_18  and  O1_19 
REMARK    4  A    between atoms: O1_19  and  C11_20 
REMARK    5  A    between atoms: C11_20  and  C12_21 
REMARK    6  A    between atoms: C12_21  and  O2_22 
REMARK    7  A    between atoms: C12_21  and  C13_24 
REMARK    8  A    between atoms: C13_24  and  N5_25 
REMARK    9  A    between atoms: N5_25  and  C14_28 
ROOT
HETATM    1  C1  UNL     1      29.259  40.359  23.602  1.00  0.00     0.147 C 
HETATM    2  N1  UNL     1      30.497  40.877  23.230  1.00  0.00    -0.379 N 
ATOM      3  H1  UNL     1      31.112  40.990  24.036  1.00  0.00     0.160 HD
HETATM    4  C2  UNL     1      31.055  41.239  22.179  1.00  0.00     0.141 A 
HETATM    5  N2  UNL     1      32.337  41.702  22.294  1.00  0.00    -0.175 N 
ATOM      6  H2  UNL     1      32.770  41.730  23.217  1.00  0.00     0.186 HD
HETATM    7  C3  UNL     1      33.033  42.114  21.249  1.00  0.00     0.682 A 
HETATM    8  N4  UNL     1      32.509  42.101  19.988  1.00  0.00    -0.169 N 
ATOM      9  H4  UNL     1      33.056  42.422  19.189  1.00  0.00     0.186 HD
HETATM   10  C10 UNL     1      31.261  41.656  19.831  1.00  0.00     0.182 A 
HETATM   11  C18 UNL     1      30.508  41.216  20.928  1.00  0.00     0.140 A 
HETATM   12  C19 UNL     1      29.185  40.754  20.704  1.00  0.00     0.107 C 
HETATM   13  N6  UNL     1      28.108  40.386  20.493  1.00  0.00    -0.191 NA
ENDROOT
BRANCH  10  14
HETATM   14  O1  UNL     1      30.677  41.617  18.584  1.00  0.00    -0.332 OA
BRANCH  14  15
HETATM   15  C11 UNL     1      31.228  40.665  17.671  1.00  0.00     0.210 C 
BRANCH  15  16
HETATM   16  C12 UNL     1      31.209  41.201  16.262  1.00  0.00     0.168 C 
BRANCH  16  17
HETATM   17  O2  UNL     1      31.219  42.584  16.232  1.00  0.00    -0.392 OA
ATOM     18  H2  UNL     1      30.642  42.960  16.887  1.00  0.00     0.210 HD
ENDBRANCH  16  17
BRANCH  16  19
HETATM   19  C13 UNL     1      29.960  40.687  15.541  1.00  0.00     0.267 C 
BRANCH  19  20
HETATM   20  N5  UNL     1      28.896  40.547  16.507  1.00  0.00    -0.065 N 
ATOM     21  H52 UNL     1      28.663  39.568  16.668  1.00  0.00     0.278 HD
ATOM     22  H51 UNL     1      29.209  40.790  17.447  1.00  0.00     0.278 HD
BRANCH  20  23
HETATM   23  C14 UNL     1      27.733  41.313  16.121  1.00  0.00     0.115 C 
HETATM   24  C15 UNL     1      26.471  40.784  16.741  1.00  0.00     0.045 C 
HETATM   25  C16 UNL     1      27.568  41.272  14.613  1.00  0.00     0.045 C 
HETATM   26  C17 UNL     1      27.922  42.738  16.594  1.00  0.00     0.045 C 
ENDBRANCH  20  23
ENDBRANCH  19  20
ENDBRANCH  16  19
ENDBRANCH  15  16
ENDBRANCH  14  15
ENDBRANCH  10  14
BRANCH   7  27
HETATM   27  N3  UNL     1      34.222  42.534  21.359  1.00  0.00    -0.221 N 
ATOM     28  H3  UNL     1      34.526  43.203  20.651  1.00  0.00     0.178 HD
BRANCH  27  29
HETATM   29  C4  UNL     1      35.198  42.186  22.360  1.00  0.00     0.099 C 
HETATM   30  C5  UNL     1      36.295  43.164  22.374  1.00  0.00     0.026 C 
HETATM   31  C6  UNL     1      37.658  42.654  22.678  1.00  0.00     0.002 C 
HETATM   32  C7  UNL     1      37.951  41.273  22.210  1.00  0.00     0.000 C 
HETATM   33  C8  UNL     1      36.866  40.349  22.780  1.00  0.00     0.002 C 
HETATM   34  C9  UNL     1      35.604  40.762  22.085  1.00  0.00     0.026 C 
ENDBRANCH  27  29
ENDBRANCH   7  27
TORSDOF 9
ENDMDL
MODEL 3
REMARK VINA RESULT: -8.735324956      2.866      6.884
REMARK  9 active torsions:
REMARK  status: ('A' for Active; 'I' for Inactive)
REMARK    1  A    between atoms: C3_7  and  N3_8 
REMARK    2  A    between atoms: N3_8  and  C4_10 
REMARK    3  A    between atoms: C10_18  and  O1_19 
REMARK    4  A    between atoms: O1_19  and  C11_20 
REMARK    5  A    between atoms: C11_20  and  C12_21 
REMARK    6  A    between atoms: C12_21  and  O2_22 
REMARK    7  A    between atoms: C12_21  and  C13_24 
REMARK    8  A    between atoms: C13_24  and  N5_25 
REMARK    9  A    between atoms: N5_25  and  C14_28 
ROOT
HETATM    1  C1  UNL     1      27.781  40.464  14.419  1.00  0.00     0.147 C 
HETATM    2  N1  UNL     1      29.161  40.394  14.590  1.00  0.00    -0.379 N 
ATOM      3  H1  UNL     1      29.632  40.139  13.723  1.00  0.00     0.160 HD
HETATM    4  C2  UNL     1      29.973  40.560  15.518  1.00  0.00     0.141 A 
HETATM    5  N2  UNL     1      31.295  40.377  15.215  1.00  0.00    -0.175 N 
ATOM      6  H2  UNL     1      31.550  40.117  14.262  1.00  0.00     0.186 HD
HETATM    7  C3  UNL     1      32.251  40.524  16.114  1.00  0.00     0.682 A 
HETATM    8  N4  UNL     1      31.972  40.870  17.406  1.00  0.00    -0.169 N 
ATOM      9  H4  UNL     1      32.719  40.980  18.092  1.00  0.00     0.186 HD
HETATM   10  C10 UNL     1      30.696  41.058  17.745  1.00  0.00     0.182 A 
HETATM   11  C18 UNL     1      29.669  40.906  16.803  1.00  0.00     0.140 A 
HETATM   12  C19 UNL     1      28.329  41.118  17.218  1.00  0.00     0.107 C 
HETATM   13  N6  UNL     1      27.244  41.293  17.584  1.00  0.00    -0.191 NA
ENDROOT
BRANCH  10  14
HETATM   14  O1  UNL     1      30.352  41.410  19.031  1.00  0.00    -0.332 OA
BRANCH  14  15
HETATM   15  C11 UNL     1      30.314  40.340  19.978  1.00  0.00     0.210 C 
BRANCH  15  16
HETATM   16  C12 UNL     1      29.735  40.806  21.289  1.00  0.00     0.168 C 
BRANCH  16  17
HETATM   17  O2  UNL     1      29.083  42.020  21.167  1.00  0.00    -0.392 OA
ATOM     18  H2  UNL     1      29.161  42.548  21.954  1.00  0.00     0.210 HD
ENDBRANCH  16  17
BRANCH  16  19
HETATM   19  C13 UNL     1      30.857  40.932  22.323  1.00  0.00     0.267 C 
BRANCH  19  20
HETATM   20  N5  UNL     1      32.125  40.806  21.643  1.00  0.00    -0.065 N 
ATOM     21  H52 UNL     1      32.541  39.888  21.795  1.00  0.00     0.278 HD
ATOM     22  H51 UNL     1      32.003  40.758  20.631  1.00  0.00     0.278 HD
BRANCH  20  23
HETATM   23  C14 UNL     1      33.029  41.868  22.019  1.00  0.00     0.115 C 
HETATM   24  C15 UNL     1      33.148  42.920  20.953  1.00  0.00     0.045 C 
HETATM   25  C16 UNL     1      34.414  41.299  22.271  1.00  0.00     0.045 C 
HETATM   26  C17 UNL     1      32.495  42.530  23.270  1.00  0.00     0.045 C 
ENDBRANCH  20  23
ENDBRANCH  19  20
ENDBRANCH  16  19
ENDBRANCH  15  16
ENDBRANCH  14  15
ENDBRANCH  10  14
BRANCH   7  27
HETATM   27  N3  UNL     1      33.472  40.361  15.828  1.00  0.00    -0.221 N 
ATOM     28  H3  UNL     1      34.120  40.362  16.616  1.00  0.00     0.178 HD
BRANCH  27  29
HETATM   29  C4  UNL     1      34.061  40.174  14.526  1.00  0.00     0.099 C 
HETATM   30  C5  UNL     1      34.985  39.030  14.536  1.00  0.00     0.026 C 
HETATM   31  C6  UNL     1      36.195  39.124  13.678  1.00  0.00     0.002 C 
HETATM   32  C7  UNL     1      36.765  40.488  13.510  1.00  0.00     0.000 C 
HETATM   33  C8  UNL     1      35.642  41.401  12.999  1.00  0.00     0.002 C 
HETATM   34  C9  UNL     1      34.673  41.495  14.138  1.00  0.00     0.026 C 
ENDBRANCH  27  29
ENDBRANCH   7  27
TORSDOF 9
ENDMDL
MODEL 4
REMARK VINA RESULT: -8.472297907      2.963      6.686
REMARK  9 active torsions:
REMARK  status: ('A' for Active; 'I' for Inactive)
REMARK    1  A    between atoms: C3_7  and  N3_8 
REMARK    2  A    between atoms: N3_8  and  C4_10 
REMARK    3  A    between atoms: C10_18  and  O1_19 
REMARK    4  A    between atoms: O1_19  and  C11_20 
REMARK    5  A    between atoms: C11_20  and  C12_21 
REMARK    6  A    between atoms: C12_21  and  O2_22 
REMARK    7  A    between atoms: C12_21  and  C13_24 
REMARK    8  A    between atoms: C13_24  and  N5_25 
REMARK    9  A    between atoms: N5_25  and  C14_28 
ROOT
HETATM    1  C1  UNL     1      27.886  40.694  14.545  1.00  0.00     0.147 C 
HETATM    2  N1  UNL     1      29.269  40.564  14.634  1.00  0.00    -0.379 N 
ATOM      3  H1  UNL     1      29.689  40.400  13.719  1.00  0.00     0.160 HD
HETATM    4  C2  UNL     1      30.131  40.595  15.531  1.00  0.00     0.141 A 
HETATM    5  N2  UNL     1      31.429  40.411  15.140  1.00  0.00    -0.175 N 
ATOM      6  H2  UNL     1      31.629  40.260  14.151  1.00  0.00     0.186 HD
HETATM    7  C3  UNL     1      32.432  40.423  15.999  1.00  0.00     0.682 A 
HETATM    8  N4  UNL     1      32.229  40.620  17.335  1.00  0.00    -0.169 N 
ATOM      9  H4  UNL     1      33.012  40.627  17.989  1.00  0.00     0.186 HD
HETATM   10  C10 UNL     1      30.979  40.804  17.760  1.00  0.00     0.182 A 
HETATM   11  C18 UNL     1      29.902  40.795  16.862  1.00  0.00     0.140 A 
HETATM   12  C19 UNL     1      28.592  40.994  17.369  1.00  0.00     0.107 C 
HETATM   13  N6  UNL     1      27.533  41.156  17.809  1.00  0.00    -0.191 NA
ENDROOT
BRANCH  10  14
HETATM   14  O1  UNL     1      30.710  41.010  19.095  1.00  0.00    -0.332 OA
BRANCH  14  15
HETATM   15  C11 UNL     1      31.155  42.258  19.632  1.00  0.00     0.210 C 
BRANCH  15  16
HETATM   16  C12 UNL     1      32.266  42.045  20.629  1.00  0.00     0.168 C 
BRANCH  16  17
HETATM   17  O2  UNL     1      33.468  41.748  20.012  1.00  0.00    -0.392 OA
ATOM     18  H2  UNL     1      33.895  42.524  19.667  1.00  0.00     0.210 HD
ENDBRANCH  16  17
BRANCH  16  19
HETATM   19  C13 UNL     1      31.885  40.904  21.576  1.00  0.00     0.267 C 
BRANCH  19  20
HETATM   20  N5  UNL     1      30.637  41.239  22.221  1.00  0.00    -0.065 N 
ATOM     21  H52 UNL     1      30.787  41.600  23.163  1.00  0.00     0.278 HD
ATOM     22  H51 UNL     1      30.210  42.067  21.804  1.00  0.00     0.278 HD
BRANCH  20  23
HETATM   23  C14 UNL     1      29.728  40.117  22.221  1.00  0.00     0.115 C 
HETATM   24  C15 UNL     1      30.369  38.864  21.694  1.00  0.00     0.045 C 
HETATM   25  C16 UNL     1      28.524  40.429  21.351  1.00  0.00     0.045 C 
HETATM   26  C17 UNL     1      29.295  39.854  23.647  1.00  0.00     0.045 C 
ENDBRANCH  20  23
ENDBRANCH  19  20
ENDBRANCH  16  19
ENDBRANCH  15  16
ENDBRANCH  14  15
ENDBRANCH  10  14
BRANCH   7  27
HETATM   27  N3  UNL     1      33.632  40.260  15.631  1.00  0.00    -0.221 N 
ATOM     28  H3  UNL     1      34.315  40.137  16.379  1.00  0.00     0.178 HD
BRANCH  27  29
HETATM   29  C4  UNL     1      34.153  40.226  14.288  1.00  0.00     0.099 C 
HETATM   30  C5  UNL     1      34.986  39.032  14.086  1.00  0.00     0.026 C 
HETATM   31  C6  UNL     1      36.164  39.167  13.190  1.00  0.00     0.002 C 
HETATM   32  C7  UNL     1      36.829  40.498  13.191  1.00  0.00     0.000 C 
HETATM   33  C8  UNL     1      35.759  41.552  12.875  1.00  0.00     0.002 C 
HETATM   34  C9  UNL     1      34.847  41.544  14.063  1.00  0.00     0.026 C 
ENDBRANCH  27  29
ENDBRANCH   7  27
TORSDOF 9
ENDMDL
MODEL 5
REMARK VINA RESULT: -7.989139055      2.862      6.378
REMARK  9 active torsions:
REMARK  status: ('A' for Active; 'I' for Inactive)
REMARK    1  A    between atoms: C3_7  and  N3_8 
REMARK    2  A    between atoms: N3_8  and  C4_10 
REMARK    3  A    between atoms: C10_18  and  O1_19 
REMARK    4  A    between atoms: O1_19  and  C11_20 
REMARK    5  A    between atoms: C11_20  and  C12_21 
REMARK    6  A    between atoms: C12_21  and  O2_22 
REMARK    7  A    between atoms: C12_21  and  C13_24 
REMARK    8  A    between atoms: C13_24  and  N5_25 
REMARK    9  A    between atoms: N5_25  and  C14_28 
ROOT
HETATM    1  C1  UNL     1      27.203  40.643  15.744  1.00  0.00     0.147 C 
HETATM    2  N1  UNL     1      28.532  40.528  15.345  1.00  0.00    -0.379 N 
ATOM      3  H1  UNL     1      28.606  40.301  14.354  1.00  0.00     0.160 HD
HETATM    4  C2  UNL     1      29.654  40.627  15.874  1.00  0.00     0.141 A 
HETATM    5  N2  UNL     1      30.734  40.423  15.061  1.00  0.00    -0.175 N 
ATOM      6  H2  UNL     1      30.576  40.202  14.078  1.00  0.00     0.186 HD
HETATM    7  C3  UNL     1      31.976  40.502  15.506  1.00  0.00     0.682 A 
HETATM    8  N4  UNL     1      32.252  40.792  16.811  1.00  0.00    -0.169 N 
ATOM      9  H4  UNL     1      33.214  40.850  17.143  1.00  0.00     0.186 HD
HETATM   10  C10 UNL     1      31.227  41.000  17.639  1.00  0.00     0.182 A 
HETATM   11  C18 UNL     1      29.904  40.920  17.184  1.00  0.00     0.140 A 
HETATM   12  C19 UNL     1      28.852  41.148  18.108  1.00  0.00     0.107 C 
HETATM   13  N6  UNL     1      28.012  41.335  18.884  1.00  0.00    -0.191 NA
ENDROOT
BRANCH  10  14
HETATM   14  O1  UNL     1      31.441  41.299  18.966  1.00  0.00    -0.332 OA
BRANCH  14  15
HETATM   15  C11 UNL     1      32.595  40.699  19.560  1.00  0.00     0.210 C 
BRANCH  15  16
HETATM   16  C12 UNL     1      33.218  41.625  20.574  1.00  0.00     0.168 C 
BRANCH  16  17
HETATM   17  O2  UNL     1      34.309  41.051  21.200  1.00  0.00    -0.392 OA
ATOM     18  H2  UNL     1      34.759  41.666  21.769  1.00  0.00     0.210 HD
ENDBRANCH  16  17
BRANCH  16  19
HETATM   19  C13 UNL     1      32.170  42.004  21.624  1.00  0.00     0.267 C 
BRANCH  19  20
HETATM   20  N5  UNL     1      31.674  40.794  22.236  1.00  0.00    -0.065 N 
ATOM     21  H52 UNL     1      32.023  39.963  21.759  1.00  0.00     0.278 HD
ATOM     22  H51 UNL     1      32.096  40.638  23.152  1.00  0.00     0.278 HD
BRANCH  20  23
HETATM   23  C14 UNL     1      30.232  40.796  22.310  1.00  0.00     0.115 C 
HETATM   24  C15 UNL     1      29.733  40.709  23.725  1.00  0.00     0.045 C 
HETATM   25  C16 UNL     1      29.675  39.610  21.544  1.00  0.00     0.045 C 
HETATM   26  C17 UNL     1      29.726  42.093  21.718  1.00  0.00     0.045 C 
ENDBRANCH  20  23
ENDBRANCH  19  20
ENDBRANCH  16  19
ENDBRANCH  15  16
ENDBRANCH  14  15
ENDBRANCH  10  14
BRANCH   7  27
HETATM   27  N3  UNL     1      32.973  40.319  14.748  1.00  0.00    -0.221 N 
ATOM     28  H3  UNL     1      32.766  40.223  13.754  1.00  0.00     0.178 HD
BRANCH  27  29
HETATM   29  C4  UNL     1      34.363  40.230  15.116  1.00  0.00     0.099 C 
HETATM   30  C5  UNL     1      35.173  41.148  14.302  1.00  0.00     0.026 C 
HETATM   31  C6  UNL     1      36.544  40.706  13.938  1.00  0.00     0.002 C 
HETATM   32  C7  UNL     1      36.720  39.242  13.735  1.00  0.00     0.000 C 
HETATM   33  C8  UNL     1      36.220  38.534  15.001  1.00  0.00     0.002 C 
HETATM   34  C9  UNL     1      34.741  38.775  15.018  1.00  0.00     0.026 C 
ENDBRANCH  27  29
ENDBRANCH   7  27
TORSDOF 9
ENDMDL
