MODEL 1
REMARK VINA RESULT: -5.539912353      0.000      0.000
REMARK  2 active torsions:
REMARK  status: ('A' for Active; 'I' for Inactive)
REMARK       I    between atoms: N1_2  and  C2_4 
REMARK    1  A    between atoms: C2_4  and  C3_6 
REMARK       I    between atoms: C3_6  and  N2_8 
REMARK    2  A    between atoms: N2_8  and  N3_10 
ROOT
HETATM    1  C3  UNL     1      -1.266   9.116  11.061  1.00  0.00     0.327 C 
HETATM    2  O2  UNL     1      -2.391   9.269  10.496  1.00  0.00    -0.261 OA
HETATM    3  N2  UNL     1      -0.067   9.581  10.472  1.00  0.00    -0.260 N 
ATOM      4  H2  UNL     1       0.826   9.445  10.947  1.00  0.00     0.190 HD
ENDROOT
BRANCH   1   5
HETATM    5  C2  UNL     1      -1.210   8.443  12.348  1.00  0.00     0.310 C 
HETATM    6  N1  UNL     1       0.036   7.977  12.824  1.00  0.00    -0.357 N 
HETATM    7  C1  UNL     1       0.094   7.304  14.110  1.00  0.00     0.149 C 
ATOM      8  H1  UNL     1       0.884   8.111  12.272  1.00  0.00     0.162 HD
HETATM    9  O1  UNL     1      -2.262   8.286  13.015  1.00  0.00    -0.262 OA
ENDBRANCH   1   5
BRANCH   3  10
HETATM   10  N3  UNL     1      -0.113  10.221   9.248  1.00  0.00    -0.273 N 
HETATM   11  C4  UNL     1       0.323  11.420   9.135  1.00  0.00     0.215 C 
HETATM   12  N4  UNL     1       0.849  12.082  10.268  1.00  0.00    -0.065 NA
HETATM   13  N5  UNL     1       0.261  12.046   7.864  1.00  0.00    -0.065 NA
ATOM     14  H3  UNL     1      -0.494   9.738   8.434  1.00  0.00     0.189 HD
ENDBRANCH   3  10
TORSDOF 2
ENDMDL
MODEL 2
REMARK VINA RESULT: -5.496621894      1.620      1.811
REMARK  2 active torsions:
REMARK  status: ('A' for Active; 'I' for Inactive)
REMARK       I    between atoms: N1_2  and  C2_4 
REMARK    1  A    between atoms: C2_4  and  C3_6 
REMARK       I    between atoms: C3_6  and  N2_8 
REMARK    2  A    between atoms: N2_8  and  N3_10 
ROOT
HETATM    1  C3  UNL     1      -0.932   9.192  11.440  1.00  0.00     0.327 C 
HETATM    2  O2  UNL     1      -0.098   8.466  10.818  1.00  0.00    -0.261 OA
HETATM    3  N2  UNL     1      -1.068  10.573  11.164  1.00  0.00    -0.260 N 
ATOM      4  H2  UNL     1      -1.747  11.136  11.678  1.00  0.00     0.190 HD
ENDROOT
BRANCH   1   5
HETATM    5  C2  UNL     1      -1.768   8.587  12.462  1.00  0.00     0.310 C 
HETATM    6  N1  UNL     1      -1.436   8.780  13.822  1.00  0.00    -0.357 N 
HETATM    7  C1  UNL     1      -2.271   8.176  14.846  1.00  0.00     0.149 C 
ATOM      8  H1  UNL     1      -0.621   9.337  14.082  1.00  0.00     0.162 HD
HETATM    9  O1  UNL     1      -2.767   7.905  12.126  1.00  0.00    -0.262 OA
ENDBRANCH   1   5
BRANCH   3  10
HETATM   10  N3  UNL     1      -0.276  11.156  10.193  1.00  0.00    -0.273 N 
HETATM   11  C4  UNL     1      -0.755  11.388   9.029  1.00  0.00     0.215 C 
HETATM   12  N4  UNL     1      -2.097  11.044   8.744  1.00  0.00    -0.065 NA
HETATM   13  N5  UNL     1       0.086  11.987   8.057  1.00  0.00    -0.065 NA
ATOM     14  H3  UNL     1       0.692  11.401  10.404  1.00  0.00     0.189 HD
ENDBRANCH   3  10
TORSDOF 2
ENDMDL
MODEL 3
REMARK VINA RESULT: -5.287613729      1.335      1.335
REMARK  2 active torsions:
REMARK  status: ('A' for Active; 'I' for Inactive)
REMARK       I    between atoms: N1_2  and  C2_4 
REMARK    1  A    between atoms: C2_4  and  C3_6 
REMARK       I    between atoms: C3_6  and  N2_8 
REMARK    2  A    between atoms: N2_8  and  N3_10 
ROOT
HETATM    1  C3  UNL     1      -0.797   8.599  10.978  1.00  0.00     0.327 C 
HETATM    2  O2  UNL     1      -1.102   7.810  10.033  1.00  0.00    -0.261 OA
HETATM    3  N2  UNL     1      -0.335   9.914  10.730  1.00  0.00    -0.260 N 
ATOM      4  H2  UNL     1      -0.097  10.530  11.508  1.00  0.00     0.190 HD
ENDROOT
BRANCH   1   5
HETATM    5  C2  UNL     1      -0.926   8.139  12.350  1.00  0.00     0.310 C 
HETATM    6  N1  UNL     1      -1.702   8.896  13.257  1.00  0.00    -0.357 N 
HETATM    7  C1  UNL     1      -1.832   8.438  14.628  1.00  0.00     0.149 C 
ATOM      8  H1  UNL     1      -2.165   9.753  12.952  1.00  0.00     0.162 HD
HETATM    9  O1  UNL     1      -0.351   7.083  12.709  1.00  0.00    -0.262 OA
ENDBRANCH   1   5
BRANCH   3  10
HETATM   10  N3  UNL     1      -0.210  10.358   9.428  1.00  0.00    -0.273 N 
HETATM   11  C4  UNL     1       0.341  11.488   9.186  1.00  0.00     0.215 C 
HETATM   12  N4  UNL     1       0.818  12.277  10.259  1.00  0.00    -0.065 NA
HETATM   13  N5  UNL     1       0.454  11.913   7.838  1.00  0.00    -0.065 NA
ATOM     14  H3  UNL     1      -0.556   9.785   8.658  1.00  0.00     0.189 HD
ENDBRANCH   3  10
TORSDOF 2
ENDMDL
MODEL 4
REMARK VINA RESULT: -5.274994517      2.240      2.648
REMARK  2 active torsions:
REMARK  status: ('A' for Active; 'I' for Inactive)
REMARK       I    between atoms: N1_2  and  C2_4 
REMARK    1  A    between atoms: C2_4  and  C3_6 
REMARK       I    between atoms: C3_6  and  N2_8 
REMARK    2  A    between atoms: N2_8  and  N3_10 
ROOT
HETATM    1  C3  UNL     1      -0.708   8.473  10.622  1.00  0.00     0.327 C 
HETATM    2  O2  UNL     1      -1.129   9.113  11.633  1.00  0.00    -0.261 OA
HETATM    3  N2  UNL     1      -0.086   9.128   9.533  1.00  0.00    -0.260 N 
ATOM      4  H2  UNL     1       0.245   8.591   8.731  1.00  0.00     0.190 HD
ENDROOT
BRANCH   1   5
HETATM    5  C2  UNL     1      -0.869   7.030  10.584  1.00  0.00     0.310 C 
HETATM    6  N1  UNL     1      -0.710   6.354   9.353  1.00  0.00    -0.357 N 
HETATM    7  C1  UNL     1      -0.871   4.912   9.313  1.00  0.00     0.149 C 
ATOM      8  H1  UNL     1      -0.485   6.873   8.503  1.00  0.00     0.162 HD
HETATM    9  O1  UNL     1      -1.145   6.406  11.638  1.00  0.00    -0.262 OA
ENDBRANCH   1   5
BRANCH   3  10
HETATM   10  N3  UNL     1       0.070  10.501   9.562  1.00  0.00    -0.273 N 
HETATM   11  C4  UNL     1      -0.344  11.214   8.582  1.00  0.00     0.215 C 
HETATM   12  N4  UNL     1      -0.960  10.588   7.474  1.00  0.00    -0.065 NA
HETATM   13  N5  UNL     1      -0.168  12.619   8.645  1.00  0.00    -0.065 NA
ATOM     14  H3  UNL     1       0.516  10.947  10.364  1.00  0.00     0.189 HD
ENDBRANCH   3  10
TORSDOF 2
ENDMDL
MODEL 5
REMARK VINA RESULT: -5.269069579      3.087      3.564
REMARK  2 active torsions:
REMARK  status: ('A' for Active; 'I' for Inactive)
REMARK       I    between atoms: N1_2  and  C2_4 
REMARK    1  A    between atoms: C2_4  and  C3_6 
REMARK       I    between atoms: C3_6  and  N2_8 
REMARK    2  A    between atoms: N2_8  and  N3_10 
ROOT
HETATM    1  C3  UNL     1       0.369   7.555  10.129  1.00  0.00     0.327 C 
HETATM    2  O2  UNL     1       1.132   7.538  11.142  1.00  0.00    -0.261 OA
HETATM    3  N2  UNL     1      -0.089   8.768   9.562  1.00  0.00    -0.260 N 
ATOM      4  H2  UNL     1      -0.702   8.755   8.747  1.00  0.00     0.190 HD
ENDROOT
BRANCH   1   5
HETATM    5  C2  UNL     1      -0.044   6.294   9.536  1.00  0.00     0.310 C 
HETATM    6  N1  UNL     1       0.637   5.818   8.393  1.00  0.00    -0.357 N 
HETATM    7  C1  UNL     1       0.225   4.559   7.800  1.00  0.00     0.149 C 
ATOM      8  H1  UNL     1       1.408   6.352   7.991  1.00  0.00     0.162 HD
HETATM    9  O1  UNL     1      -0.994   5.650  10.044  1.00  0.00    -0.262 OA
ENDBRANCH   1   5
BRANCH   3  10
HETATM   10  N3  UNL     1       0.299   9.971  10.121  1.00  0.00    -0.273 N 
HETATM   11  C4  UNL     1       0.251  11.046   9.426  1.00  0.00     0.215 C 
HETATM   12  N4  UNL     1      -0.200  10.992   8.087  1.00  0.00    -0.065 NA
HETATM   13  N5  UNL     1       0.657  12.262  10.031  1.00  0.00    -0.065 NA
ATOM     14  H3  UNL     1       0.625  10.003  11.087  1.00  0.00     0.189 HD
ENDBRANCH   3  10
TORSDOF 2
ENDMDL
