MODEL 1
REMARK VINA RESULT: -6.354906031      0.000      0.000
REMARK  2 active torsions:
REMARK  status: ('A' for Active; 'I' for Inactive)
REMARK    1  A    between atoms: N1_1  and  N2_4 
REMARK       I    between atoms: N2_4  and  C1_6 
REMARK    2  A    between atoms: N4_8  and  C2_10 
ROOT
HETATM    1  C2  UNL     1      -0.682   9.040   9.738  1.00  0.00     0.181 A 
HETATM    2  N5  UNL     1       0.138   9.951   9.326  1.00  0.00    -0.290 N 
ATOM      3  H5  UNL     1       0.775   9.831   8.538  1.00  0.00     0.172 HD
HETATM    4  C3  UNL     1       0.047  11.124  10.089  1.00  0.00     0.328 A 
HETATM    5  O1  UNL     1       0.676  12.214   9.993  1.00  0.00    -0.247 OA
HETATM    6  N6  UNL     1      -0.945  10.897  11.081  1.00  0.00    -0.272 N 
ATOM      7  H6  UNL     1      -1.248  11.558  11.796  1.00  0.00     0.174 HD
HETATM    8  C4  UNL     1      -1.435   9.574  10.889  1.00  0.00     0.293 A 
HETATM    9  O2  UNL     1      -2.318   8.956  11.537  1.00  0.00    -0.264 OA
ENDROOT
BRANCH   1  10
HETATM   10  N4  UNL     1      -0.887   7.732   9.233  1.00  0.00    -0.311 N 
HETATM   11  C1  UNL     1      -0.079   6.796   9.553  1.00  0.00     0.208 C 
HETATM   12  N2  UNL     1      -0.298   5.500   9.040  1.00  0.00    -0.280 N 
HETATM   13  N3  UNL     1       1.007   7.094  10.411  1.00  0.00    -0.062 NA
ATOM     14  H2  UNL     1      -0.903   4.843   9.534  1.00  0.00     0.189 HD
ATOM     15  H4  UNL     1      -1.676   7.539   8.617  1.00  0.00     0.170 HD
BRANCH  12  16
HETATM   16  N1  UNL     1       0.323   5.133   7.853  1.00  0.00    -0.343 N 
ATOM     17  H12 UNL     1       0.685   4.185   7.747  1.00  0.00     0.176 HD
ATOM     18  H11 UNL     1       0.406   5.823   7.106  1.00  0.00     0.176 HD
ENDBRANCH  12  16
ENDBRANCH   1  10
TORSDOF 2
ENDMDL
MODEL 2
REMARK VINA RESULT: -6.229196021      2.639      3.590
REMARK  2 active torsions:
REMARK  status: ('A' for Active; 'I' for Inactive)
REMARK    1  A    between atoms: N1_1  and  N2_4 
REMARK       I    between atoms: N2_4  and  C1_6 
REMARK    2  A    between atoms: N4_8  and  C2_10 
ROOT
HETATM    1  C2  UNL     1      -0.355   9.915   9.720  1.00  0.00     0.181 A 
HETATM    2  N5  UNL     1      -1.006   9.592   8.649  1.00  0.00    -0.290 N 
ATOM      3  H5  UNL     1      -1.381   8.662   8.468  1.00  0.00     0.172 HD
HETATM    4  C3  UNL     1      -1.135  10.674   7.766  1.00  0.00     0.328 A 
HETATM    5  O1  UNL     1      -1.696  10.748   6.639  1.00  0.00    -0.247 OA
HETATM    6  N6  UNL     1      -0.486  11.784   8.373  1.00  0.00    -0.272 N 
ATOM      7  H6  UNL     1      -0.403  12.723   7.984  1.00  0.00     0.174 HD
HETATM    8  C4  UNL     1       0.026  11.338   9.624  1.00  0.00     0.293 A 
HETATM    9  O2  UNL     1       0.669  11.983  10.491  1.00  0.00    -0.264 OA
ENDROOT
BRANCH   1  10
HETATM   10  N4  UNL     1      -0.021   9.109  10.836  1.00  0.00    -0.311 N 
HETATM   11  C1  UNL     1      -0.947   8.528  11.497  1.00  0.00     0.208 C 
HETATM   12  N2  UNL     1      -0.596   7.729  12.605  1.00  0.00    -0.280 N 
HETATM   13  N3  UNL     1      -2.292   8.708  11.092  1.00  0.00    -0.062 NA
ATOM     14  H2  UNL     1      -0.372   6.741  12.482  1.00  0.00     0.189 HD
ATOM     15  H4  UNL     1       0.954   8.992  11.109  1.00  0.00     0.170 HD
BRANCH  12  16
HETATM   16  N1  UNL     1      -0.561   8.309  13.867  1.00  0.00    -0.343 N 
ATOM     17  H12 UNL     1       0.079   9.083  14.048  1.00  0.00     0.176 HD
ATOM     18  H11 UNL     1      -1.180   7.948  14.594  1.00  0.00     0.176 HD
ENDBRANCH  12  16
ENDBRANCH   1  10
TORSDOF 2
ENDMDL
MODEL 3
REMARK VINA RESULT: -6.216111791      2.339      3.222
REMARK  2 active torsions:
REMARK  status: ('A' for Active; 'I' for Inactive)
REMARK    1  A    between atoms: N1_1  and  N2_4 
REMARK       I    between atoms: N2_4  and  C1_6 
REMARK    2  A    between atoms: N4_8  and  C2_10 
ROOT
HETATM    1  C2  UNL     1      -1.152  10.177  10.673  1.00  0.00     0.181 A 
HETATM    2  N5  UNL     1      -0.010  10.668  10.312  1.00  0.00    -0.290 N 
ATOM      3  H5  UNL     1       0.800  10.736  10.927  1.00  0.00     0.172 HD
HETATM    4  C3  UNL     1      -0.020  11.094   8.976  1.00  0.00     0.328 A 
HETATM    5  O1  UNL     1       0.890  11.617   8.278  1.00  0.00    -0.247 OA
HETATM    6  N6  UNL     1      -1.320  10.831   8.466  1.00  0.00    -0.272 N 
ATOM      7  H6  UNL     1      -1.652  11.026   7.522  1.00  0.00     0.174 HD
HETATM    8  C4  UNL     1      -2.074  10.244   9.522  1.00  0.00     0.293 A 
HETATM    9  O2  UNL     1      -3.270   9.853   9.519  1.00  0.00    -0.264 OA
ENDROOT
BRANCH   1  10
HETATM   10  N4  UNL     1      -1.537   9.648  11.929  1.00  0.00    -0.311 N 
HETATM   11  C1  UNL     1      -1.200   8.457  12.245  1.00  0.00     0.208 C 
HETATM   12  N2  UNL     1      -1.591   7.946  13.500  1.00  0.00    -0.280 N 
HETATM   13  N3  UNL     1      -0.444   7.693  11.323  1.00  0.00    -0.062 NA
ATOM     14  H2  UNL     1      -1.007   8.091  14.324  1.00  0.00     0.189 HD
ATOM     15  H4  UNL     1      -2.080  10.216  12.579  1.00  0.00     0.170 HD
BRANCH  12  16
HETATM   16  N1  UNL     1      -2.785   7.243  13.597  1.00  0.00    -0.343 N 
ATOM     17  H12 UNL     1      -3.670   7.753  13.613  1.00  0.00     0.176 HD
ATOM     18  H11 UNL     1      -2.756   6.225  13.649  1.00  0.00     0.176 HD
ENDBRANCH  12  16
ENDBRANCH   1  10
TORSDOF 2
ENDMDL
MODEL 4
REMARK VINA RESULT: -6.082604918      1.510      1.600
REMARK  2 active torsions:
REMARK  status: ('A' for Active; 'I' for Inactive)
REMARK    1  A    between atoms: N1_1  and  N2_4 
REMARK       I    between atoms: N2_4  and  C1_6 
REMARK    2  A    between atoms: N4_8  and  C2_10 
ROOT
HETATM    1  C2  UNL     1      -1.059   9.438   9.643  1.00  0.00     0.181 A 
HETATM    2  N5  UNL     1      -0.038  10.012  10.193  1.00  0.00    -0.290 N 
ATOM      3  H5  UNL     1       0.632   9.531  10.793  1.00  0.00     0.172 HD
HETATM    4  C3  UNL     1       0.040  11.373   9.865  1.00  0.00     0.328 A 
HETATM    5  O1  UNL     1       0.880  12.250  10.204  1.00  0.00    -0.247 OA
HETATM    6  N6  UNL     1      -1.064  11.658   9.016  1.00  0.00    -0.272 N 
ATOM      7  H6  UNL     1      -1.293  12.562   8.603  1.00  0.00     0.174 HD
HETATM    8  C4  UNL     1      -1.791  10.445   8.851  1.00  0.00     0.293 A 
HETATM    9  O2  UNL     1      -2.835  10.233   8.183  1.00  0.00    -0.264 OA
ENDROOT
BRANCH   1  10
HETATM   10  N4  UNL     1      -1.475   8.086   9.732  1.00  0.00    -0.311 N 
HETATM   11  C1  UNL     1      -0.604   7.153   9.726  1.00  0.00     0.208 C 
HETATM   12  N2  UNL     1      -1.037   5.814   9.816  1.00  0.00    -0.280 N 
HETATM   13  N3  UNL     1       0.767   7.498   9.630  1.00  0.00    -0.062 NA
ATOM     14  H2  UNL     1      -1.175   5.373  10.726  1.00  0.00     0.189 HD
ATOM     15  H4  UNL     1      -2.467   7.860   9.802  1.00  0.00     0.170 HD
BRANCH  12  16
HETATM   16  N1  UNL     1      -1.271   5.103   8.646  1.00  0.00    -0.343 N 
ATOM     17  H12 UNL     1      -0.630   5.205   7.858  1.00  0.00     0.176 HD
ATOM     18  H11 UNL     1      -2.085   4.490   8.595  1.00  0.00     0.176 HD
ENDBRANCH  12  16
ENDBRANCH   1  10
TORSDOF 2
ENDMDL
MODEL 5
REMARK VINA RESULT: -6.073500839      2.369      3.585
REMARK  2 active torsions:
REMARK  status: ('A' for Active; 'I' for Inactive)
REMARK    1  A    between atoms: N1_1  and  N2_4 
REMARK       I    between atoms: N2_4  and  C1_6 
REMARK    2  A    between atoms: N4_8  and  C2_10 
ROOT
HETATM    1  C2  UNL     1      -1.252   9.568  10.019  1.00  0.00     0.181 A 
HETATM    2  N5  UNL     1      -2.538   9.447   9.943  1.00  0.00    -0.290 N 
ATOM      3  H5  UNL     1      -3.111   8.995  10.655  1.00  0.00     0.172 HD
HETATM    4  C3  UNL     1      -3.050  10.012   8.767  1.00  0.00     0.328 A 
HETATM    5  O1  UNL     1      -4.236  10.090   8.345  1.00  0.00    -0.247 OA
HETATM    6  N6  UNL     1      -1.944  10.537   8.044  1.00  0.00    -0.272 N 
ATOM      7  H6  UNL     1      -1.981  11.014   7.143  1.00  0.00     0.174 HD
HETATM    8  C4  UNL     1      -0.776  10.272   8.813  1.00  0.00     0.293 A 
HETATM    9  O2  UNL     1       0.422  10.559   8.557  1.00  0.00    -0.264 OA
ENDROOT
BRANCH   1  10
HETATM   10  N4  UNL     1      -0.375   9.130  11.043  1.00  0.00    -0.311 N 
HETATM   11  C1  UNL     1      -0.271   7.882  11.297  1.00  0.00     0.208 C 
HETATM   12  N2  UNL     1       0.606   7.464  12.319  1.00  0.00    -0.280 N 
HETATM   13  N3  UNL     1      -1.041   6.965  10.541  1.00  0.00    -0.062 NA
ATOM     14  H2  UNL     1       1.588   7.277  12.115  1.00  0.00     0.189 HD
ATOM     15  H4  UNL     1       0.170   9.808  11.575  1.00  0.00     0.170 HD
BRANCH  12  16
HETATM   16  N1  UNL     1       0.111   7.312  13.608  1.00  0.00    -0.343 N 
ATOM     17  H12 UNL     1      -0.898   7.279  13.759  1.00  0.00     0.176 HD
ATOM     18  H11 UNL     1       0.769   7.236  14.384  1.00  0.00     0.176 HD
ENDBRANCH  12  16
ENDBRANCH   1  10
TORSDOF 2
ENDMDL
