MODEL 1
REMARK VINA RESULT: -6.908824548      0.000      0.000
REMARK  2 active torsions:
REMARK  status: ('A' for Active; 'I' for Inactive)
REMARK    1  A    between atoms: C2_3  and  N2_4 
REMARK    2  A    between atoms: C3_9  and  N4_10 
REMARK       I    between atoms: N4_10  and  C4_12 
ROOT
HETATM    1  C1  UNL     1       0.545   6.805  11.861  1.00  0.00     0.180 C 
HETATM    2  N1  UNL     1       0.149   8.017  11.135  1.00  0.00    -0.136 N 
HETATM    3  C2  UNL     1       0.110   9.217  11.751  1.00  0.00     0.696 A 
HETATM    4  N3  UNL     1      -0.262  10.292  11.031  1.00  0.00    -0.022 N 
ATOM      5  H3  UNL     1      -0.291  11.198  11.497  1.00  0.00     0.203 HD
HETATM    6  C3  UNL     1      -0.596  10.237   9.739  1.00  0.00     0.703 A 
HETATM    7  N7  UNL     1      -0.557   9.038   9.127  1.00  0.00    -0.140 N 
ATOM      8  H7  UNL     1      -0.805   8.954   8.142  1.00  0.00     0.189 HD
HETATM    9  C5  UNL     1      -0.186   7.953   9.832  1.00  0.00     0.354 A 
HETATM   10  O1  UNL     1      -0.162   6.846   9.222  1.00  0.00    -0.245 OA
ENDROOT
BRANCH   6  11
HETATM   11  N4  UNL     1      -0.983  11.413   9.023  1.00  0.00    -0.163 N 
HETATM   12  C4  UNL     1      -0.109  11.980   8.065  1.00  0.00     0.200 C 
HETATM   13  N5  UNL     1       0.501  13.095   8.279  1.00  0.00    -0.373 N 
HETATM   14  N6  UNL     1       0.134  11.343   6.817  1.00  0.00    -0.063 NA
ATOM     15  H52 UNL     1       0.326  13.553   9.174  1.00  0.00     0.158 HD
ATOM     16  H51 UNL     1       1.130  13.504   7.590  1.00  0.00     0.158 HD
ATOM     17  H4  UNL     1      -1.891  11.843   9.201  1.00  0.00     0.187 HD
ENDBRANCH   6  11
BRANCH   3  18
HETATM   18  N2  UNL     1       0.429   9.297  13.003  1.00  0.00    -0.234 N 
ATOM     19  H22 UNL     1       1.387   9.178  13.331  1.00  0.00     0.174 HD
ATOM     20  H21 UNL     1      -0.299   9.484  13.693  1.00  0.00     0.174 HD
ENDBRANCH   3  18
TORSDOF 2
ENDMDL
MODEL 2
REMARK VINA RESULT: -6.851248689      1.404      2.205
REMARK  2 active torsions:
REMARK  status: ('A' for Active; 'I' for Inactive)
REMARK    1  A    between atoms: C2_3  and  N2_4 
REMARK    2  A    between atoms: C3_9  and  N4_10 
REMARK       I    between atoms: N4_10  and  C4_12 
ROOT
HETATM    1  C1  UNL     1       0.158   6.746  11.727  1.00  0.00     0.180 C 
HETATM    2  N1  UNL     1      -0.148   7.975  10.985  1.00  0.00    -0.136 N 
HETATM    3  C2  UNL     1      -0.317   7.957   9.646  1.00  0.00     0.696 A 
HETATM    4  N3  UNL     1      -0.596   9.117   9.023  1.00  0.00    -0.022 N 
ATOM      5  H3  UNL     1      -0.724   9.103   8.012  1.00  0.00     0.203 HD
HETATM    6  C3  UNL     1      -0.713  10.287   9.656  1.00  0.00     0.703 A 
HETATM    7  N7  UNL     1      -0.543  10.302  10.992  1.00  0.00    -0.140 N 
ATOM      8  H7  UNL     1      -0.623  11.176  11.512  1.00  0.00     0.189 HD
HETATM    9  C5  UNL     1      -0.264   9.151  11.632  1.00  0.00     0.354 A 
HETATM   10  O1  UNL     1      -0.112   9.206  12.885  1.00  0.00    -0.245 OA
ENDROOT
BRANCH   6  11
HETATM   11  N4  UNL     1      -1.011  11.490   8.942  1.00  0.00    -0.163 N 
HETATM   12  C4  UNL     1      -0.072  12.021   8.025  1.00  0.00     0.200 C 
HETATM   13  N5  UNL     1       0.588  13.099   8.277  1.00  0.00    -0.373 N 
HETATM   14  N6  UNL     1       0.183  11.387   6.779  1.00  0.00    -0.063 NA
ATOM     15  H52 UNL     1       0.405  13.554   9.172  1.00  0.00     0.158 HD
ATOM     16  H51 UNL     1       1.264  13.481   7.617  1.00  0.00     0.158 HD
ATOM     17  H4  UNL     1      -1.900  11.966   9.094  1.00  0.00     0.187 HD
ENDBRANCH   6  11
BRANCH   3  18
HETATM   18  N2  UNL     1      -0.210   6.835   9.010  1.00  0.00    -0.234 N 
ATOM     19  H22 UNL     1      -0.975   6.164   8.951  1.00  0.00     0.174 HD
ATOM     20  H21 UNL     1       0.671   6.606   8.548  1.00  0.00     0.174 HD
ENDBRANCH   3  18
TORSDOF 2
ENDMDL
MODEL 3
REMARK VINA RESULT: -6.575315280      1.773      2.523
REMARK  2 active torsions:
REMARK  status: ('A' for Active; 'I' for Inactive)
REMARK    1  A    between atoms: C2_3  and  N2_4 
REMARK    2  A    between atoms: C3_9  and  N4_10 
REMARK       I    between atoms: N4_10  and  C4_12 
ROOT
HETATM    1  C1  UNL     1       2.162   6.300  10.677  1.00  0.00     0.180 C 
HETATM    2  N1  UNL     1       1.502   7.546  10.271  1.00  0.00    -0.136 N 
HETATM    3  C2  UNL     1       1.139   7.757   8.988  1.00  0.00     0.696 A 
HETATM    4  N3  UNL     1       0.537   8.922   8.679  1.00  0.00    -0.022 N 
ATOM      5  H3  UNL     1       0.262   9.080   7.710  1.00  0.00     0.203 HD
HETATM    6  C3  UNL     1       0.281   9.881   9.572  1.00  0.00     0.703 A 
HETATM    7  N7  UNL     1       0.645   9.668  10.850  1.00  0.00    -0.140 N 
ATOM      8  H7  UNL     1       0.468  10.377  11.562  1.00  0.00     0.189 HD
HETATM    9  C5  UNL     1       1.247   8.509  11.178  1.00  0.00     0.354 A 
HETATM   10  O1  UNL     1       1.574   8.347  12.388  1.00  0.00    -0.245 OA
ENDROOT
BRANCH   6  11
HETATM   11  N4  UNL     1      -0.362  11.099   9.186  1.00  0.00    -0.163 N 
HETATM   12  C4  UNL     1       0.179  11.887   8.142  1.00  0.00     0.200 C 
HETATM   13  N5  UNL     1       0.753  13.017   8.371  1.00  0.00    -0.373 N 
HETATM   14  N6  UNL     1       0.109  11.464   6.786  1.00  0.00    -0.063 NA
ATOM     15  H52 UNL     1       0.802  13.321   9.344  1.00  0.00     0.158 HD
ATOM     16  H51 UNL     1       1.142  13.584   7.619  1.00  0.00     0.158 HD
ATOM     17  H4  UNL     1      -1.211  11.401   9.665  1.00  0.00     0.187 HD
ENDBRANCH   6  11
BRANCH   3  18
HETATM   18  N2  UNL     1       1.376   6.842   8.104  1.00  0.00    -0.234 N 
ATOM     19  H22 UNL     1       2.162   6.897   7.458  1.00  0.00     0.174 HD
ATOM     20  H21 UNL     1       0.756   6.034   8.044  1.00  0.00     0.174 HD
ENDBRANCH   3  18
TORSDOF 2
ENDMDL
MODEL 4
REMARK VINA RESULT: -6.495972050      2.253      4.825
REMARK  2 active torsions:
REMARK  status: ('A' for Active; 'I' for Inactive)
REMARK    1  A    between atoms: C2_3  and  N2_4 
REMARK    2  A    between atoms: C3_9  and  N4_10 
REMARK       I    between atoms: N4_10  and  C4_12 
ROOT
HETATM    1  C1  UNL     1      -0.227  11.430   7.119  1.00  0.00     0.180 C 
HETATM    2  N1  UNL     1      -0.028  10.892   8.469  1.00  0.00    -0.136 N 
HETATM    3  C2  UNL     1      -0.852   9.948   8.972  1.00  0.00     0.696 A 
HETATM    4  N3  UNL     1      -0.618   9.494  10.217  1.00  0.00    -0.022 N 
ATOM      5  H3  UNL     1      -1.240   8.781  10.596  1.00  0.00     0.203 HD
HETATM    6  C3  UNL     1       0.385   9.926  10.985  1.00  0.00     0.703 A 
HETATM    7  N7  UNL     1       1.206  10.868  10.482  1.00  0.00    -0.140 N 
ATOM      8  H7  UNL     1       1.983  11.226  11.037  1.00  0.00     0.189 HD
HETATM    9  C5  UNL     1       0.986  11.333   9.237  1.00  0.00     0.354 A 
HETATM   10  O1  UNL     1       1.778  12.217   8.801  1.00  0.00    -0.245 OA
ENDROOT
BRANCH   6  11
HETATM   11  N4  UNL     1       0.588   9.408  12.303  1.00  0.00    -0.163 N 
HETATM   12  C4  UNL     1      -0.520   9.186  13.155  1.00  0.00     0.200 C 
HETATM   13  N5  UNL     1      -0.747   9.931  14.182  1.00  0.00    -0.373 N 
HETATM   14  N6  UNL     1      -1.435   8.124  12.916  1.00  0.00    -0.063 NA
ATOM     15  H52 UNL     1      -0.091  10.693  14.353  1.00  0.00     0.158 HD
ATOM     16  H51 UNL     1      -1.545   9.771  14.796  1.00  0.00     0.158 HD
ATOM     17  H4  UNL     1       1.531   9.198  12.629  1.00  0.00     0.187 HD
ENDBRANCH   6  11
BRANCH   3  18
HETATM   18  N2  UNL     1      -1.832   9.512   8.247  1.00  0.00    -0.234 N 
ATOM     19  H22 UNL     1      -1.796   9.502   7.228  1.00  0.00     0.174 HD
ATOM     20  H21 UNL     1      -2.676   9.166   8.705  1.00  0.00     0.174 HD
ENDBRANCH   3  18
TORSDOF 2
ENDMDL
MODEL 5
REMARK VINA RESULT: -6.491601377      2.295      4.893
REMARK  2 active torsions:
REMARK  status: ('A' for Active; 'I' for Inactive)
REMARK    1  A    between atoms: C2_3  and  N2_4 
REMARK    2  A    between atoms: C3_9  and  N4_10 
REMARK       I    between atoms: N4_10  and  C4_12 
ROOT
HETATM    1  C1  UNL     1      -0.065  11.391   7.019  1.00  0.00     0.180 C 
HETATM    2  N1  UNL     1      -0.112  11.068   8.449  1.00  0.00    -0.136 N 
HETATM    3  C2  UNL     1      -1.048  10.231   8.944  1.00  0.00     0.696 A 
HETATM    4  N3  UNL     1      -1.040   9.974  10.266  1.00  0.00    -0.022 N 
ATOM      5  H3  UNL     1      -1.746   9.341  10.639  1.00  0.00     0.203 HD
HETATM    6  C3  UNL     1      -0.157  10.503  11.116  1.00  0.00     0.703 A 
HETATM    7  N7  UNL     1       0.776  11.339  10.620  1.00  0.00    -0.140 N 
ATOM      8  H7  UNL     1       1.468  11.764  11.237  1.00  0.00     0.189 HD
HETATM    9  C5  UNL     1       0.782  11.606   9.301  1.00  0.00     0.354 A 
HETATM   10  O1  UNL     1       1.673  12.395   8.874  1.00  0.00    -0.245 OA
ENDROOT
BRANCH   6  11
HETATM   11  N4  UNL     1      -0.195  10.195  12.512  1.00  0.00    -0.163 N 
HETATM   12  C4  UNL     1      -0.028   8.858  12.949  1.00  0.00     0.200 C 
HETATM   13  N5  UNL     1      -1.008   8.175  13.430  1.00  0.00    -0.373 N 
HETATM   14  N6  UNL     1       1.235   8.210  12.876  1.00  0.00    -0.063 NA
ATOM     15  H52 UNL     1      -1.914   8.640  13.483  1.00  0.00     0.158 HD
ATOM     16  H51 UNL     1      -0.889   7.212  13.744  1.00  0.00     0.158 HD
ATOM     17  H4  UNL     1      -0.341  10.939  13.195  1.00  0.00     0.187 HD
ENDBRANCH   6  11
BRANCH   3  18
HETATM   18  N2  UNL     1      -1.915   9.704   8.141  1.00  0.00    -0.234 N 
ATOM     19  H22 UNL     1      -1.697   9.483   7.169  1.00  0.00     0.174 HD
ATOM     20  H21 UNL     1      -2.855   9.502   8.483  1.00  0.00     0.174 HD
ENDBRANCH   3  18
TORSDOF 2
ENDMDL
