MODEL 1
REMARK VINA RESULT: -6.911404671      0.000      0.000
REMARK  3 active torsions:
REMARK  status: ('A' for Active; 'I' for Inactive)
REMARK    1  A    between atoms: N1_1  and  C1_4 
REMARK    2  A    between atoms: C2_7  and  N3_8 
REMARK    3  A    between atoms: C5_19  and  N8_20 
ROOT
HETATM    1  C1  UNL     1      -2.293   9.889   9.256  1.00  0.00     0.705 A 
HETATM    2  N2  UNL     1      -2.331   9.023  10.293  1.00  0.00    -0.020 N 
ATOM      3  H2  UNL     1      -3.029   8.279  10.285  1.00  0.00     0.203 HD
HETATM    4  C2  UNL     1      -1.490   9.104  11.332  1.00  0.00     0.735 A 
HETATM    5  N7  UNL     1      -0.573  10.102  11.315  1.00  0.00    -0.020 N 
ATOM      6  H7  UNL     1       0.078  10.183  12.096  1.00  0.00     0.203 HD
HETATM    7  C5  UNL     1      -0.488  10.998  10.302  1.00  0.00     0.705 A 
HETATM    8  N9  UNL     1      -1.366  10.871   9.273  1.00  0.00    -0.022 N 
ATOM      9  H9  UNL     1      -1.325  11.532   8.497  1.00  0.00     0.203 HD
ENDROOT
BRANCH   4  10
HETATM   10  N3  UNL     1      -1.516   8.201  12.446  1.00  0.00    -0.015 N 
HETATM   11  N4  UNL     1      -1.662   8.683  13.745  1.00  0.00     0.005 NA
HETATM   12  N5  UNL     1      -2.156   7.705  14.578  1.00  0.00    -0.279 N 
HETATM   13  C3  UNL     1      -2.040   6.315  14.351  1.00  0.00     0.200 C 
ATOM     14  H5  UNL     1      -2.643   8.006  15.422  1.00  0.00     0.185 HD
HETATM   15  N6  UNL     1      -1.677   5.853  13.224  1.00  0.00    -0.302 N 
HETATM   16  C4  UNL     1      -1.388   6.808  12.181  1.00  0.00     0.360 C 
ATOM     17  H6  UNL     1      -1.594   4.850  13.063  1.00  0.00     0.171 HD
HETATM   18  O1  UNL     1      -1.022   6.431  11.035  1.00  0.00    -0.244 OA
ENDBRANCH   4  10
BRANCH   1  19
HETATM   19  N1  UNL     1      -3.135   9.772   8.255  1.00  0.00    -0.234 N 
ATOM     20  H12 UNL     1      -4.142   9.754   8.415  1.00  0.00     0.174 HD
ATOM     21  H11 UNL     1      -2.795   9.700   7.295  1.00  0.00     0.174 HD
ENDBRANCH   1  19
BRANCH   7  22
HETATM   22  N8  UNL     1       0.382  11.951  10.272  1.00  0.00    -0.234 N 
ATOM     23  H82 UNL     1       1.321  11.756   9.927  1.00  0.00     0.174 HD
ATOM     24  H81 UNL     1       0.179  12.902  10.581  1.00  0.00     0.174 HD
ENDBRANCH   7  22
TORSDOF 3
ENDMDL
MODEL 2
REMARK VINA RESULT: -6.883389015      0.063      2.068
REMARK  3 active torsions:
REMARK  status: ('A' for Active; 'I' for Inactive)
REMARK    1  A    between atoms: N1_1  and  C1_4 
REMARK    2  A    between atoms: C2_7  and  N3_8 
REMARK    3  A    between atoms: C5_19  and  N8_20 
ROOT
HETATM    1  C1  UNL     1      -0.480  10.996  10.288  1.00  0.00     0.705 A 
HETATM    2  N2  UNL     1      -0.536  10.133  11.326  1.00  0.00    -0.020 N 
ATOM      3  H2  UNL     1       0.125  10.247  12.095  1.00  0.00     0.203 HD
HETATM    4  C2  UNL     1      -1.426   9.133  11.386  1.00  0.00     0.735 A 
HETATM    5  N7  UNL     1      -2.292   9.007  10.351  1.00  0.00    -0.020 N 
ATOM      6  H7  UNL     1      -2.978   8.252  10.376  1.00  0.00     0.203 HD
HETATM    7  C5  UNL     1      -2.282   9.843   9.285  1.00  0.00     0.705 A 
HETATM    8  N9  UNL     1      -1.359  10.840   9.275  1.00  0.00    -0.022 N 
ATOM      9  H9  UNL     1      -1.328  11.483   8.484  1.00  0.00     0.203 HD
ENDROOT
BRANCH   4  10
HETATM   10  N3  UNL     1      -1.500   8.202  12.475  1.00  0.00    -0.015 N 
HETATM   11  N4  UNL     1      -1.706   8.650  13.778  1.00  0.00     0.005 NA
HETATM   12  N5  UNL     1      -2.236   7.650  14.561  1.00  0.00    -0.279 N 
HETATM   13  C3  UNL     1      -2.106   6.266  14.305  1.00  0.00     0.200 C 
ATOM     14  H5  UNL     1      -2.761   7.929  15.390  1.00  0.00     0.185 HD
HETATM   15  N6  UNL     1      -1.691   5.835  13.184  1.00  0.00    -0.302 N 
HETATM   16  C4  UNL     1      -1.357   6.816  12.180  1.00  0.00     0.360 C 
ATOM     17  H6  UNL     1      -1.597   4.836  13.001  1.00  0.00     0.171 HD
HETATM   18  O1  UNL     1      -0.938   6.469  11.042  1.00  0.00    -0.244 OA
ENDBRANCH   4  10
BRANCH   1  19
HETATM   19  N1  UNL     1       0.406  11.965  10.270  1.00  0.00    -0.234 N 
ATOM     20  H12 UNL     1       1.326  11.843  10.693  1.00  0.00     0.174 HD
ATOM     21  H11 UNL     1       0.190  12.859   9.829  1.00  0.00     0.174 HD
ENDBRANCH   1  19
BRANCH   7  22
HETATM   22  N8  UNL     1      -3.103   9.735   8.295  1.00  0.00    -0.234 N 
ATOM     23  H82 UNL     1      -3.494   8.820   8.071  1.00  0.00     0.174 HD
ATOM     24  H81 UNL     1      -3.385  10.525   7.714  1.00  0.00     0.174 HD
ENDBRANCH   7  22
TORSDOF 3
ENDMDL
MODEL 3
REMARK VINA RESULT: -6.785752245      2.355      3.577
REMARK  3 active torsions:
REMARK  status: ('A' for Active; 'I' for Inactive)
REMARK    1  A    between atoms: N1_1  and  C1_4 
REMARK    2  A    between atoms: C2_7  and  N3_8 
REMARK    3  A    between atoms: C5_19  and  N8_20 
ROOT
HETATM    1  C1  UNL     1      -0.538  10.733  10.325  1.00  0.00     0.705 A 
HETATM    2  N2  UNL     1      -0.024   9.502  10.542  1.00  0.00    -0.020 N 
ATOM      3  H2  UNL     1       0.882   9.423  11.004  1.00  0.00     0.203 HD
HETATM    4  C2  UNL     1      -0.659   8.381  10.173  1.00  0.00     0.735 A 
HETATM    5  N7  UNL     1      -1.861   8.518   9.563  1.00  0.00    -0.020 N 
ATOM      6  H7  UNL     1      -2.362   7.677   9.274  1.00  0.00     0.203 HD
HETATM    7  C5  UNL     1      -2.424   9.726   9.321  1.00  0.00     0.705 A 
HETATM    8  N9  UNL     1      -1.738  10.831   9.715  1.00  0.00    -0.022 N 
ATOM      9  H9  UNL     1      -2.138  11.754   9.545  1.00  0.00     0.203 HD
ENDROOT
BRANCH   4  10
HETATM   10  N3  UNL     1      -0.131   7.064  10.387  1.00  0.00    -0.015 N 
HETATM   11  N4  UNL     1      -0.220   6.096   9.389  1.00  0.00     0.005 NA
HETATM   12  N5  UNL     1       0.737   5.123   9.564  1.00  0.00    -0.279 N 
HETATM   13  C3  UNL     1       1.359   4.812  10.795  1.00  0.00     0.200 C 
ATOM     14  H5  UNL     1       1.019   4.586   8.745  1.00  0.00     0.185 HD
HETATM   15  N6  UNL     1       1.258   5.579  11.803  1.00  0.00    -0.302 N 
HETATM   16  C4  UNL     1       0.481   6.785  11.641  1.00  0.00     0.360 C 
ATOM     17  H6  UNL     1       1.707   5.353  12.690  1.00  0.00     0.171 HD
HETATM   18  O1  UNL     1       0.333   7.598  12.593  1.00  0.00    -0.244 OA
ENDBRANCH   4  10
BRANCH   1  19
HETATM   19  N1  UNL     1       0.116  11.807  10.706  1.00  0.00    -0.234 N 
ATOM     20  H12 UNL     1       0.064  12.140  11.669  1.00  0.00     0.174 HD
ATOM     21  H11 UNL     1       0.693  12.327  10.044  1.00  0.00     0.174 HD
ENDBRANCH   1  19
BRANCH   7  22
HETATM   22  N8  UNL     1      -3.569   9.870   8.743  1.00  0.00    -0.234 N 
ATOM     23  H82 UNL     1      -4.419   9.649   9.263  1.00  0.00     0.174 HD
ATOM     24  H81 UNL     1      -3.673  10.195   7.782  1.00  0.00     0.174 HD
ENDBRANCH   7  22
TORSDOF 3
ENDMDL
MODEL 4
REMARK VINA RESULT: -6.747555349      2.138      2.662
REMARK  3 active torsions:
REMARK  status: ('A' for Active; 'I' for Inactive)
REMARK    1  A    between atoms: N1_1  and  C1_4 
REMARK    2  A    between atoms: C2_7  and  N3_8 
REMARK    3  A    between atoms: C5_19  and  N8_20 
ROOT
HETATM    1  C1  UNL     1      -2.004   9.860   8.971  1.00  0.00     0.705 A 
HETATM    2  N2  UNL     1      -1.561   8.670   9.434  1.00  0.00    -0.020 N 
ATOM      3  H2  UNL     1      -2.075   7.825   9.183  1.00  0.00     0.203 HD
HETATM    4  C2  UNL     1      -0.474   8.557  10.208  1.00  0.00     0.735 A 
HETATM    5  N7  UNL     1       0.188   9.696  10.523  1.00  0.00    -0.020 N 
ATOM      6  H7  UNL     1       1.019   9.633  11.111  1.00  0.00     0.203 HD
HETATM    7  C5  UNL     1      -0.209  10.916  10.087  1.00  0.00     0.705 A 
HETATM    8  N9  UNL     1      -1.319  10.975   9.305  1.00  0.00    -0.022 N 
ATOM      9  H9  UNL     1      -1.641  11.880   8.963  1.00  0.00     0.203 HD
ENDROOT
BRANCH   4  10
HETATM   10  N3  UNL     1       0.011   7.306  10.716  1.00  0.00    -0.015 N 
HETATM   11  N4  UNL     1       0.302   6.255   9.849  1.00  0.00     0.005 NA
HETATM   12  N5  UNL     1       1.189   5.375  10.426  1.00  0.00    -0.279 N 
HETATM   13  C3  UNL     1       1.379   5.214  11.818  1.00  0.00     0.200 C 
ATOM     14  H5  UNL     1       1.751   4.796   9.804  1.00  0.00     0.185 HD
HETATM   15  N6  UNL     1       0.914   6.052  12.653  1.00  0.00    -0.302 N 
HETATM   16  C4  UNL     1       0.182   7.177  12.123  1.00  0.00     0.360 C 
ATOM     17  H6  UNL     1       1.052   5.934  13.656  1.00  0.00     0.171 HD
HETATM   18  O1  UNL     1      -0.311   8.052  12.886  1.00  0.00    -0.244 OA
ENDBRANCH   4  10
BRANCH   1  19
HETATM   19  N1  UNL     1      -3.073   9.927   8.210  1.00  0.00    -0.234 N 
ATOM     20  H12 UNL     1      -3.414   9.105   7.711  1.00  0.00     0.174 HD
ATOM     21  H11 UNL     1      -3.585  10.803   8.109  1.00  0.00     0.174 HD
ENDBRANCH   1  19
BRANCH   7  22
HETATM   22  N8  UNL     1       0.414  12.009  10.377  1.00  0.00    -0.234 N 
ATOM     23  H82 UNL     1       1.432  12.029  10.323  1.00  0.00     0.174 HD
ATOM     24  H81 UNL     1      -0.061  12.864  10.662  1.00  0.00     0.174 HD
ENDBRANCH   7  22
TORSDOF 3
ENDMDL
MODEL 5
REMARK VINA RESULT: -6.706304760      1.869      2.512
REMARK  3 active torsions:
REMARK  status: ('A' for Active; 'I' for Inactive)
REMARK    1  A    between atoms: N1_1  and  C1_4 
REMARK    2  A    between atoms: C2_7  and  N3_8 
REMARK    3  A    between atoms: C5_19  and  N8_20 
ROOT
HETATM    1  C1  UNL     1      -1.158   7.556  10.684  1.00  0.00     0.705 A 
HETATM    2  N2  UNL     1      -1.252   7.225  11.991  1.00  0.00    -0.020 N 
ATOM      3  H2  UNL     1      -1.357   6.241  12.241  1.00  0.00     0.203 HD
HETATM    4  C2  UNL     1      -1.214   8.136  12.971  1.00  0.00     0.735 A 
HETATM    5  N7  UNL     1      -1.073   9.435  12.609  1.00  0.00    -0.020 N 
ATOM      6  H7  UNL     1      -1.041  10.146  13.340  1.00  0.00     0.203 HD
HETATM    7  C5  UNL     1      -0.973   9.825  11.315  1.00  0.00     0.705 A 
HETATM    8  N9  UNL     1      -1.018   8.859  10.361  1.00  0.00    -0.022 N 
ATOM      9  H9  UNL     1      -0.946   9.125   9.378  1.00  0.00     0.203 HD
ENDROOT
BRANCH   4  10
HETATM   10  N3  UNL     1      -1.318   7.809  14.364  1.00  0.00    -0.015 N 
HETATM   11  N4  UNL     1      -2.230   8.473  15.181  1.00  0.00     0.005 NA
HETATM   12  N5  UNL     1      -2.536   7.717  16.290  1.00  0.00    -0.279 N 
HETATM   13  C3  UNL     1      -1.710   6.706  16.832  1.00  0.00     0.200 C 
ATOM     14  H5  UNL     1      -3.424   7.900  16.755  1.00  0.00     0.185 HD
HETATM   15  N6  UNL     1      -0.717   6.243  16.188  1.00  0.00    -0.302 N 
HETATM   16  C4  UNL     1      -0.466   6.791  14.877  1.00  0.00     0.360 C 
ATOM     17  H6  UNL     1      -0.123   5.513  16.581  1.00  0.00     0.171 HD
HETATM   18  O1  UNL     1       0.500   6.385  14.175  1.00  0.00    -0.244 OA
ENDBRANCH   4  10
BRANCH   1  19
HETATM   19  N1  UNL     1      -1.196   6.629   9.754  1.00  0.00    -0.234 N 
ATOM     20  H12 UNL     1      -0.548   5.842   9.770  1.00  0.00     0.174 HD
ATOM     21  H11 UNL     1      -1.880   6.679   8.999  1.00  0.00     0.174 HD
ENDBRANCH   1  19
BRANCH   7  22
HETATM   22  N8  UNL     1      -0.836  11.058  10.957  1.00  0.00    -0.234 N 
ATOM     23  H82 UNL     1      -1.620  11.699  11.073  1.00  0.00     0.174 HD
ATOM     24  H81 UNL     1       0.025  11.431  10.558  1.00  0.00     0.174 HD
ENDBRANCH   7  22
TORSDOF 3
ENDMDL
