MODEL 1
REMARK VINA RESULT: -7.216606370      0.000      0.000
REMARK  2 active torsions:
REMARK  status: ('A' for Active; 'I' for Inactive)
REMARK    1  A    between atoms: N2_3  and  C3_6 
REMARK    2  A    between atoms: C5_13  and  N6_14 
ROOT
HETATM    1  N1  UNL     1      35.726  22.581  38.336  1.00  0.00    -0.170 NA
HETATM    2  C1  UNL     1      34.790  23.275  38.204  1.00  0.00     0.214 C 
HETATM    3  N2  UNL     1      33.681  24.121  38.056  1.00  0.00    -0.010 N 
HETATM    4  C2  UNL     1      33.908  25.391  37.462  1.00  0.00     0.214 C 
HETATM    5  N3  UNL     1      34.094  26.425  36.997  1.00  0.00    -0.170 NA
ENDROOT
BRANCH   3   6
HETATM    6  C3  UNL     1      32.384  23.722  38.483  1.00  0.00     0.713 C 
HETATM    7  N4  UNL     1      31.506  23.587  37.476  1.00  0.00    -0.171 N 
HETATM    8  C4  UNL     1      30.208  23.173  37.548  1.00  0.00     0.159 C 
ATOM      9  H4  UNL     1      31.850  23.821  36.546  1.00  0.00     0.186 HD
HETATM   10  N5  UNL     1      29.589  23.130  36.424  1.00  0.00    -0.382 N 
HETATM   11  C5  UNL     1      29.455  22.795  38.625  1.00  0.00     0.147 C 
ATOM     12  H52 UNL     1      30.151  23.411  35.620  1.00  0.00     0.157 HD
ATOM     13  H51 UNL     1      28.619  22.820  36.477  1.00  0.00     0.157 HD
HETATM   14  N7  UNL     1      29.866  22.741  39.907  1.00  0.00    -0.291 N 
HETATM   15  C6  UNL     1      31.036  23.133  40.441  1.00  0.00     0.340 C 
ATOM     16  H7  UNL     1      29.195  22.346  40.565  1.00  0.00     0.172 HD
HETATM   17  O1  UNL     1      31.043  23.116  41.689  1.00  0.00    -0.246 OA
HETATM   18  N8  UNL     1      32.142  23.521  39.778  1.00  0.00    -0.139 N 
ATOM     19  H8  UNL     1      32.946  23.693  40.382  1.00  0.00     0.189 HD
BRANCH  11  20
HETATM   20  N6  UNL     1      28.216  22.447  38.427  1.00  0.00    -0.382 N 
ATOM     21  H62 UNL     1      27.583  22.635  39.204  1.00  0.00     0.157 HD
ATOM     22  H61 UNL     1      27.967  22.022  37.533  1.00  0.00     0.157 HD
ENDBRANCH  11  20
ENDBRANCH   3   6
TORSDOF 2
ENDMDL
MODEL 2
REMARK VINA RESULT: -7.203747036      0.045      1.828
REMARK  2 active torsions:
REMARK  status: ('A' for Active; 'I' for Inactive)
REMARK    1  A    between atoms: N2_3  and  C3_6 
REMARK    2  A    between atoms: C5_13  and  N6_14 
ROOT
HETATM    1  N1  UNL     1      34.063  26.401  36.904  1.00  0.00    -0.170 NA
HETATM    2  C1  UNL     1      33.877  25.363  37.418  1.00  0.00     0.214 C 
HETATM    3  N2  UNL     1      33.666  24.111  38.016  1.00  0.00    -0.010 N 
HETATM    4  C2  UNL     1      34.795  23.262  38.161  1.00  0.00     0.214 C 
HETATM    5  N3  UNL     1      35.705  22.568  38.263  1.00  0.00    -0.170 NA
ENDROOT
BRANCH   3   6
HETATM    6  C3  UNL     1      32.374  23.712  38.457  1.00  0.00     0.713 C 
HETATM    7  N4  UNL     1      31.487  23.567  37.460  1.00  0.00    -0.171 N 
HETATM    8  C4  UNL     1      30.191  23.150  37.546  1.00  0.00     0.159 C 
ATOM      9  H4  UNL     1      31.823  23.795  36.524  1.00  0.00     0.186 HD
HETATM   10  N5  UNL     1      29.563  23.097  36.428  1.00  0.00    -0.382 N 
HETATM   11  C5  UNL     1      29.450  22.778  38.633  1.00  0.00     0.147 C 
ATOM     12  H52 UNL     1      30.116  23.374  35.617  1.00  0.00     0.157 HD
ATOM     13  H51 UNL     1      28.594  22.785  36.492  1.00  0.00     0.157 HD
HETATM   14  N7  UNL     1      29.872  22.735  39.911  1.00  0.00    -0.291 N 
HETATM   15  C6  UNL     1      31.046  23.134  40.432  1.00  0.00     0.340 C 
ATOM     16  H7  UNL     1      29.208  22.344  40.579  1.00  0.00     0.172 HD
HETATM   17  O1  UNL     1      31.064  23.127  41.680  1.00  0.00    -0.246 OA
HETATM   18  N8  UNL     1      32.144  23.520  39.756  1.00  0.00    -0.139 N 
ATOM     19  H8  UNL     1      32.954  23.699  40.351  1.00  0.00     0.189 HD
BRANCH  11  20
HETATM   20  N6  UNL     1      28.210  22.426  38.449  1.00  0.00    -0.382 N 
ATOM     21  H62 UNL     1      28.050  21.798  37.661  1.00  0.00     0.157 HD
ATOM     22  H61 UNL     1      27.500  22.790  39.085  1.00  0.00     0.157 HD
ENDBRANCH  11  20
ENDBRANCH   3   6
TORSDOF 2
ENDMDL
MODEL 3
REMARK VINA RESULT: -7.178108786      1.836      3.249
REMARK  2 active torsions:
REMARK  status: ('A' for Active; 'I' for Inactive)
REMARK    1  A    between atoms: N2_3  and  C3_6 
REMARK    2  A    between atoms: C5_13  and  N6_14 
ROOT
HETATM    1  N1  UNL     1      33.585  27.316  36.801  1.00  0.00    -0.170 NA
HETATM    2  C1  UNL     1      33.565  26.163  37.013  1.00  0.00     0.214 C 
HETATM    3  N2  UNL     1      33.547  24.779  37.245  1.00  0.00    -0.010 N 
HETATM    4  C2  UNL     1      34.671  24.032  36.806  1.00  0.00     0.214 C 
HETATM    5  N3  UNL     1      35.574  23.425  36.436  1.00  0.00    -0.170 NA
ENDROOT
BRANCH   3   6
HETATM    6  C3  UNL     1      32.446  24.154  37.893  1.00  0.00     0.713 C 
HETATM    7  N4  UNL     1      32.548  24.141  39.232  1.00  0.00    -0.171 N 
HETATM    8  C4  UNL     1      31.644  23.665  40.136  1.00  0.00     0.159 C 
ATOM      9  H4  UNL     1      33.404  24.536  39.620  1.00  0.00     0.186 HD
HETATM   10  N5  UNL     1      31.994  23.782  41.366  1.00  0.00    -0.382 N 
HETATM   11  C5  UNL     1      30.422  23.082  39.945  1.00  0.00     0.147 C 
ATOM     12  H52 UNL     1      32.905  24.217  41.508  1.00  0.00     0.157 HD
ATOM     13  H51 UNL     1      31.318  23.426  42.042  1.00  0.00     0.157 HD
HETATM   14  N7  UNL     1      29.822  22.854  38.761  1.00  0.00    -0.291 N 
HETATM   15  C6  UNL     1      30.300  23.034  37.518  1.00  0.00     0.340 C 
ATOM     16  H7  UNL     1      28.870  22.493  38.816  1.00  0.00     0.172 HD
HETATM   17  O1  UNL     1      29.564  22.560  36.628  1.00  0.00    -0.246 OA
HETATM   18  N8  UNL     1      31.445  23.650  37.170  1.00  0.00    -0.139 N 
ATOM     19  H8  UNL     1      31.570  23.752  36.162  1.00  0.00     0.189 HD
BRANCH  11  20
HETATM   20  N6  UNL     1      29.747  22.697  40.991  1.00  0.00    -0.382 N 
ATOM     21  H62 UNL     1      30.203  22.868  41.887  1.00  0.00     0.157 HD
ATOM     22  H61 UNL     1      28.834  22.264  40.849  1.00  0.00     0.157 HD
ENDBRANCH  11  20
ENDBRANCH   3   6
TORSDOF 2
ENDMDL
MODEL 4
REMARK VINA RESULT: -7.166150774      1.848      2.747
REMARK  2 active torsions:
REMARK  status: ('A' for Active; 'I' for Inactive)
REMARK    1  A    between atoms: N2_3  and  C3_6 
REMARK    2  A    between atoms: C5_13  and  N6_14 
ROOT
HETATM    1  N1  UNL     1      35.631  23.492  36.457  1.00  0.00    -0.170 NA
HETATM    2  C1  UNL     1      34.682  24.091  36.801  1.00  0.00     0.214 C 
HETATM    3  N2  UNL     1      33.561  24.822  37.223  1.00  0.00    -0.010 N 
HETATM    4  C2  UNL     1      33.562  26.218  36.966  1.00  0.00     0.214 C 
HETATM    5  N3  UNL     1      33.570  27.350  36.772  1.00  0.00    -0.170 NA
ENDROOT
BRANCH   3   6
HETATM    6  C3  UNL     1      32.471  24.188  37.881  1.00  0.00     0.713 C 
HETATM    7  N4  UNL     1      32.583  24.180  39.219  1.00  0.00    -0.171 N 
HETATM    8  C4  UNL     1      31.690  23.698  40.131  1.00  0.00     0.159 C 
ATOM      9  H4  UNL     1      33.438  24.583  39.600  1.00  0.00     0.186 HD
HETATM   10  N5  UNL     1      32.047  23.821  41.358  1.00  0.00    -0.382 N 
HETATM   11  C5  UNL     1      30.471  23.104  39.950  1.00  0.00     0.147 C 
ATOM     12  H52 UNL     1      32.956  24.265  41.492  1.00  0.00     0.157 HD
ATOM     13  H51 UNL     1      31.380  23.461  42.039  1.00  0.00     0.157 HD
HETATM   14  N7  UNL     1      29.865  22.867  38.772  1.00  0.00    -0.291 N 
HETATM   15  C6  UNL     1      30.332  23.049  37.524  1.00  0.00     0.340 C 
ATOM     16  H7  UNL     1      28.916  22.498  38.834  1.00  0.00     0.172 HD
HETATM   17  O1  UNL     1      29.593  22.566  36.641  1.00  0.00    -0.246 OA
HETATM   18  N8  UNL     1      31.469  23.674  37.166  1.00  0.00    -0.139 N 
ATOM     19  H8  UNL     1      31.586  23.775  36.158  1.00  0.00     0.189 HD
BRANCH  11  20
HETATM   20  N6  UNL     1      29.807  22.716  41.002  1.00  0.00    -0.382 N 
ATOM     21  H62 UNL     1      29.944  23.288  41.836  1.00  0.00     0.157 HD
ATOM     22  H61 UNL     1      29.212  21.892  40.925  1.00  0.00     0.157 HD
ENDBRANCH  11  20
ENDBRANCH   3   6
TORSDOF 2
ENDMDL
MODEL 5
REMARK VINA RESULT: -7.104336182      1.895      3.688
REMARK  2 active torsions:
REMARK  status: ('A' for Active; 'I' for Inactive)
REMARK    1  A    between atoms: N2_3  and  C3_6 
REMARK    2  A    between atoms: C5_13  and  N6_14 
ROOT
HETATM    1  N1  UNL     1      33.907  26.526  37.260  1.00  0.00    -0.170 NA
HETATM    2  C1  UNL     1      33.890  25.515  37.854  1.00  0.00     0.214 C 
HETATM    3  N2  UNL     1      33.871  24.294  38.545  1.00  0.00    -0.010 N 
HETATM    4  C2  UNL     1      34.869  23.341  38.208  1.00  0.00     0.214 C 
HETATM    5  N3  UNL     1      35.666  22.564  37.924  1.00  0.00    -0.170 NA
ENDROOT
BRANCH   3   6
HETATM    6  C3  UNL     1      32.893  24.024  39.541  1.00  0.00     0.713 C 
HETATM    7  N4  UNL     1      33.088  24.703  40.683  1.00  0.00    -0.171 N 
HETATM    8  C4  UNL     1      32.306  24.704  41.801  1.00  0.00     0.159 C 
ATOM      9  H4  UNL     1      33.921  25.291  40.719  1.00  0.00     0.186 HD
HETATM   10  N5  UNL     1      32.724  25.453  42.755  1.00  0.00    -0.382 N 
HETATM   11  C5  UNL     1      31.144  24.035  42.071  1.00  0.00     0.147 C 
ATOM     12  H52 UNL     1      33.590  25.953  42.554  1.00  0.00     0.157 HD
ATOM     13  H51 UNL     1      32.140  25.454  43.591  1.00  0.00     0.157 HD
HETATM   14  N7  UNL     1      30.492  23.199  41.240  1.00  0.00    -0.291 N 
HETATM   15  C6  UNL     1      30.861  22.746  40.029  1.00  0.00     0.340 C 
ATOM     16  H7  UNL     1      29.591  22.861  41.578  1.00  0.00     0.172 HD
HETATM   17  O1  UNL     1      30.121  21.842  39.590  1.00  0.00    -0.246 OA
HETATM   18  N8  UNL     1      31.905  23.164  39.289  1.00  0.00    -0.139 N 
ATOM     19  H8  UNL     1      31.949  22.744  38.361  1.00  0.00     0.189 HD
BRANCH  11  20
HETATM   20  N6  UNL     1      30.589  24.200  43.237  1.00  0.00    -0.382 N 
ATOM     21  H62 UNL     1      29.904  23.489  43.496  1.00  0.00     0.157 HD
ATOM     22  H61 UNL     1      30.866  25.005  43.799  1.00  0.00     0.157 HD
ENDBRANCH  11  20
ENDBRANCH   3   6
TORSDOF 2
ENDMDL
