MODEL 1
REMARK VINA RESULT: -6.413441126      0.000      0.000
REMARK  3 active torsions:
REMARK  status: ('A' for Active; 'I' for Inactive)
REMARK    1  A    between atoms: C2_3  and  N2_4 
REMARK    2  A    between atoms: N2_4  and  N3_6 
REMARK    3  A    between atoms: C4_16  and  N7_17 
ROOT
HETATM    1  C1  UNL     1      30.251  22.605  39.566  1.00  0.00     0.199 C 
HETATM    2  N1  UNL     1      31.352  23.471  39.963  1.00  0.00    -0.102 N 
HETATM    3  C2  UNL     1      31.674  23.787  41.228  1.00  0.00     0.728 A 
HETATM    4  N4  UNL     1      32.737  24.600  41.192  1.00  0.00    -0.016 N 
ATOM      5  H4  UNL     1      33.202  25.001  42.007  1.00  0.00     0.203 HD
HETATM    6  C3  UNL     1      33.102  24.809  39.893  1.00  0.00     0.736 A 
HETATM    7  N5  UNL     1      34.068  25.518  39.295  1.00  0.00    -0.128 N 
ATOM      8  H5  UNL     1      34.719  26.050  39.872  1.00  0.00     0.205 HD
HETATM    9  N6  UNL     1      34.203  25.550  37.984  1.00  0.00    -0.267 N 
ATOM     10  H6  UNL     1      34.947  26.096  37.550  1.00  0.00     0.189 HD
HETATM   11  C4  UNL     1      33.343  24.851  37.237  1.00  0.00     0.186 A 
HETATM   12  C5  UNL     1      32.345  24.118  37.844  1.00  0.00     0.327 A 
HETATM   13  O1  UNL     1      31.508  23.440  37.170  1.00  0.00    -0.261 OA
HETATM   14  N8  UNL     1      32.220  24.095  39.169  1.00  0.00    -0.026 N 
ENDROOT
BRANCH   3  15
HETATM   15  N2  UNL     1      31.066  23.377  42.281  1.00  0.00    -0.137 N 
ATOM     16  H2  UNL     1      30.949  22.371  42.402  1.00  0.00     0.205 HD
BRANCH  15  17
HETATM   17  N3  UNL     1      30.556  24.209  43.264  1.00  0.00    -0.331 N 
ATOM     18  H32 UNL     1      30.848  25.187  43.234  1.00  0.00     0.177 HD
ATOM     19  H31 UNL     1      29.919  23.906  44.000  1.00  0.00     0.177 HD
ENDBRANCH  15  17
ENDBRANCH   3  15
BRANCH  11  20
HETATM   20  N7  UNL     1      33.452  24.865  35.964  1.00  0.00    -0.380 N 
ATOM     21  H72 UNL     1      32.677  25.183  35.383  1.00  0.00     0.158 HD
ATOM     22  H71 UNL     1      34.320  24.554  35.526  1.00  0.00     0.158 HD
ENDBRANCH  11  20
TORSDOF 3
ENDMDL
MODEL 2
REMARK VINA RESULT: -6.337354421      2.397      4.234
REMARK  3 active torsions:
REMARK  status: ('A' for Active; 'I' for Inactive)
REMARK    1  A    between atoms: C2_3  and  N2_4 
REMARK    2  A    between atoms: N2_4  and  N3_6 
REMARK    3  A    between atoms: C4_16  and  N7_17 
ROOT
HETATM    1  C1  UNL     1      32.276  24.880  41.087  1.00  0.00     0.199 C 
HETATM    2  N1  UNL     1      32.196  24.381  39.723  1.00  0.00    -0.102 N 
HETATM    3  C2  UNL     1      33.248  24.056  38.952  1.00  0.00     0.728 A 
HETATM    4  N4  UNL     1      32.778  23.638  37.769  1.00  0.00    -0.016 N 
ATOM      5  H4  UNL     1      33.350  23.327  36.984  1.00  0.00     0.203 HD
HETATM    6  C3  UNL     1      31.415  23.695  37.779  1.00  0.00     0.736 A 
HETATM    7  N5  UNL     1      30.460  23.404  36.887  1.00  0.00    -0.128 N 
ATOM      8  H5  UNL     1      30.732  23.056  35.967  1.00  0.00     0.205 HD
HETATM    9  N6  UNL     1      29.179  23.554  37.158  1.00  0.00    -0.267 N 
ATOM     10  H6  UNL     1      28.468  23.326  36.463  1.00  0.00     0.189 HD
HETATM   11  C4  UNL     1      28.831  24.013  38.365  1.00  0.00     0.186 A 
HETATM   12  C5  UNL     1      29.808  24.316  39.290  1.00  0.00     0.327 A 
HETATM   13  O1  UNL     1      29.521  24.754  40.448  1.00  0.00    -0.261 OA
HETATM   14  N8  UNL     1      31.099  24.159  39.002  1.00  0.00    -0.026 N 
ENDROOT
BRANCH   3  15
HETATM   15  N2  UNL     1      34.481  24.133  39.297  1.00  0.00    -0.137 N 
ATOM     16  H2  UNL     1      34.762  24.915  39.888  1.00  0.00     0.205 HD
BRANCH  15  17
HETATM   17  N3  UNL     1      35.457  23.226  38.918  1.00  0.00    -0.331 N 
ATOM     18  H32 UNL     1      35.233  22.610  38.136  1.00  0.00     0.177 HD
ATOM     19  H31 UNL     1      36.368  23.140  39.369  1.00  0.00     0.177 HD
ENDBRANCH  15  17
ENDBRANCH   3  15
BRANCH  11  20
HETATM   20  N7  UNL     1      27.597  24.168  38.654  1.00  0.00    -0.380 N 
ATOM     21  H72 UNL     1      27.044  23.381  38.993  1.00  0.00     0.158 HD
ATOM     22  H71 UNL     1      27.162  25.084  38.543  1.00  0.00     0.158 HD
ENDBRANCH  11  20
TORSDOF 3
ENDMDL
MODEL 3
REMARK VINA RESULT: -6.320621469      1.293      4.375
REMARK  3 active torsions:
REMARK  status: ('A' for Active; 'I' for Inactive)
REMARK    1  A    between atoms: C2_3  and  N2_4 
REMARK    2  A    between atoms: N2_4  and  N3_6 
REMARK    3  A    between atoms: C4_16  and  N7_17 
ROOT
HETATM    1  C1  UNL     1      30.683  23.002  37.465  1.00  0.00     0.199 C 
HETATM    2  N1  UNL     1      31.653  23.813  38.187  1.00  0.00    -0.102 N 
HETATM    3  C2  UNL     1      32.612  24.564  37.620  1.00  0.00     0.728 A 
HETATM    4  N4  UNL     1      33.302  25.160  38.601  1.00  0.00    -0.016 N 
ATOM      5  H4  UNL     1      34.092  25.791  38.468  1.00  0.00     0.203 HD
HETATM    6  C3  UNL     1      32.783  24.790  39.808  1.00  0.00     0.736 A 
HETATM    7  N5  UNL     1      33.078  25.078  41.082  1.00  0.00    -0.128 N 
ATOM      8  H5  UNL     1      33.854  25.710  41.278  1.00  0.00     0.205 HD
HETATM    9  N6  UNL     1      32.398  24.570  42.090  1.00  0.00    -0.267 N 
ATOM     10  H6  UNL     1      32.641  24.804  43.053  1.00  0.00     0.189 HD
HETATM   11  C4  UNL     1      31.384  23.741  41.824  1.00  0.00     0.186 A 
HETATM   12  C5  UNL     1      31.073  23.438  40.515  1.00  0.00     0.327 A 
HETATM   13  O1  UNL     1      30.117  22.655  40.218  1.00  0.00    -0.261 OA
HETATM   14  N8  UNL     1      31.768  23.958  39.505  1.00  0.00    -0.026 N 
ENDROOT
BRANCH   3  15
HETATM   15  N2  UNL     1      32.822  24.684  36.361  1.00  0.00    -0.137 N 
ATOM     16  H2  UNL     1      32.043  24.502  35.728  1.00  0.00     0.205 HD
BRANCH  15  17
HETATM   17  N3  UNL     1      34.037  25.046  35.802  1.00  0.00    -0.331 N 
ATOM     18  H32 UNL     1      34.796  24.366  35.873  1.00  0.00     0.177 HD
ATOM     19  H31 UNL     1      34.214  25.934  35.334  1.00  0.00     0.177 HD
ENDBRANCH  15  17
ENDBRANCH   3  15
BRANCH  11  20
HETATM   20  N7  UNL     1      30.709  23.235  42.782  1.00  0.00    -0.380 N 
ATOM     21  H72 UNL     1      30.432  22.254  42.757  1.00  0.00     0.158 HD
ATOM     22  H71 UNL     1      30.445  23.816  43.578  1.00  0.00     0.158 HD
ENDBRANCH  11  20
TORSDOF 3
ENDMDL
MODEL 4
REMARK VINA RESULT: -6.244177102      2.826      5.619
REMARK  3 active torsions:
REMARK  status: ('A' for Active; 'I' for Inactive)
REMARK    1  A    between atoms: C2_3  and  N2_4 
REMARK    2  A    between atoms: N2_4  and  N3_6 
REMARK    3  A    between atoms: C4_16  and  N7_17 
ROOT
HETATM    1  C1  UNL     1      30.414  22.971  41.028  1.00  0.00     0.199 C 
HETATM    2  N1  UNL     1      31.215  23.970  41.721  1.00  0.00    -0.102 N 
HETATM    3  C2  UNL     1      32.336  24.535  41.242  1.00  0.00     0.728 A 
HETATM    4  N4  UNL     1      32.786  25.400  42.161  1.00  0.00    -0.016 N 
ATOM      5  H4  UNL     1      33.623  25.975  42.069  1.00  0.00     0.203 HD
HETATM    6  C3  UNL     1      31.948  25.392  43.239  1.00  0.00     0.736 A 
HETATM    7  N5  UNL     1      31.921  26.043  44.408  1.00  0.00    -0.128 N 
ATOM      8  H5  UNL     1      32.659  26.715  44.616  1.00  0.00     0.205 HD
HETATM    9  N6  UNL     1      30.971  25.842  45.299  1.00  0.00    -0.267 N 
ATOM     10  H6  UNL     1      30.970  26.351  46.183  1.00  0.00     0.189 HD
HETATM   11  C4  UNL     1      30.008  24.958  45.018  1.00  0.00     0.186 A 
HETATM   12  C5  UNL     1      30.028  24.282  43.816  1.00  0.00     0.327 A 
HETATM   13  O1  UNL     1      29.132  23.435  43.510  1.00  0.00    -0.261 OA
HETATM   14  N8  UNL     1      30.994  24.495  42.925  1.00  0.00    -0.026 N 
ENDROOT
BRANCH   3  15
HETATM   15  N2  UNL     1      32.873  24.286  40.105  1.00  0.00    -0.137 N 
ATOM     16  H2  UNL     1      32.300  23.825  39.398  1.00  0.00     0.205 HD
BRANCH  15  17
HETATM   17  N3  UNL     1      34.181  24.600  39.772  1.00  0.00    -0.331 N 
ATOM     18  H32 UNL     1      34.843  24.686  40.544  1.00  0.00     0.177 HD
ATOM     19  H31 UNL     1      34.513  24.746  38.819  1.00  0.00     0.177 HD
ENDBRANCH  15  17
ENDBRANCH   3  15
BRANCH  11  20
HETATM   20  N7  UNL     1      29.075  24.745  45.864  1.00  0.00    -0.380 N 
ATOM     21  H72 UNL     1      29.285  24.322  46.768  1.00  0.00     0.158 HD
ATOM     22  H71 UNL     1      28.114  25.000  45.634  1.00  0.00     0.158 HD
ENDBRANCH  11  20
TORSDOF 3
ENDMDL
MODEL 5
REMARK VINA RESULT: -6.231703754      3.048      5.489
REMARK  3 active torsions:
REMARK  status: ('A' for Active; 'I' for Inactive)
REMARK    1  A    between atoms: C2_3  and  N2_4 
REMARK    2  A    between atoms: N2_4  and  N3_6 
REMARK    3  A    between atoms: C4_16  and  N7_17 
ROOT
HETATM    1  C1  UNL     1      30.023  24.697  40.320  1.00  0.00     0.199 C 
HETATM    2  N1  UNL     1      31.028  25.018  41.323  1.00  0.00    -0.102 N 
HETATM    3  C2  UNL     1      32.347  24.788  41.201  1.00  0.00     0.728 A 
HETATM    4  N4  UNL     1      32.944  25.217  42.321  1.00  0.00    -0.016 N 
ATOM      5  H4  UNL     1      33.945  25.170  42.511  1.00  0.00     0.203 HD
HETATM    6  C3  UNL     1      32.003  25.726  43.169  1.00  0.00     0.736 A 
HETATM    7  N5  UNL     1      32.042  26.274  44.390  1.00  0.00    -0.128 N 
ATOM      8  H5  UNL     1      32.942  26.367  44.861  1.00  0.00     0.205 HD
HETATM    9  N6  UNL     1      30.955  26.696  45.003  1.00  0.00    -0.267 N 
ATOM     10  H6  UNL     1      31.009  27.111  45.933  1.00  0.00     0.189 HD
HETATM   11  C4  UNL     1      29.780  26.568  44.379  1.00  0.00     0.186 A 
HETATM   12  C5  UNL     1      29.729  26.005  43.121  1.00  0.00     0.327 A 
HETATM   13  O1  UNL     1      28.633  25.865  42.493  1.00  0.00    -0.261 OA
HETATM   14  N8  UNL     1      30.836  25.583  42.513  1.00  0.00    -0.026 N 
ENDROOT
BRANCH   3  15
HETATM   15  N2  UNL     1      32.924  24.253  40.188  1.00  0.00    -0.137 N 
ATOM     16  H2  UNL     1      32.413  23.537  39.673  1.00  0.00     0.205 HD
BRANCH  15  17
HETATM   17  N3  UNL     1      34.194  24.584  39.748  1.00  0.00    -0.331 N 
ATOM     18  H32 UNL     1      34.254  25.237  38.966  1.00  0.00     0.177 HD
ATOM     19  H31 UNL     1      35.056  24.219  40.152  1.00  0.00     0.177 HD
ENDBRANCH  15  17
ENDBRANCH   3  15
BRANCH  11  20
HETATM   20  N7  UNL     1      28.710  26.969  44.950  1.00  0.00    -0.380 N 
ATOM     21  H72 UNL     1      28.740  27.735  45.623  1.00  0.00     0.158 HD
ATOM     22  H71 UNL     1      27.820  26.520  44.733  1.00  0.00     0.158 HD
ENDBRANCH  11  20
TORSDOF 3
ENDMDL
