MODEL 1
REMARK VINA RESULT: -6.830996916      0.000      0.000
REMARK  3 active torsions:
REMARK  status: ('A' for Active; 'I' for Inactive)
REMARK       I    between atoms: C1_4  and  N2_5 
REMARK       I    between atoms: C1_4  and  N4_15 
REMARK    1  A    between atoms: N2_5  and  N3_7 
REMARK    2  A    between atoms: C4_11  and  C5_12 
REMARK    3  A    between atoms: N4_15  and  N5_17 
ROOT
HETATM    1  N1  UNL     1      -1.450   9.255  13.959  1.00  0.00    -0.232 N 
ATOM      2  H11 UNL     1      -1.231  10.249  13.891  1.00  0.00     0.174 HD
ATOM      3  H12 UNL     1      -1.975   8.868  14.744  1.00  0.00     0.174 HD
HETATM    4  C1  UNL     1      -1.075   8.422  13.056  1.00  0.00     0.705 C 
HETATM    5  N2  UNL     1      -1.380   7.039  13.151  1.00  0.00    -0.128 N 
ATOM      6  H2  UNL     1      -1.705   6.527  12.331  1.00  0.00     0.206 HD
HETATM    7  N4  UNL     1      -0.335   8.967  11.952  1.00  0.00    -0.123 N 
ATOM      8  H4  UNL     1       0.665   8.780  11.881  1.00  0.00     0.206 HD
ENDROOT
BRANCH   5   9
HETATM    9  N3  UNL     1      -1.236   6.398  14.350  1.00  0.00    -0.267 N 
HETATM   10  C2  UNL     1       0.051   6.116  14.812  1.00  0.00     0.156 C 
HETATM   11  S1  UNL     1      -0.291   5.428  16.483  1.00  0.00    -0.120 SA
HETATM   12  C3  UNL     1      -2.040   5.051  16.160  1.00  0.00     0.118 C 
HETATM   13  C4  UNL     1      -2.256   5.572  14.780  1.00  0.00     0.218 C 
BRANCH  13  14
HETATM   14  C5  UNL     1      -3.540   6.319  14.811  1.00  0.00     0.199 C 
HETATM   15  O1  UNL     1      -4.630   5.853  14.405  1.00  0.00    -0.646 OA
HETATM   16  O2  UNL     1      -3.541   7.607  15.320  1.00  0.00    -0.646 OA
ENDBRANCH  13  14
ENDBRANCH   5   9
BRANCH   7  17
HETATM   17  N5  UNL     1      -0.951   9.744  10.976  1.00  0.00    -0.231 N 
HETATM   18  C6  UNL     1      -2.200   9.629  10.512  1.00  0.00     0.224 A 
HETATM   19  N6  UNL     1      -2.441  10.561   9.567  1.00  0.00    -0.293 N 
HETATM   20  N7  UNL     1      -1.342  11.276   9.424  1.00  0.00    -0.293 N 
ATOM     21  H6  UNL     1      -3.314  10.689   9.056  1.00  0.00     0.187 HD
HETATM   22  C7  UNL     1      -0.413  10.782  10.288  1.00  0.00     0.224 A 
ATOM     23  H7  UNL     1      -1.212  12.057   8.782  1.00  0.00     0.187 HD
ENDBRANCH   7  17
TORSDOF 3
ENDMDL
MODEL 2
REMARK VINA RESULT: -6.757197370      1.150      1.619
REMARK  3 active torsions:
REMARK  status: ('A' for Active; 'I' for Inactive)
REMARK       I    between atoms: C1_4  and  N2_5 
REMARK       I    between atoms: C1_4  and  N4_15 
REMARK    1  A    between atoms: N2_5  and  N3_7 
REMARK    2  A    between atoms: C4_11  and  C5_12 
REMARK    3  A    between atoms: N4_15  and  N5_17 
ROOT
HETATM    1  N1  UNL     1      -0.934   8.999  13.486  1.00  0.00    -0.232 N 
ATOM      2  H11 UNL     1      -0.344   9.706  13.048  1.00  0.00     0.174 HD
ATOM      3  H12 UNL     1      -1.098   8.977  14.493  1.00  0.00     0.174 HD
HETATM    4  C1  UNL     1      -1.511   8.083  12.793  1.00  0.00     0.705 C 
HETATM    5  N2  UNL     1      -2.332   7.099  13.404  1.00  0.00    -0.128 N 
ATOM      6  H2  UNL     1      -3.222   6.839  12.980  1.00  0.00     0.206 HD
HETATM    7  N4  UNL     1      -1.279   8.114  11.376  1.00  0.00    -0.123 N 
ATOM      8  H4  UNL     1      -0.679   7.406  10.954  1.00  0.00     0.206 HD
ENDROOT
BRANCH   5   9
HETATM    9  N3  UNL     1      -1.921   6.503  14.563  1.00  0.00    -0.267 N 
HETATM   10  C2  UNL     1      -0.829   5.634  14.523  1.00  0.00     0.156 C 
HETATM   11  S1  UNL     1      -0.587   5.250  16.305  1.00  0.00    -0.120 SA
HETATM   12  C3  UNL     1      -2.247   5.779  16.822  1.00  0.00     0.118 C 
HETATM   13  C4  UNL     1      -2.851   6.302  15.564  1.00  0.00     0.218 C 
BRANCH  13  14
HETATM   14  C5  UNL     1      -3.508   7.587  15.917  1.00  0.00     0.199 C 
HETATM   15  O1  UNL     1      -2.933   8.700  15.879  1.00  0.00    -0.646 OA
HETATM   16  O2  UNL     1      -4.835   7.561  16.313  1.00  0.00    -0.646 OA
ENDBRANCH  13  14
ENDBRANCH   5   9
BRANCH   7  17
HETATM   17  N5  UNL     1      -1.855   9.087  10.566  1.00  0.00    -0.231 N 
HETATM   18  C6  UNL     1      -1.386  10.312  10.305  1.00  0.00     0.224 A 
HETATM   19  N6  UNL     1      -2.221  10.971   9.475  1.00  0.00    -0.293 N 
HETATM   20  N7  UNL     1      -3.228  10.165   9.202  1.00  0.00    -0.293 N 
ATOM     21  H6  UNL     1      -2.095  11.919   9.122  1.00  0.00     0.187 HD
HETATM   22  C7  UNL     1      -3.016   8.998   9.869  1.00  0.00     0.224 A 
ATOM     23  H7  UNL     1      -4.023  10.379   8.599  1.00  0.00     0.187 HD
ENDBRANCH   7  17
TORSDOF 3
ENDMDL
MODEL 3
REMARK VINA RESULT: -6.750254560      0.615      1.058
REMARK  3 active torsions:
REMARK  status: ('A' for Active; 'I' for Inactive)
REMARK       I    between atoms: C1_4  and  N2_5 
REMARK       I    between atoms: C1_4  and  N4_15 
REMARK    1  A    between atoms: N2_5  and  N3_7 
REMARK    2  A    between atoms: C4_11  and  C5_12 
REMARK    3  A    between atoms: N4_15  and  N5_17 
ROOT
HETATM    1  N1  UNL     1      -0.907   9.038  13.579  1.00  0.00    -0.232 N 
ATOM      2  H11 UNL     1      -0.567  10.000  13.553  1.00  0.00     0.174 HD
ATOM      3  H12 UNL     1      -1.360   8.645  14.405  1.00  0.00     0.174 HD
HETATM    4  C1  UNL     1      -0.784   8.256  12.566  1.00  0.00     0.705 C 
HETATM    5  N2  UNL     1      -1.257   6.918  12.603  1.00  0.00    -0.128 N 
ATOM      6  H2  UNL     1      -1.765   6.531  11.807  1.00  0.00     0.206 HD
HETATM    7  N4  UNL     1      -0.147   8.811  11.405  1.00  0.00    -0.123 N 
ATOM      8  H4  UNL     1       0.797   8.510  11.164  1.00  0.00     0.206 HD
ENDROOT
BRANCH   5   9
HETATM    9  N3  UNL     1      -1.028   6.152  13.711  1.00  0.00    -0.267 N 
HETATM   10  C2  UNL     1       0.265   5.683  13.950  1.00  0.00     0.156 C 
HETATM   11  S1  UNL     1       0.078   4.879  15.593  1.00  0.00    -0.120 SA
HETATM   12  C3  UNL     1      -1.732   4.736  15.510  1.00  0.00     0.118 C 
HETATM   13  C4  UNL     1      -2.073   5.410  14.224  1.00  0.00     0.218 C 
BRANCH  13  14
HETATM   14  C5  UNL     1      -3.235   6.291  14.509  1.00  0.00     0.199 C 
HETATM   15  O1  UNL     1      -4.427   5.968  14.293  1.00  0.00    -0.646 OA
HETATM   16  O2  UNL     1      -2.995   7.544  15.047  1.00  0.00    -0.646 OA
ENDBRANCH  13  14
ENDBRANCH   5   9
BRANCH   7  17
HETATM   17  N5  UNL     1      -0.788   9.747  10.601  1.00  0.00    -0.231 N 
HETATM   18  C6  UNL     1      -0.244  10.807   9.993  1.00  0.00     0.224 A 
HETATM   19  N6  UNL     1      -1.180  11.487   9.299  1.00  0.00    -0.293 N 
HETATM   20  N7  UNL     1      -2.329  10.860   9.462  1.00  0.00    -0.293 N 
ATOM     21  H6  UNL     1      -1.028  12.331   8.748  1.00  0.00     0.187 HD
HETATM   22  C7  UNL     1      -2.102   9.784  10.264  1.00  0.00     0.224 A 
ATOM     23  H7  UNL     1      -3.225  11.133   9.060  1.00  0.00     0.187 HD
ENDBRANCH   7  17
TORSDOF 3
ENDMDL
MODEL 4
REMARK VINA RESULT: -6.731410308      0.476      1.246
REMARK  3 active torsions:
REMARK  status: ('A' for Active; 'I' for Inactive)
REMARK       I    between atoms: C1_4  and  N2_5 
REMARK       I    between atoms: C1_4  and  N4_15 
REMARK    1  A    between atoms: N2_5  and  N3_7 
REMARK    2  A    between atoms: C4_11  and  C5_12 
REMARK    3  A    between atoms: N4_15  and  N5_17 
ROOT
HETATM    1  N1  UNL     1      -1.794   9.219  14.231  1.00  0.00    -0.232 N 
ATOM      2  H11 UNL     1      -1.646  10.221  14.109  1.00  0.00     0.174 HD
ATOM      3  H12 UNL     1      -2.322   8.840  15.017  1.00  0.00     0.174 HD
HETATM    4  C1  UNL     1      -1.320   8.365  13.395  1.00  0.00     0.705 C 
HETATM    5  N2  UNL     1      -1.527   6.971  13.564  1.00  0.00    -0.128 N 
ATOM      6  H2  UNL     1      -1.778   6.388  12.766  1.00  0.00     0.206 HD
HETATM    7  N4  UNL     1      -0.577   8.899  12.288  1.00  0.00    -0.123 N 
ATOM      8  H4  UNL     1       0.436   8.785  12.268  1.00  0.00     0.206 HD
ENDROOT
BRANCH   5   9
HETATM    9  N3  UNL     1      -1.387   6.415  14.805  1.00  0.00    -0.267 N 
HETATM   10  C2  UNL     1      -0.102   6.199  15.305  1.00  0.00     0.156 C 
HETATM   11  S1  UNL     1      -0.454   5.613  17.013  1.00  0.00    -0.120 SA
HETATM   12  C3  UNL     1      -2.186   5.168  16.687  1.00  0.00     0.118 C 
HETATM   13  C4  UNL     1      -2.392   5.592  15.273  1.00  0.00     0.218 C 
BRANCH  13  14
HETATM   14  C5  UNL     1      -3.696   6.304  15.235  1.00  0.00     0.199 C 
HETATM   15  O1  UNL     1      -3.883   7.446  15.716  1.00  0.00    -0.646 OA
HETATM   16  O2  UNL     1      -4.773   5.675  14.633  1.00  0.00    -0.646 OA
ENDBRANCH  13  14
ENDBRANCH   5   9
BRANCH   7  17
HETATM   17  N5  UNL     1      -1.206   9.568  11.244  1.00  0.00    -0.231 N 
HETATM   18  C6  UNL     1      -0.796  10.679  10.623  1.00  0.00     0.224 A 
HETATM   19  N6  UNL     1      -1.670  11.032   9.659  1.00  0.00    -0.293 N 
HETATM   20  N7  UNL     1      -2.645  10.145   9.661  1.00  0.00    -0.293 N 
ATOM     21  H6  UNL     1      -1.591  11.839   9.040  1.00  0.00     0.187 HD
HETATM   22  C7  UNL     1      -2.373   9.235  10.635  1.00  0.00     0.224 A 
ATOM     23  H7  UNL     1      -3.457  10.142   9.044  1.00  0.00     0.187 HD
ENDBRANCH   7  17
TORSDOF 3
ENDMDL
MODEL 5
REMARK VINA RESULT: -6.728370017      3.467      6.035
REMARK  3 active torsions:
REMARK  status: ('A' for Active; 'I' for Inactive)
REMARK       I    between atoms: C1_4  and  N2_5 
REMARK       I    between atoms: C1_4  and  N4_15 
REMARK    1  A    between atoms: N2_5  and  N3_7 
REMARK    2  A    between atoms: C4_11  and  C5_12 
REMARK    3  A    between atoms: N4_15  and  N5_17 
ROOT
HETATM    1  N1  UNL     1      -0.220   8.304  13.867  1.00  0.00    -0.232 N 
ATOM      2  H11 UNL     1       0.185   8.377  14.800  1.00  0.00     0.174 HD
ATOM      3  H12 UNL     1       0.336   8.042  13.052  1.00  0.00     0.174 HD
HETATM    4  C1  UNL     1      -1.466   8.542  13.657  1.00  0.00     0.705 C 
HETATM    5  N2  UNL     1      -2.030   8.441  12.358  1.00  0.00    -0.128 N 
ATOM      6  H2  UNL     1      -2.934   7.988  12.224  1.00  0.00     0.206 HD
HETATM    7  N4  UNL     1      -2.248   8.912  14.803  1.00  0.00    -0.123 N 
ATOM      8  H4  UNL     1      -2.558   9.878  14.904  1.00  0.00     0.206 HD
ENDROOT
BRANCH   5   9
HETATM    9  N3  UNL     1      -1.353   8.956  11.288  1.00  0.00    -0.267 N 
HETATM   10  C2  UNL     1      -1.342  10.340  11.100  1.00  0.00     0.156 C 
HETATM   11  S1  UNL     1      -0.196  10.518   9.673  1.00  0.00    -0.120 SA
HETATM   12  C3  UNL     1      -0.325   8.788   9.131  1.00  0.00     0.118 C 
HETATM   13  C4  UNL     1      -1.201   8.166  10.166  1.00  0.00     0.218 C 
BRANCH  13  14
HETATM   14  C5  UNL     1      -0.564   6.875  10.531  1.00  0.00     0.199 C 
HETATM   15  O1  UNL     1      -0.986   5.756  10.156  1.00  0.00    -0.646 OA
HETATM   16  O2  UNL     1       0.565   6.901  11.333  1.00  0.00    -0.646 OA
ENDBRANCH  13  14
ENDBRANCH   5   9
BRANCH   7  17
HETATM   17  N5  UNL     1      -2.592   7.982  15.779  1.00  0.00    -0.231 N 
HETATM   18  C6  UNL     1      -1.803   7.466  16.727  1.00  0.00     0.224 A 
HETATM   19  N6  UNL     1      -2.491   6.593  17.491  1.00  0.00    -0.293 N 
HETATM   20  N7  UNL     1      -3.726   6.549  17.032  1.00  0.00    -0.293 N 
ATOM     21  H6  UNL     1      -2.122   6.063  18.281  1.00  0.00     0.187 HD
HETATM   22  C7  UNL     1      -3.803   7.401  15.974  1.00  0.00     0.224 A 
ATOM     23  H7  UNL     1      -4.485   5.979  17.403  1.00  0.00     0.187 HD
ENDBRANCH   7  17
TORSDOF 3
ENDMDL
