MODEL 1
REMARK VINA RESULT: -7.058894409      0.000      0.000
REMARK  6 active torsions:
REMARK  status: ('A' for Active; 'I' for Inactive)
REMARK    1  A    between atoms: O1_2  and  N1_3 
REMARK    2  A    between atoms: N1_3  and  C2_5 
REMARK    3  A    between atoms: C3_8  and  N3_9 
REMARK    4  A    between atoms: N3_9  and  N4_11 
REMARK    5  A    between atoms: C4_16  and  N6_17 
REMARK    6  A    between atoms: C9_25  and  N8_26 
ROOT
HETATM    1  C2  UNL     1       0.100   7.632  10.043  1.00  0.00     0.185 C 
HETATM    2  N2  UNL     1      -0.412   8.908  10.009  1.00  0.00    -0.169 N 
ATOM      3  H2  UNL     1      -0.354   9.391   9.113  1.00  0.00     0.186 HD
HETATM    4  C3  UNL     1      -0.984   9.601  11.027  1.00  0.00     0.712 C 
HETATM    5  N5  UNL     1      -1.010   9.301  12.357  1.00  0.00    -0.021 N 
ATOM      6  H5  UNL     1      -1.238  10.050  13.012  1.00  0.00     0.203 HD
HETATM    7  C4  UNL     1      -0.756   8.084  12.859  1.00  0.00     0.696 C 
HETATM    8  N7  UNL     1      -0.101   6.997  12.352  1.00  0.00    -0.173 N 
ATOM      9  H7  UNL     1      -0.127   6.132  12.892  1.00  0.00     0.186 HD
HETATM   10  C9  UNL     1       0.590   6.990  11.160  1.00  0.00     0.161 C 
ENDROOT
BRANCH   7  11
HETATM   11  N6  UNL     1      -1.270   7.874  14.189  1.00  0.00    -0.213 N 
HETATM   12  C5  UNL     1      -0.968   6.681  14.914  1.00  0.00     0.167 C 
HETATM   13  C6  UNL     1      -1.351   6.674  16.349  1.00  0.00     0.188 C 
HETATM   14  O2  UNL     1      -1.750   7.871  16.881  1.00  0.00    -0.388 OA
HETATM   15  C7  UNL     1      -2.710   8.511  16.100  1.00  0.00     0.188 C 
HETATM   16  C8  UNL     1      -2.106   8.885  14.798  1.00  0.00     0.167 C 
ENDBRANCH   7  11
BRANCH   4  17
HETATM   17  N3  UNL     1      -1.591  10.689  10.736  1.00  0.00    -0.138 N 
ATOM     18  H3  UNL     1      -1.714  11.372  11.483  1.00  0.00     0.205 HD
BRANCH  17  19
HETATM   19  N4  UNL     1      -2.090  11.012   9.492  1.00  0.00    -0.331 N 
ATOM     20  H42 UNL     1      -2.484  10.243   8.949  1.00  0.00     0.177 HD
ATOM     21  H41 UNL     1      -2.094  11.946   9.084  1.00  0.00     0.177 HD
ENDBRANCH  17  19
ENDBRANCH   4  17
BRANCH  10  22
HETATM   22  N8  UNL     1       1.715   6.388  11.129  1.00  0.00    -0.382 N 
ATOM     23  H82 UNL     1       2.409   6.714  10.458  1.00  0.00     0.157 HD
ATOM     24  H81 UNL     1       1.902   5.595  11.743  1.00  0.00     0.157 HD
ENDBRANCH  10  22
BRANCH   1  25
HETATM   25  N1  UNL     1       0.129   6.982   8.965  1.00  0.00    -0.247 N 
ATOM     26  H1  UNL     1       0.311   7.512   8.112  1.00  0.00     0.196 HD
BRANCH  25  27
HETATM   27  O1  UNL     1      -0.057   5.650   8.829  1.00  0.00    -0.284 OA
HETATM   28  C1  UNL     1       0.552   4.902   7.804  1.00  0.00     0.237 C 
ENDBRANCH  25  27
ENDBRANCH   1  25
TORSDOF 6
ENDMDL
MODEL 2
REMARK VINA RESULT: -7.008844025      0.298      1.137
REMARK  6 active torsions:
REMARK  status: ('A' for Active; 'I' for Inactive)
REMARK    1  A    between atoms: O1_2  and  N1_3 
REMARK    2  A    between atoms: N1_3  and  C2_5 
REMARK    3  A    between atoms: C3_8  and  N3_9 
REMARK    4  A    between atoms: N3_9  and  N4_11 
REMARK    5  A    between atoms: C4_16  and  N6_17 
REMARK    6  A    between atoms: C9_25  and  N8_26 
ROOT
HETATM    1  C2  UNL     1       0.046   7.673   9.915  1.00  0.00     0.185 C 
HETATM    2  N2  UNL     1      -0.491   8.937   9.862  1.00  0.00    -0.169 N 
ATOM      3  H2  UNL     1      -0.473   9.394   8.950  1.00  0.00     0.186 HD
HETATM    4  C3  UNL     1      -1.041   9.651  10.877  1.00  0.00     0.712 C 
HETATM    5  N5  UNL     1      -1.016   9.392  12.216  1.00  0.00    -0.021 N 
ATOM      6  H5  UNL     1      -1.236  10.156  12.855  1.00  0.00     0.203 HD
HETATM    7  C4  UNL     1      -0.721   8.196  12.745  1.00  0.00     0.696 C 
HETATM    8  N7  UNL     1      -0.064   7.106  12.248  1.00  0.00    -0.173 N 
ATOM      9  H7  UNL     1      -0.054   6.257  12.815  1.00  0.00     0.186 HD
HETATM   10  C9  UNL     1       0.587   7.075  11.034  1.00  0.00     0.161 C 
ENDROOT
BRANCH   7  11
HETATM   11  N6  UNL     1      -1.186   8.018  14.098  1.00  0.00    -0.213 N 
HETATM   12  C5  UNL     1      -1.987   9.013  14.736  1.00  0.00     0.167 C 
HETATM   13  C6  UNL     1      -2.602   8.626  16.031  1.00  0.00     0.188 C 
HETATM   14  O2  UNL     1      -2.521   7.302  16.375  1.00  0.00    -0.388 OA
HETATM   15  C7  UNL     1      -1.230   6.794  16.250  1.00  0.00     0.188 C 
HETATM   16  C8  UNL     1      -0.836   6.815  14.820  1.00  0.00     0.167 C 
ENDBRANCH   7  11
BRANCH   4  17
HETATM   17  N3  UNL     1      -1.679  10.718  10.575  1.00  0.00    -0.138 N 
ATOM     18  H3  UNL     1      -1.908  11.359  11.334  1.00  0.00     0.205 HD
BRANCH  17  19
HETATM   19  N4  UNL     1      -2.080  11.071   9.303  1.00  0.00    -0.331 N 
ATOM     20  H42 UNL     1      -1.400  10.925   8.557  1.00  0.00     0.177 HD
ATOM     21  H41 UNL     1      -2.991  11.460   9.061  1.00  0.00     0.177 HD
ENDBRANCH  17  19
ENDBRANCH   4  17
BRANCH  10  22
HETATM   22  N8  UNL     1       1.721   6.493  10.982  1.00  0.00    -0.382 N 
ATOM     23  H82 UNL     1       1.779   5.612  10.472  1.00  0.00     0.157 HD
ATOM     24  H81 UNL     1       2.536   6.888  11.452  1.00  0.00     0.157 HD
ENDBRANCH  10  22
BRANCH   1  25
HETATM   25  N1  UNL     1       0.051   6.991   8.858  1.00  0.00    -0.247 N 
ATOM     26  H1  UNL     1       0.089   7.506   7.977  1.00  0.00     0.196 HD
BRANCH  25  27
HETATM   27  O1  UNL     1       0.011   5.642   8.775  1.00  0.00    -0.284 OA
HETATM   28  C1  UNL     1       0.573   4.933   7.697  1.00  0.00     0.237 C 
ENDBRANCH  25  27
ENDBRANCH   1  25
TORSDOF 6
ENDMDL
MODEL 3
REMARK VINA RESULT: -6.992389647      2.821      5.220
REMARK  6 active torsions:
REMARK  status: ('A' for Active; 'I' for Inactive)
REMARK    1  A    between atoms: O1_2  and  N1_3 
REMARK    2  A    between atoms: N1_3  and  C2_5 
REMARK    3  A    between atoms: C3_8  and  N3_9 
REMARK    4  A    between atoms: N3_9  and  N4_11 
REMARK    5  A    between atoms: C4_16  and  N6_17 
REMARK    6  A    between atoms: C9_25  and  N8_26 
ROOT
HETATM    1  C2  UNL     1      -1.179  10.038  10.426  1.00  0.00     0.185 C 
HETATM    2  N2  UNL     1      -1.059   9.834  11.780  1.00  0.00    -0.169 N 
ATOM      3  H2  UNL     1      -1.388  10.592  12.379  1.00  0.00     0.186 HD
HETATM    4  C3  UNL     1      -0.556   8.745  12.416  1.00  0.00     0.712 C 
HETATM    5  N5  UNL     1       0.133   7.692  11.892  1.00  0.00    -0.021 N 
ATOM      6  H5  UNL     1       0.669   7.105  12.532  1.00  0.00     0.203 HD
HETATM    7  C4  UNL     1       0.150   7.377  10.588  1.00  0.00     0.696 C 
HETATM    8  N7  UNL     1      -0.134   8.100   9.463  1.00  0.00    -0.173 N 
ATOM      9  H7  UNL     1      -0.150   7.604   8.572  1.00  0.00     0.186 HD
HETATM   10  C9  UNL     1      -0.399   9.452   9.452  1.00  0.00     0.161 C 
ENDROOT
BRANCH   7  11
HETATM   11  N6  UNL     1       0.538   6.017  10.314  1.00  0.00    -0.213 N 
HETATM   12  C5  UNL     1      -0.064   5.283   9.247  1.00  0.00     0.167 C 
HETATM   13  C6  UNL     1       0.572   3.984   8.907  1.00  0.00     0.188 C 
HETATM   14  O2  UNL     1       1.783   3.725   9.494  1.00  0.00    -0.388 OA
HETATM   15  C7  UNL     1       1.769   3.942  10.870  1.00  0.00     0.188 C 
HETATM   16  C8  UNL     1       1.550   5.386  11.131  1.00  0.00     0.167 C 
ENDBRANCH   7  11
BRANCH   4  17
HETATM   17  N3  UNL     1      -0.733   8.662  13.681  1.00  0.00    -0.138 N 
ATOM     18  H3  UNL     1      -0.117   8.039  14.201  1.00  0.00     0.205 HD
BRANCH  17  19
HETATM   19  N4  UNL     1      -1.692   9.349  14.395  1.00  0.00    -0.331 N 
ATOM     20  H42 UNL     1      -1.658  10.367  14.336  1.00  0.00     0.177 HD
ATOM     21  H41 UNL     1      -2.419   8.919  14.967  1.00  0.00     0.177 HD
ENDBRANCH  17  19
ENDBRANCH   4  17
BRANCH  10  22
HETATM   22  N8  UNL     1       0.121  10.151   8.520  1.00  0.00    -0.382 N 
ATOM     23  H82 UNL     1       0.395   9.671   7.664  1.00  0.00     0.157 HD
ATOM     24  H81 UNL     1       0.273  11.153   8.638  1.00  0.00     0.157 HD
ENDBRANCH  10  22
BRANCH   1  25
HETATM   25  N1  UNL     1      -2.075  10.827  10.027  1.00  0.00    -0.247 N 
ATOM     26  H1  UNL     1      -2.305  11.610  10.638  1.00  0.00     0.196 HD
BRANCH  25  27
HETATM   27  O1  UNL     1      -2.761  10.736   8.866  1.00  0.00    -0.284 OA
HETATM   28  C1  UNL     1      -3.600   9.647   8.565  1.00  0.00     0.237 C 
ENDBRANCH  25  27
ENDBRANCH   1  25
TORSDOF 6
ENDMDL
MODEL 4
REMARK VINA RESULT: -6.960320402      2.117      3.682
REMARK  6 active torsions:
REMARK  status: ('A' for Active; 'I' for Inactive)
REMARK    1  A    between atoms: O1_2  and  N1_3 
REMARK    2  A    between atoms: N1_3  and  C2_5 
REMARK    3  A    between atoms: C3_8  and  N3_9 
REMARK    4  A    between atoms: N3_9  and  N4_11 
REMARK    5  A    between atoms: C4_16  and  N6_17 
REMARK    6  A    between atoms: C9_25  and  N8_26 
ROOT
HETATM    1  C2  UNL     1      -0.413   9.063   9.747  1.00  0.00     0.185 C 
HETATM    2  N2  UNL     1      -0.756   7.843   9.214  1.00  0.00    -0.169 N 
ATOM      3  H2  UNL     1      -0.906   7.820   8.205  1.00  0.00     0.186 HD
HETATM    4  C3  UNL     1      -0.920   6.666   9.870  1.00  0.00     0.712 C 
HETATM    5  N5  UNL     1      -0.990   6.438  11.213  1.00  0.00    -0.021 N 
ATOM      6  H5  UNL     1      -1.383   5.550  11.527  1.00  0.00     0.203 HD
HETATM    7  C4  UNL     1      -0.573   7.306  12.146  1.00  0.00     0.696 C 
HETATM    8  N7  UNL     1      -0.345   8.653  12.114  1.00  0.00    -0.173 N 
ATOM      9  H7  UNL     1       0.075   9.084  12.938  1.00  0.00     0.186 HD
HETATM   10  C9  UNL     1      -0.644   9.469  11.044  1.00  0.00     0.161 C 
ENDROOT
BRANCH   7  11
HETATM   11  N6  UNL     1      -0.313   6.711  13.433  1.00  0.00    -0.213 N 
HETATM   12  C5  UNL     1       0.524   5.560  13.553  1.00  0.00     0.167 C 
HETATM   13  C6  UNL     1       0.911   5.176  14.935  1.00  0.00     0.188 C 
HETATM   14  O2  UNL     1       0.612   6.073  15.926  1.00  0.00    -0.388 OA
HETATM   15  C7  UNL     1      -0.709   6.513  15.869  1.00  0.00     0.188 C 
HETATM   16  C8  UNL     1      -0.910   7.285  14.618  1.00  0.00     0.167 C 
ENDBRANCH   7  11
BRANCH   4  17
HETATM   17  N3  UNL     1      -1.026   5.603   9.165  1.00  0.00    -0.138 N 
ATOM     18  H3  UNL     1      -1.777   4.955   9.403  1.00  0.00     0.205 HD
BRANCH  17  19
HETATM   19  N4  UNL     1      -0.206   5.266   8.109  1.00  0.00    -0.331 N 
ATOM     20  H42 UNL     1       0.724   5.684   8.106  1.00  0.00     0.177 HD
ATOM     21  H41 UNL     1      -0.460   4.640   7.345  1.00  0.00     0.177 HD
ENDBRANCH  17  19
ENDBRANCH   4  17
BRANCH  10  22
HETATM   22  N8  UNL     1      -1.164  10.607  11.292  1.00  0.00    -0.382 N 
ATOM     23  H82 UNL     1      -0.912  11.386  10.686  1.00  0.00     0.157 HD
ATOM     24  H81 UNL     1      -1.797  10.733  12.083  1.00  0.00     0.157 HD
ENDBRANCH  10  22
BRANCH   1  25
HETATM   25  N1  UNL     1       0.162   9.892   8.995  1.00  0.00    -0.247 N 
ATOM     26  H1  UNL     1       1.182   9.879   8.987  1.00  0.00     0.196 HD
BRANCH  25  27
HETATM   27  O1  UNL     1      -0.442  10.800   8.195  1.00  0.00    -0.284 OA
HETATM   28  C1  UNL     1      -0.249  12.186   8.344  1.00  0.00     0.237 C 
ENDBRANCH  25  27
ENDBRANCH   1  25
TORSDOF 6
ENDMDL
MODEL 5
REMARK VINA RESULT: -6.950085904      2.371      6.055
REMARK  6 active torsions:
REMARK  status: ('A' for Active; 'I' for Inactive)
REMARK    1  A    between atoms: O1_2  and  N1_3 
REMARK    2  A    between atoms: N1_3  and  C2_5 
REMARK    3  A    between atoms: C3_8  and  N3_9 
REMARK    4  A    between atoms: N3_9  and  N4_11 
REMARK    5  A    between atoms: C4_16  and  N6_17 
REMARK    6  A    between atoms: C9_25  and  N8_26 
ROOT
HETATM    1  C2  UNL     1      -0.990   7.552  13.595  1.00  0.00     0.185 C 
HETATM    2  N2  UNL     1       0.091   6.899  13.052  1.00  0.00    -0.169 N 
ATOM      3  H2  UNL     1       0.443   6.099  13.578  1.00  0.00     0.186 HD
HETATM    4  C3  UNL     1       0.747   7.193  11.900  1.00  0.00     0.712 C 
HETATM    5  N5  UNL     1       0.640   8.302  11.113  1.00  0.00    -0.021 N 
ATOM      6  H5  UNL     1       1.387   8.487  10.444  1.00  0.00     0.203 HD
HETATM    7  C4  UNL     1      -0.387   9.163  11.163  1.00  0.00     0.696 C 
HETATM    8  N7  UNL     1      -1.326   9.421  12.122  1.00  0.00    -0.173 N 
ATOM      9  H7  UNL     1      -2.083  10.062  11.885  1.00  0.00     0.186 HD
HETATM   10  C9  UNL     1      -1.319   8.875  13.387  1.00  0.00     0.161 C 
ENDROOT
BRANCH   7  11
HETATM   11  N6  UNL     1      -0.535   9.974   9.982  1.00  0.00    -0.213 N 
HETATM   12  C5  UNL     1       0.086  11.257   9.889  1.00  0.00     0.167 C 
HETATM   13  C6  UNL     1       0.064  11.899   8.550  1.00  0.00     0.188 C 
HETATM   14  O2  UNL     1      -0.350  11.116   7.504  1.00  0.00    -0.388 OA
HETATM   15  C7  UNL     1      -1.545  10.452   7.772  1.00  0.00     0.188 C 
HETATM   16  C8  UNL     1      -1.326   9.484   8.875  1.00  0.00     0.167 C 
ENDBRANCH   7  11
BRANCH   4  17
HETATM   17  N3  UNL     1       1.588   6.334  11.461  1.00  0.00    -0.138 N 
ATOM     18  H3  UNL     1       2.092   6.565  10.605  1.00  0.00     0.205 HD
BRANCH  17  19
HETATM   19  N4  UNL     1       1.868   5.121  12.054  1.00  0.00    -0.331 N 
ATOM     20  H42 UNL     1       1.784   4.296  11.459  1.00  0.00     0.177 HD
ATOM     21  H41 UNL     1       2.147   4.993  13.026  1.00  0.00     0.177 HD
ENDBRANCH  17  19
ENDBRANCH   4  17
BRANCH  10  22
HETATM   22  N8  UNL     1      -1.606   9.640  14.366  1.00  0.00    -0.382 N 
ATOM     23  H82 UNL     1      -2.508  10.115  14.348  1.00  0.00     0.157 HD
ATOM     24  H81 UNL     1      -0.946   9.785  15.131  1.00  0.00     0.157 HD
ENDBRANCH  10  22
BRANCH   1  25
HETATM   25  N1  UNL     1      -1.754   6.897  14.351  1.00  0.00    -0.247 N 
ATOM     26  H1  UNL     1      -1.320   6.184  14.939  1.00  0.00     0.196 HD
BRANCH  25  27
HETATM   27  O1  UNL     1      -3.093   7.045  14.458  1.00  0.00    -0.284 OA
HETATM   28  C1  UNL     1      -3.979   5.953  14.436  1.00  0.00     0.237 C 
ENDBRANCH  25  27
ENDBRANCH   1  25
TORSDOF 6
ENDMDL
