MODEL 1
REMARK VINA RESULT: -6.962378032      0.000      0.000
REMARK  10 active torsions:
REMARK  status: ('A' for Active; 'I' for Inactive)
REMARK    1  A    between atoms: N1_1  and  C1_5 
REMARK    2  A    between atoms: C1_5  and  C2_6 
REMARK    3  A    between atoms: C2_6  and  C3_7 
REMARK    4  A    between atoms: C3_7  and  C5_17 
REMARK    5  A    between atoms: N2_8  and  N3_10 
REMARK    6  A    between atoms: N3_10  and  C4_12 
REMARK    7  A    between atoms: C4_12  and  N4_14 
REMARK    8  A    between atoms: N5_21  and  C9_22 
REMARK    9  A    between atoms: C9_22  and  O3_23 
REMARK   10  A    between atoms: N6_25  and  C10_27 
ROOT
HETATM    1  C5  UNL     1       6.815   8.657  21.781  1.00  0.00     0.023 A 
HETATM    2  C6  UNL     1       5.703   8.240  22.528  1.00  0.00     0.017 A 
HETATM    3  C7  UNL     1       5.033   7.065  22.261  1.00  0.00     0.019 A 
HETATM    4  C8  UNL     1       5.456   6.271  21.240  1.00  0.00     0.101 A 
HETATM    5  N5  UNL     1       6.525   6.661  20.517  1.00  0.00    -0.281 N 
HETATM    6  C16 UNL     1       7.197   7.826  20.775  1.00  0.00     0.101 A 
HETATM    7 BR1  UNL     1       8.742   8.138  19.703  1.00  0.00    -0.030 Br
ENDROOT
BRANCH   1   8
HETATM    8  C3  UNL     1       7.374   9.940  22.111  1.00  0.00     0.040 C 
HETATM    9  N2  UNL     1       7.114  10.967  21.309  1.00  0.00    -0.302 N 
ATOM     10  H2  UNL     1       6.462  10.818  20.538  1.00  0.00     0.186 HD
BRANCH   8  11
HETATM   11  C2  UNL     1       8.330  10.280  23.185  1.00  0.00     0.086 C 
BRANCH  11  12
HETATM   12  C1  UNL     1       9.375   9.185  23.246  1.00  0.00     0.235 C 
BRANCH  12  13
HETATM   13  N1  UNL     1      10.689   9.635  22.838  1.00  0.00    -0.079 N 
ATOM     14  H13 UNL     1      11.288   8.844  22.602  1.00  0.00     0.274 HD
ATOM     15  H12 UNL     1      10.652  10.092  21.927  1.00  0.00     0.274 HD
ATOM     16  H11 UNL     1      11.136  10.236  23.530  1.00  0.00     0.274 HD
ENDBRANCH  12  13
ENDBRANCH  11  12
ENDBRANCH   8  11
BRANCH   9  17
HETATM   17  N3  UNL     1       7.668  12.217  21.452  1.00  0.00    -0.271 N 
ATOM     18  H3  UNL     1       8.052  12.466  22.363  1.00  0.00     0.189 HD
BRANCH  17  19
HETATM   19  C4  UNL     1       7.742  13.182  20.417  1.00  0.00     0.257 C 
HETATM   20  S1  UNL     1       7.163  14.689  20.643  1.00  0.00    -0.033 SA
BRANCH  19  21
HETATM   21  N4  UNL     1       8.318  12.851  19.180  1.00  0.00    -0.085 N 
HETATM   22  O1  UNL     1       9.166  13.584  18.649  1.00  0.00    -0.530 OA
HETATM   23  O2  UNL     1       7.937  11.700  18.547  1.00  0.00    -0.530 OA
ENDBRANCH  19  21
ENDBRANCH  17  19
ENDBRANCH   9  17
ENDBRANCH   1   8
BRANCH   5  24
HETATM   24  C9  UNL     1       6.954   5.828  19.459  1.00  0.00     0.229 C 
HETATM   25  N6  UNL     1       7.524   4.685  19.654  1.00  0.00    -0.322 N 
ATOM     26  H6  UNL     1       7.672   4.368  20.612  1.00  0.00     0.169 HD
BRANCH  24  27
HETATM   27  O3  UNL     1       6.771   6.228  18.142  1.00  0.00    -0.332 OA
ATOM     28  H3  UNL     1       7.521   6.340  17.570  1.00  0.00     0.221 HD
ENDBRANCH  24  27
BRANCH  25  29
HETATM   29  C10 UNL     1       7.953   3.853  18.588  1.00  0.00     0.036 A 
HETATM   30  C11 UNL     1       9.301   3.752  18.266  1.00  0.00     0.029 A 
HETATM   31  C12 UNL     1       9.750   2.952  17.236  1.00  0.00     0.004 A 
HETATM   32  C13 UNL     1       8.840   2.215  16.482  1.00  0.00     0.019 A 
HETATM   33  C14 UNL     1       7.499   2.307  16.792  1.00  0.00     0.014 A 
HETATM   34  S2  UNL     1       6.354   1.338  15.792  1.00  0.00    -0.052 SA
HETATM   35  C15 UNL     1       7.076   3.112  17.823  1.00  0.00     0.049 A 
ENDBRANCH  25  29
ENDBRANCH   5  24
TORSDOF 10
ENDMDL
MODEL 2
REMARK VINA RESULT: -6.953584407      2.695      3.417
REMARK  10 active torsions:
REMARK  status: ('A' for Active; 'I' for Inactive)
REMARK    1  A    between atoms: N1_1  and  C1_5 
REMARK    2  A    between atoms: C1_5  and  C2_6 
REMARK    3  A    between atoms: C2_6  and  C3_7 
REMARK    4  A    between atoms: C3_7  and  C5_17 
REMARK    5  A    between atoms: N2_8  and  N3_10 
REMARK    6  A    between atoms: N3_10  and  C4_12 
REMARK    7  A    between atoms: C4_12  and  N4_14 
REMARK    8  A    between atoms: N5_21  and  C9_22 
REMARK    9  A    between atoms: C9_22  and  O3_23 
REMARK   10  A    between atoms: N6_25  and  C10_27 
ROOT
HETATM    1  C5  UNL     1       5.655   7.314  22.159  1.00  0.00     0.023 A 
HETATM    2  C6  UNL     1       4.294   7.128  22.445  1.00  0.00     0.017 A 
HETATM    3  C7  UNL     1       3.513   6.221  21.760  1.00  0.00     0.019 A 
HETATM    4  C8  UNL     1       4.071   5.472  20.770  1.00  0.00     0.101 A 
HETATM    5  N5  UNL     1       5.379   5.641  20.488  1.00  0.00    -0.281 N 
HETATM    6  C16 UNL     1       6.162   6.540  21.164  1.00  0.00     0.101 A 
HETATM    7 BR1  UNL     1       8.006   6.548  20.680  1.00  0.00    -0.030 Br
ENDROOT
BRANCH   1   8
HETATM    8  C3  UNL     1       6.337   8.345  22.893  1.00  0.00     0.040 C 
HETATM    9  N2  UNL     1       7.251   7.984  23.788  1.00  0.00    -0.302 N 
ATOM     10  H2  UNL     1       7.486   6.994  23.857  1.00  0.00     0.186 HD
BRANCH   8  11
HETATM   11  C2  UNL     1       6.084   9.801  22.888  1.00  0.00     0.086 C 
BRANCH  11  12
HETATM   12  C1  UNL     1       6.581  10.359  21.570  1.00  0.00     0.235 C 
BRANCH  12  13
HETATM   13  N1  UNL     1       7.711  11.251  21.724  1.00  0.00    -0.079 N 
ATOM     14  H13 UNL     1       7.767  11.905  20.944  1.00  0.00     0.274 HD
ATOM     15  H12 UNL     1       7.552  11.912  22.485  1.00  0.00     0.274 HD
ATOM     16  H11 UNL     1       8.594  10.756  21.850  1.00  0.00     0.274 HD
ENDBRANCH  12  13
ENDBRANCH  11  12
ENDBRANCH   8  11
BRANCH   9  17
HETATM   17  N3  UNL     1       7.898   8.861  24.626  1.00  0.00    -0.271 N 
ATOM     18  H3  UNL     1       7.326   9.471  25.210  1.00  0.00     0.189 HD
BRANCH  17  19
HETATM   19  C4  UNL     1       9.306   8.974  24.732  1.00  0.00     0.257 C 
HETATM   20  S1  UNL     1      10.097   8.340  26.010  1.00  0.00    -0.033 SA
BRANCH  19  21
HETATM   21  N4  UNL     1      10.041   9.635  23.735  1.00  0.00    -0.085 N 
HETATM   22  O1  UNL     1      10.902  10.480  24.026  1.00  0.00    -0.530 OA
HETATM   23  O2  UNL     1       9.805   9.344  22.420  1.00  0.00    -0.530 OA
ENDBRANCH  19  21
ENDBRANCH  17  19
ENDBRANCH   9  17
ENDBRANCH   1   8
BRANCH   5  24
HETATM   24  C9  UNL     1       5.945   4.859  19.457  1.00  0.00     0.229 C 
HETATM   25  N6  UNL     1       6.332   3.639  19.634  1.00  0.00    -0.322 N 
ATOM     26  H6  UNL     1       6.225   3.221  20.559  1.00  0.00     0.169 HD
BRANCH  24  27
HETATM   27  O3  UNL     1       6.108   5.396  18.187  1.00  0.00    -0.332 OA
ATOM     28  H3  UNL     1       6.948   5.335  17.748  1.00  0.00     0.221 HD
ENDBRANCH  24  27
BRANCH  25  29
HETATM   29  C10 UNL     1       6.901   2.858  18.596  1.00  0.00     0.036 A 
HETATM   30  C11 UNL     1       8.220   2.427  18.674  1.00  0.00     0.029 A 
HETATM   31  C12 UNL     1       8.801   1.667  17.681  1.00  0.00     0.004 A 
HETATM   32  C13 UNL     1       8.061   1.309  16.556  1.00  0.00     0.019 A 
HETATM   33  C14 UNL     1       6.751   1.731  16.468  1.00  0.00     0.014 A 
HETATM   34  S2  UNL     1       5.828   1.247  14.997  1.00  0.00    -0.052 SA
HETATM   35  C15 UNL     1       6.194   2.489  17.470  1.00  0.00     0.049 A 
ENDBRANCH  25  29
ENDBRANCH   5  24
TORSDOF 10
ENDMDL
MODEL 3
REMARK VINA RESULT: -6.864990696      2.818      3.634
REMARK  10 active torsions:
REMARK  status: ('A' for Active; 'I' for Inactive)
REMARK    1  A    between atoms: N1_1  and  C1_5 
REMARK    2  A    between atoms: C1_5  and  C2_6 
REMARK    3  A    between atoms: C2_6  and  C3_7 
REMARK    4  A    between atoms: C3_7  and  C5_17 
REMARK    5  A    between atoms: N2_8  and  N3_10 
REMARK    6  A    between atoms: N3_10  and  C4_12 
REMARK    7  A    between atoms: C4_12  and  N4_14 
REMARK    8  A    between atoms: N5_21  and  C9_22 
REMARK    9  A    between atoms: C9_22  and  O3_23 
REMARK   10  A    between atoms: N6_25  and  C10_27 
ROOT
HETATM    1  C5  UNL     1       5.536   7.455  22.118  1.00  0.00     0.023 A 
HETATM    2  C6  UNL     1       4.162   7.344  22.381  1.00  0.00     0.017 A 
HETATM    3  C7  UNL     1       3.342   6.490  21.674  1.00  0.00     0.019 A 
HETATM    4  C8  UNL     1       3.872   5.720  20.685  1.00  0.00     0.101 A 
HETATM    5  N5  UNL     1       5.192   5.817  20.425  1.00  0.00    -0.281 N 
HETATM    6  C16 UNL     1       6.014   6.663  21.123  1.00  0.00     0.101 A 
HETATM    7 BR1  UNL     1       7.863   6.571  20.668  1.00  0.00    -0.030 Br
ENDROOT
BRANCH   1   8
HETATM    8  C3  UNL     1       6.263   8.439  22.873  1.00  0.00     0.040 C 
HETATM    9  N2  UNL     1       7.144   8.018  23.774  1.00  0.00    -0.302 N 
ATOM     10  H2  UNL     1       7.325   7.016  23.833  1.00  0.00     0.186 HD
BRANCH   8  11
HETATM   11  C2  UNL     1       6.089   9.907  22.884  1.00  0.00     0.086 C 
BRANCH  11  12
HETATM   12  C1  UNL     1       6.583  10.447  21.558  1.00  0.00     0.235 C 
BRANCH  12  13
HETATM   13  N1  UNL     1       7.735  11.313  21.695  1.00  0.00    -0.079 N 
ATOM     14  H13 UNL     1       7.449  12.282  21.832  1.00  0.00     0.274 HD
ATOM     15  H12 UNL     1       8.208  11.153  22.585  1.00  0.00     0.274 HD
ATOM     16  H11 UNL     1       8.389  11.232  20.916  1.00  0.00     0.274 HD
ENDBRANCH  12  13
ENDBRANCH  11  12
ENDBRANCH   8  11
BRANCH   9  17
HETATM   17  N3  UNL     1       7.827   8.848  24.631  1.00  0.00    -0.271 N 
ATOM     18  H3  UNL     1       7.281   9.452  25.246  1.00  0.00     0.189 HD
BRANCH  17  19
HETATM   19  C4  UNL     1       9.240   8.921  24.718  1.00  0.00     0.257 C 
HETATM   20  S1  UNL     1      10.032   8.236  25.967  1.00  0.00    -0.033 SA
BRANCH  19  21
HETATM   21  N4  UNL     1       9.976   9.587  23.725  1.00  0.00    -0.085 N 
HETATM   22  O1  UNL     1      10.837  10.431  24.021  1.00  0.00    -0.530 OA
HETATM   23  O2  UNL     1       9.742   9.303  22.408  1.00  0.00    -0.530 OA
ENDBRANCH  19  21
ENDBRANCH  17  19
ENDBRANCH   9  17
ENDBRANCH   1   8
BRANCH   5  24
HETATM   24  C9  UNL     1       5.730   5.014  19.395  1.00  0.00     0.229 C 
HETATM   25  N6  UNL     1       6.012   3.763  19.556  1.00  0.00    -0.322 N 
ATOM     26  H6  UNL     1       5.839   3.336  20.466  1.00  0.00     0.169 HD
BRANCH  24  27
HETATM   27  O3  UNL     1       5.979   5.563  18.144  1.00  0.00    -0.332 OA
ATOM     28  H3  UNL     1       5.267   5.934  17.637  1.00  0.00     0.221 HD
ENDBRANCH  24  27
BRANCH  25  29
HETATM   29  C10 UNL     1       6.552   2.961  18.518  1.00  0.00     0.036 A 
HETATM   30  C11 UNL     1       5.784   2.623  17.411  1.00  0.00     0.029 A 
HETATM   31  C12 UNL     1       6.280   1.845  16.386  1.00  0.00     0.004 A 
HETATM   32  C13 UNL     1       7.589   1.373  16.443  1.00  0.00     0.019 A 
HETATM   33  C14 UNL     1       8.361   1.701  17.538  1.00  0.00     0.014 A 
HETATM   34  S2  UNL     1      10.049   1.070  17.574  1.00  0.00    -0.052 SA
HETATM   35  C15 UNL     1       7.844   2.478  18.547  1.00  0.00     0.049 A 
ENDBRANCH  25  29
ENDBRANCH   5  24
TORSDOF 10
ENDMDL
MODEL 4
REMARK VINA RESULT: -6.796769528      1.012      1.204
REMARK  10 active torsions:
REMARK  status: ('A' for Active; 'I' for Inactive)
REMARK    1  A    between atoms: N1_1  and  C1_5 
REMARK    2  A    between atoms: C1_5  and  C2_6 
REMARK    3  A    between atoms: C2_6  and  C3_7 
REMARK    4  A    between atoms: C3_7  and  C5_17 
REMARK    5  A    between atoms: N2_8  and  N3_10 
REMARK    6  A    between atoms: N3_10  and  C4_12 
REMARK    7  A    between atoms: C4_12  and  N4_14 
REMARK    8  A    between atoms: N5_21  and  C9_22 
REMARK    9  A    between atoms: C9_22  and  O3_23 
REMARK   10  A    between atoms: N6_25  and  C10_27 
ROOT
HETATM    1  C5  UNL     1       6.102   7.804  21.745  1.00  0.00     0.023 A 
HETATM    2  C6  UNL     1       5.059   7.268  22.515  1.00  0.00     0.017 A 
HETATM    3  C7  UNL     1       4.523   6.023  22.267  1.00  0.00     0.019 A 
HETATM    4  C8  UNL     1       5.015   5.275  21.242  1.00  0.00     0.101 A 
HETATM    5  N5  UNL     1       6.019   5.779  20.496  1.00  0.00    -0.281 N 
HETATM    6  C16 UNL     1       6.558   7.015  20.736  1.00  0.00     0.101 A 
HETATM    7 BR1  UNL     1       8.037   7.494  19.633  1.00  0.00    -0.030 Br
ENDROOT
BRANCH   1   8
HETATM    8  C3  UNL     1       6.517   9.144  22.058  1.00  0.00     0.040 C 
HETATM    9  N2  UNL     1       6.116  10.131  21.263  1.00  0.00    -0.302 N 
ATOM     10  H2  UNL     1       5.464   9.904  20.512  1.00  0.00     0.186 HD
BRANCH   8  11
HETATM   11  C2  UNL     1       7.457   9.598  23.104  1.00  0.00     0.086 C 
BRANCH  11  12
HETATM   12  C1  UNL     1       8.717   8.763  22.994  1.00  0.00     0.235 C 
BRANCH  12  13
HETATM   13  N1  UNL     1       9.798   9.456  22.327  1.00  0.00    -0.079 N 
ATOM     14  H13 UNL     1      10.659   8.912  22.365  1.00  0.00     0.274 HD
ATOM     15  H12 UNL     1       9.655   9.469  21.317  1.00  0.00     0.274 HD
ATOM     16  H11 UNL     1       9.948  10.400  22.685  1.00  0.00     0.274 HD
ENDBRANCH  12  13
ENDBRANCH  11  12
ENDBRANCH   8  11
BRANCH   9  17
HETATM   17  N3  UNL     1       6.524  11.438  21.389  1.00  0.00    -0.271 N 
ATOM     18  H3  UNL     1       6.470  11.866  22.313  1.00  0.00     0.189 HD
BRANCH  17  19
HETATM   19  C4  UNL     1       7.016  12.228  20.321  1.00  0.00     0.257 C 
HETATM   20  S1  UNL     1       6.059  13.329  19.593  1.00  0.00    -0.033 SA
BRANCH  19  21
HETATM   21  N4  UNL     1       8.338  12.073  19.876  1.00  0.00    -0.085 N 
HETATM   22  O1  UNL     1       8.932  10.989  19.993  1.00  0.00    -0.530 OA
HETATM   23  O2  UNL     1       8.985  13.132  19.302  1.00  0.00    -0.530 OA
ENDBRANCH  19  21
ENDBRANCH  17  19
ENDBRANCH   9  17
ENDBRANCH   1   8
BRANCH   5  24
HETATM   24  C9  UNL     1       6.520   4.994  19.435  1.00  0.00     0.229 C 
HETATM   25  N6  UNL     1       7.283   3.967  19.621  1.00  0.00    -0.322 N 
ATOM     26  H6  UNL     1       7.536   3.712  20.576  1.00  0.00     0.169 HD
BRANCH  24  27
HETATM   27  O3  UNL     1       6.198   5.312  18.122  1.00  0.00    -0.332 OA
ATOM     28  H3  UNL     1       6.717   5.950  17.647  1.00  0.00     0.221 HD
ENDBRANCH  24  27
BRANCH  25  29
HETATM   29  C10 UNL     1       7.784   3.182  18.551  1.00  0.00     0.036 A 
HETATM   30  C11 UNL     1       9.152   3.054  18.346  1.00  0.00     0.029 A 
HETATM   31  C12 UNL     1       9.670   2.298  17.315  1.00  0.00     0.004 A 
HETATM   32  C13 UNL     1       8.813   1.635  16.441  1.00  0.00     0.019 A 
HETATM   33  C14 UNL     1       7.452   1.754  16.634  1.00  0.00     0.014 A 
HETATM   34  S2  UNL     1       6.377   0.880  15.481  1.00  0.00    -0.052 SA
HETATM   35  C15 UNL     1       6.960   2.514  17.669  1.00  0.00     0.049 A 
ENDBRANCH  25  29
ENDBRANCH   5  24
TORSDOF 10
ENDMDL
MODEL 5
REMARK VINA RESULT: -6.744277456      4.294      5.255
REMARK  10 active torsions:
REMARK  status: ('A' for Active; 'I' for Inactive)
REMARK    1  A    between atoms: N1_1  and  C1_5 
REMARK    2  A    between atoms: C1_5  and  C2_6 
REMARK    3  A    between atoms: C2_6  and  C3_7 
REMARK    4  A    between atoms: C3_7  and  C5_17 
REMARK    5  A    between atoms: N2_8  and  N3_10 
REMARK    6  A    between atoms: N3_10  and  C4_12 
REMARK    7  A    between atoms: C4_12  and  N4_14 
REMARK    8  A    between atoms: N5_21  and  C9_22 
REMARK    9  A    between atoms: C9_22  and  O3_23 
REMARK   10  A    between atoms: N6_25  and  C10_27 
ROOT
HETATM    1  C5  UNL     1       5.112   9.088  22.233  1.00  0.00     0.023 A 
HETATM    2  C6  UNL     1       5.612  10.215  21.564  1.00  0.00     0.017 A 
HETATM    3  C7  UNL     1       6.325  10.118  20.388  1.00  0.00     0.019 A 
HETATM    4  C8  UNL     1       6.559   8.891  19.847  1.00  0.00     0.101 A 
HETATM    5  N5  UNL     1       6.082   7.801  20.482  1.00  0.00    -0.281 N 
HETATM    6  C16 UNL     1       5.371   7.889  21.650  1.00  0.00     0.101 A 
HETATM    7 BR1  UNL     1       4.699   6.238  22.327  1.00  0.00    -0.030 Br
ENDROOT
BRANCH   1   8
HETATM    8  C3  UNL     1       4.453   9.320  23.490  1.00  0.00     0.040 C 
HETATM    9  N2  UNL     1       3.201   9.766  23.473  1.00  0.00    -0.302 N 
ATOM     10  H2  UNL     1       2.735   9.846  22.568  1.00  0.00     0.186 HD
BRANCH   8  11
HETATM   11  C2  UNL     1       5.016   9.249  24.854  1.00  0.00     0.086 C 
BRANCH  11  12
HETATM   12  C1  UNL     1       6.510   9.027  24.733  1.00  0.00     0.235 C 
BRANCH  12  13
HETATM   13  N1  UNL     1       6.897   7.652  24.968  1.00  0.00    -0.079 N 
ATOM     14  H13 UNL     1       6.213   7.175  25.554  1.00  0.00     0.274 HD
ATOM     15  H12 UNL     1       6.803   7.096  24.118  1.00  0.00     0.274 HD
ATOM     16  H11 UNL     1       7.835   7.564  25.358  1.00  0.00     0.274 HD
ENDBRANCH  12  13
ENDBRANCH  11  12
ENDBRANCH   8  11
BRANCH   9  17
HETATM   17  N3  UNL     1       2.494  10.126  24.596  1.00  0.00    -0.271 N 
ATOM     18  H3  UNL     1       2.918  10.805  25.228  1.00  0.00     0.189 HD
BRANCH  17  19
HETATM   19  C4  UNL     1       1.217   9.615  24.935  1.00  0.00     0.257 C 
HETATM   20  S1  UNL     1      -0.101  10.575  24.888  1.00  0.00    -0.033 SA
BRANCH  19  21
HETATM   21  N4  UNL     1       1.069   8.272  25.316  1.00  0.00    -0.085 N 
HETATM   22  O1  UNL     1       2.043   7.504  25.350  1.00  0.00    -0.530 OA
HETATM   23  O2  UNL     1      -0.168   7.801  25.657  1.00  0.00    -0.530 OA
ENDBRANCH  19  21
ENDBRANCH  17  19
ENDBRANCH   9  17
ENDBRANCH   1   8
BRANCH   5  24
HETATM   24  C9  UNL     1       6.332   6.533  19.911  1.00  0.00     0.229 C 
HETATM   25  N6  UNL     1       7.398   5.848  20.163  1.00  0.00    -0.322 N 
ATOM     26  H6  UNL     1       8.091   6.239  20.802  1.00  0.00     0.169 HD
BRANCH  24  27
HETATM   27  O3  UNL     1       5.411   5.972  19.036  1.00  0.00    -0.332 OA
ATOM     28  H3  UNL     1       5.699   5.351  18.377  1.00  0.00     0.221 HD
ENDBRANCH  24  27
BRANCH  25  29
HETATM   29  C10 UNL     1       7.644   4.576  19.587  1.00  0.00     0.036 A 
HETATM   30  C11 UNL     1       7.319   3.412  20.273  1.00  0.00     0.029 A 
HETATM   31  C12 UNL     1       7.546   2.161  19.740  1.00  0.00     0.004 A 
HETATM   32  C13 UNL     1       8.118   2.037  18.476  1.00  0.00     0.019 A 
HETATM   33  C14 UNL     1       8.445   3.185  17.785  1.00  0.00     0.014 A 
HETATM   34  S2  UNL     1       9.184   2.982  16.153  1.00  0.00    -0.052 SA
HETATM   35  C15 UNL     1       8.210   4.421  18.338  1.00  0.00     0.049 A 
ENDBRANCH  25  29
ENDBRANCH   5  24
TORSDOF 10
ENDMDL
