MODEL 1
REMARK VINA RESULT: -7.701025920      0.000      0.000
REMARK  11 active torsions:
REMARK  status: ('A' for Active; 'I' for Inactive)
REMARK    1  A    between atoms: O1_2  and  C2_3 
REMARK    2  A    between atoms: C2_3  and  C3_5 
REMARK    3  A    between atoms: C4_6  and  C5_7 
REMARK    4  A    between atoms: C5_7  and  C6_8 
REMARK    5  A    between atoms: C6_8  and  N1_9 
REMARK    6  A    between atoms: N2_12  and  O3_13 
REMARK    7  A    between atoms: N3_18  and  C11_20 
REMARK    8  A    between atoms: C11_20  and  C12_21 
REMARK    9  A    between atoms: N4_26  and  O4_27 
REMARK   10  A    between atoms: C19_31  and  O5_32 
REMARK   11  A    between atoms: C20_34  and  O6_35 
ROOT
HETATM    1  C5  UNL     1       6.480   8.155  22.709  1.00  0.00     0.059 C 
HETATM    2  N3  UNL     1       6.032   7.172  22.249  1.00  0.00    -0.362 N 
ATOM      3  H3  UNL     1       6.784   6.496  22.386  1.00  0.00     0.165 HD
ENDROOT
BRANCH   1   4
HETATM    4  C4  UNL     1       7.819   8.380  23.338  1.00  0.00     0.011 A 
HETATM    5  C3  UNL     1       8.915   8.896  22.762  1.00  0.00     0.087 A 
HETATM    6  C20 UNL     1      10.069   9.242  23.530  1.00  0.00     0.116 A 
HETATM    7  C19 UNL     1      10.066   9.042  24.856  1.00  0.00     0.099 A 
HETATM    8  C18 UNL     1       8.979   8.512  25.497  1.00  0.00     0.040 A 
HETATM    9  C17 UNL     1       7.893   8.196  24.742  1.00  0.00     0.018 A 
BRANCH   5  10
HETATM   10  C2  UNL     1       9.055   9.035  21.325  1.00  0.00     0.296 C 
HETATM   11  O2  UNL     1       9.092   8.249  20.397  1.00  0.00    -0.259 OA
BRANCH  10  12
HETATM   12  O1  UNL     1       9.186  10.378  20.807  1.00  0.00    -0.322 OA
HETATM   13  C1  UNL     1       8.078  11.034  20.224  1.00  0.00     0.213 C 
ENDBRANCH  10  12
ENDBRANCH   5  10
BRANCH   6  14
HETATM   14  O6  UNL     1      11.164   9.781  22.859  1.00  0.00    -0.357 OA
ATOM     15  H6  UNL     1      11.821  10.237  23.372  1.00  0.00     0.217 HD
ENDBRANCH   6  14
BRANCH   7  16
HETATM   16  O5  UNL     1      11.182   9.373  25.609  1.00  0.00    -0.358 OA
ATOM     17  H5  UNL     1      11.693  10.131  25.353  1.00  0.00     0.217 HD
ENDBRANCH   7  16
ENDBRANCH   1   4
BRANCH   1  18
HETATM   18  C6  UNL     1       5.612   9.404  22.767  1.00  0.00     0.127 C 
BRANCH  18  19
HETATM   19  N1  UNL     1       4.484   9.410  23.572  1.00  0.00    -0.322 N 
HETATM   20  C7  UNL     1       4.507   9.236  24.905  1.00  0.00     0.117 A 
HETATM   21  C8  UNL     1       3.356   9.180  25.657  1.00  0.00     0.140 A 
HETATM   22  N2  UNL     1       2.177   9.303  25.029  1.00  0.00    -0.243 N 
HETATM   23  C9  UNL     1       2.123   9.477  23.699  1.00  0.00     0.160 A 
HETATM   24  C10 UNL     1       3.262   9.530  22.971  1.00  0.00     0.103 A 
HETATM   25 BR1  UNL     1       3.181   9.777  21.060  1.00  0.00    -0.029 Br
BRANCH  22  26
HETATM   26  O3  UNL     1       0.962   9.264  25.687  1.00  0.00    -0.284 OA
ATOM     27  H3  UNL     1       0.823   8.778  26.491  1.00  0.00     0.245 HD
ENDBRANCH  22  26
ENDBRANCH  18  19
ENDBRANCH   1  18
BRANCH   2  28
HETATM   28  C11 UNL     1       5.060   6.422  21.630  1.00  0.00     0.120 C 
BRANCH  28  29
HETATM   29  C12 UNL     1       5.510   5.170  20.922  1.00  0.00     0.077 A 
HETATM   30  C13 UNL     1       4.862   4.001  21.318  1.00  0.00     0.033 A 
HETATM   31  C14 UNL     1       5.207   2.806  20.736  1.00  0.00     0.004 A 
HETATM   32  C15 UNL     1       6.188   2.803  19.775  1.00  0.00     0.020 A 
HETATM   33  C16 UNL     1       6.823   3.954  19.389  1.00  0.00     0.123 A 
HETATM   34  N4  UNL     1       6.448   5.113  19.993  1.00  0.00    -0.235 N 
BRANCH  34  35
HETATM   35  O4  UNL     1       7.111   6.239  19.586  1.00  0.00    -0.283 OA
ATOM     36  H4  UNL     1       7.416   6.333  18.691  1.00  0.00     0.245 HD
ENDBRANCH  34  35
ENDBRANCH  28  29
ENDBRANCH   2  28
TORSDOF 11
ENDMDL
MODEL 2
REMARK VINA RESULT: -7.602328738      2.570      4.331
REMARK  11 active torsions:
REMARK  status: ('A' for Active; 'I' for Inactive)
REMARK    1  A    between atoms: O1_2  and  C2_3 
REMARK    2  A    between atoms: C2_3  and  C3_5 
REMARK    3  A    between atoms: C4_6  and  C5_7 
REMARK    4  A    between atoms: C5_7  and  C6_8 
REMARK    5  A    between atoms: C6_8  and  N1_9 
REMARK    6  A    between atoms: N2_12  and  O3_13 
REMARK    7  A    between atoms: N3_18  and  C11_20 
REMARK    8  A    between atoms: C11_20  and  C12_21 
REMARK    9  A    between atoms: N4_26  and  O4_27 
REMARK   10  A    between atoms: C19_31  and  O5_32 
REMARK   11  A    between atoms: C20_34  and  O6_35 
ROOT
HETATM    1  C5  UNL     1       7.710   8.564  21.568  1.00  0.00     0.059 C 
HETATM    2  N3  UNL     1       7.920   7.758  20.741  1.00  0.00    -0.362 N 
ATOM      3  H3  UNL     1       8.713   7.244  21.124  1.00  0.00     0.165 HD
ENDROOT
BRANCH   1   4
HETATM    4  C4  UNL     1       8.419   8.796  22.865  1.00  0.00     0.011 A 
HETATM    5  C3  UNL     1       7.992   8.477  24.096  1.00  0.00     0.087 A 
HETATM    6  C20 UNL     1       8.854   8.573  25.232  1.00  0.00     0.116 A 
HETATM    7  C19 UNL     1      10.116   8.996  25.072  1.00  0.00     0.099 A 
HETATM    8  C18 UNL     1      10.604   9.341  23.841  1.00  0.00     0.040 A 
HETATM    9  C17 UNL     1       9.763   9.237  22.777  1.00  0.00     0.018 A 
BRANCH   5  10
HETATM   10  C2  UNL     1       6.614   8.127  24.384  1.00  0.00     0.296 C 
HETATM   11  O2  UNL     1       5.934   7.136  24.194  1.00  0.00    -0.259 OA
BRANCH  10  12
HETATM   12  O1  UNL     1       5.807   9.131  25.040  1.00  0.00    -0.322 OA
HETATM   13  C1  UNL     1       4.431   9.252  24.743  1.00  0.00     0.213 C 
ENDBRANCH  10  12
ENDBRANCH   5  10
BRANCH   6  14
HETATM   14  O6  UNL     1       8.338   8.216  26.476  1.00  0.00    -0.357 OA
ATOM     15  H6  UNL     1       8.944   7.894  27.134  1.00  0.00     0.217 HD
ENDBRANCH   6  14
BRANCH   7  16
HETATM   16  O5  UNL     1      10.959   9.093  26.168  1.00  0.00    -0.358 OA
ATOM     17  H5  UNL     1      10.727   9.694  26.866  1.00  0.00     0.217 HD
ENDBRANCH   7  16
ENDBRANCH   1   4
BRANCH   1  18
HETATM   18  C6  UNL     1       6.522   9.502  21.398  1.00  0.00     0.127 C 
BRANCH  18  19
HETATM   19  N1  UNL     1       6.708  10.726  20.774  1.00  0.00    -0.322 N 
HETATM   20  C7  UNL     1       7.484  11.710  21.259  1.00  0.00     0.117 A 
HETATM   21  C8  UNL     1       7.585  12.935  20.640  1.00  0.00     0.140 A 
HETATM   22  N2  UNL     1       6.881  13.143  19.518  1.00  0.00    -0.243 N 
HETATM   23  C9  UNL     1       6.097  12.179  19.011  1.00  0.00     0.160 A 
HETATM   24  C10 UNL     1       6.006  10.978  19.629  1.00  0.00     0.103 A 
HETATM   25 BR1  UNL     1       4.877   9.596  18.899  1.00  0.00    -0.029 Br
BRANCH  22  26
HETATM   26  O3  UNL     1       6.911  14.334  18.816  1.00  0.00    -0.284 OA
ATOM     27  H3  UNL     1       7.659  14.617  18.305  1.00  0.00     0.245 HD
ENDBRANCH  22  26
ENDBRANCH  18  19
ENDBRANCH   1  18
BRANCH   2  28
HETATM   28  C11 UNL     1       7.695   7.119  19.544  1.00  0.00     0.120 C 
BRANCH  28  29
HETATM   29  C12 UNL     1       7.652   5.613  19.570  1.00  0.00     0.077 A 
HETATM   30  C13 UNL     1       8.414   4.982  18.587  1.00  0.00     0.033 A 
HETATM   31  C14 UNL     1       8.433   3.611  18.523  1.00  0.00     0.004 A 
HETATM   32  C15 UNL     1       7.694   2.901  19.438  1.00  0.00     0.020 A 
HETATM   33  C16 UNL     1       6.946   3.525  20.401  1.00  0.00     0.123 A 
HETATM   34  N4  UNL     1       6.958   4.884  20.426  1.00  0.00    -0.235 N 
BRANCH  34  35
HETATM   35  O4  UNL     1       6.192   5.469  21.397  1.00  0.00    -0.283 OA
ATOM     36  H4  UNL     1       5.971   5.004  22.195  1.00  0.00     0.245 HD
ENDBRANCH  34  35
ENDBRANCH  28  29
ENDBRANCH   2  28
TORSDOF 11
ENDMDL
MODEL 3
REMARK VINA RESULT: -7.596296256      1.094      1.429
REMARK  11 active torsions:
REMARK  status: ('A' for Active; 'I' for Inactive)
REMARK    1  A    between atoms: O1_2  and  C2_3 
REMARK    2  A    between atoms: C2_3  and  C3_5 
REMARK    3  A    between atoms: C4_6  and  C5_7 
REMARK    4  A    between atoms: C5_7  and  C6_8 
REMARK    5  A    between atoms: C6_8  and  N1_9 
REMARK    6  A    between atoms: N2_12  and  O3_13 
REMARK    7  A    between atoms: N3_18  and  C11_20 
REMARK    8  A    between atoms: C11_20  and  C12_21 
REMARK    9  A    between atoms: N4_26  and  O4_27 
REMARK   10  A    between atoms: C19_31  and  O5_32 
REMARK   11  A    between atoms: C20_34  and  O6_35 
ROOT
HETATM    1  C5  UNL     1       6.546   8.250  22.781  1.00  0.00     0.059 C 
HETATM    2  N3  UNL     1       6.098   7.318  22.223  1.00  0.00    -0.362 N 
ATOM      3  H3  UNL     1       6.849   6.632  22.291  1.00  0.00     0.165 HD
ENDROOT
BRANCH   1   4
HETATM    4  C4  UNL     1       7.885   8.408  23.431  1.00  0.00     0.011 A 
HETATM    5  C3  UNL     1       8.992   8.946  22.897  1.00  0.00     0.087 A 
HETATM    6  C20 UNL     1      10.147   9.218  23.693  1.00  0.00     0.116 A 
HETATM    7  C19 UNL     1      10.133   8.926  25.002  1.00  0.00     0.099 A 
HETATM    8  C18 UNL     1       9.034   8.370  25.599  1.00  0.00     0.040 A 
HETATM    9  C17 UNL     1       7.948   8.125  24.819  1.00  0.00     0.018 A 
BRANCH   5  10
HETATM   10  C2  UNL     1       9.143   9.183  21.474  1.00  0.00     0.296 C 
HETATM   11  O2  UNL     1       9.514  10.130  20.807  1.00  0.00    -0.259 OA
BRANCH  10  12
HETATM   12  O1  UNL     1       8.791   8.096  20.589  1.00  0.00    -0.322 OA
HETATM   13  C1  UNL     1       8.013   8.334  19.434  1.00  0.00     0.213 C 
ENDBRANCH  10  12
ENDBRANCH   5  10
BRANCH   6  14
HETATM   14  O6  UNL     1      11.254   9.785  23.067  1.00  0.00    -0.357 OA
ATOM     15  H6  UNL     1      11.893  10.233  23.609  1.00  0.00     0.217 HD
ENDBRANCH   6  14
BRANCH   7  16
HETATM   16  O5  UNL     1      11.249   9.186  25.782  1.00  0.00    -0.358 OA
ATOM     17  H5  UNL     1      11.901   9.793  25.453  1.00  0.00     0.217 HD
ENDBRANCH   7  16
ENDBRANCH   1   4
BRANCH   1  18
HETATM   18  C6  UNL     1       5.679   9.487  22.965  1.00  0.00     0.127 C 
BRANCH  18  19
HETATM   19  N1  UNL     1       4.516   9.395  23.715  1.00  0.00    -0.322 N 
HETATM   20  C7  UNL     1       4.484   9.081  25.021  1.00  0.00     0.117 A 
HETATM   21  C8  UNL     1       3.301   8.934  25.711  1.00  0.00     0.140 A 
HETATM   22  N2  UNL     1       2.150   9.110  25.046  1.00  0.00    -0.243 N 
HETATM   23  C9  UNL     1       2.151   9.424  23.740  1.00  0.00     0.160 A 
HETATM   24  C10 UNL     1       3.321   9.566  23.075  1.00  0.00     0.103 A 
HETATM   25 BR1  UNL     1       3.320  10.013  21.199  1.00  0.00    -0.029 Br
BRANCH  22  26
HETATM   26  O3  UNL     1       0.908   8.988  25.640  1.00  0.00    -0.284 OA
ATOM     27  H3  UNL     1       0.354   9.733  25.844  1.00  0.00     0.245 HD
ENDBRANCH  22  26
ENDBRANCH  18  19
ENDBRANCH   1  18
BRANCH   2  28
HETATM   28  C11 UNL     1       5.126   6.637  21.530  1.00  0.00     0.120 C 
BRANCH  28  29
HETATM   29  C12 UNL     1       5.450   5.227  21.106  1.00  0.00     0.077 A 
HETATM   30  C13 UNL     1       6.188   5.118  19.928  1.00  0.00     0.033 A 
HETATM   31  C14 UNL     1       6.526   3.874  19.455  1.00  0.00     0.004 A 
HETATM   32  C15 UNL     1       6.123   2.770  20.164  1.00  0.00     0.020 A 
HETATM   33  C16 UNL     1       5.397   2.881  21.321  1.00  0.00     0.123 A 
HETATM   34  N4  UNL     1       5.086   4.133  21.751  1.00  0.00    -0.235 N 
BRANCH  34  35
HETATM   35  O4  UNL     1       4.354   4.202  22.904  1.00  0.00    -0.283 OA
ATOM     36  H4  UNL     1       4.372   3.497  23.541  1.00  0.00     0.245 HD
ENDBRANCH  34  35
ENDBRANCH  28  29
ENDBRANCH   2  28
TORSDOF 11
ENDMDL
MODEL 4
REMARK VINA RESULT: -7.492069027      2.688      3.781
REMARK  11 active torsions:
REMARK  status: ('A' for Active; 'I' for Inactive)
REMARK    1  A    between atoms: O1_2  and  C2_3 
REMARK    2  A    between atoms: C2_3  and  C3_5 
REMARK    3  A    between atoms: C4_6  and  C5_7 
REMARK    4  A    between atoms: C5_7  and  C6_8 
REMARK    5  A    between atoms: C6_8  and  N1_9 
REMARK    6  A    between atoms: N2_12  and  O3_13 
REMARK    7  A    between atoms: N3_18  and  C11_20 
REMARK    8  A    between atoms: C11_20  and  C12_21 
REMARK    9  A    between atoms: N4_26  and  O4_27 
REMARK   10  A    between atoms: C19_31  and  O5_32 
REMARK   11  A    between atoms: C20_34  and  O6_35 
ROOT
HETATM    1  C5  UNL     1       8.303   8.995  21.541  1.00  0.00     0.059 C 
HETATM    2  N3  UNL     1       8.098   8.075  20.842  1.00  0.00    -0.362 N 
ATOM      3  H3  UNL     1       8.411   7.287  21.409  1.00  0.00     0.165 HD
ENDROOT
BRANCH   1   4
HETATM    4  C4  UNL     1       8.881   9.025  22.921  1.00  0.00     0.011 A 
HETATM    5  C3  UNL     1       8.293   8.631  24.061  1.00  0.00     0.087 A 
HETATM    6  C20 UNL     1       9.028   8.526  25.281  1.00  0.00     0.116 A 
HETATM    7  C19 UNL     1      10.333   8.833  25.297  1.00  0.00     0.099 A 
HETATM    8  C18 UNL     1      10.984   9.247  24.167  1.00  0.00     0.040 A 
HETATM    9  C17 UNL     1      10.261   9.334  23.018  1.00  0.00     0.018 A 
BRANCH   5  10
HETATM   10  C2  UNL     1       6.866   8.395  24.167  1.00  0.00     0.296 C 
HETATM   11  O2  UNL     1       6.121   7.512  23.783  1.00  0.00    -0.259 OA
BRANCH  10  12
HETATM   12  O1  UNL     1       6.089   9.390  24.872  1.00  0.00    -0.322 OA
HETATM   13  C1  UNL     1       4.688   9.252  24.994  1.00  0.00     0.213 C 
ENDBRANCH  10  12
ENDBRANCH   5  10
BRANCH   6  14
HETATM   14  O6  UNL     1       8.347   8.101  26.420  1.00  0.00    -0.357 OA
ATOM     15  H6  UNL     1       7.946   7.240  26.405  1.00  0.00     0.217 HD
ENDBRANCH   6  14
BRANCH   7  16
HETATM   16  O5  UNL     1      11.054   8.735  26.478  1.00  0.00    -0.358 OA
ATOM     17  H5  UNL     1      11.760   9.352  26.630  1.00  0.00     0.217 HD
ENDBRANCH   7  16
ENDBRANCH   1   4
BRANCH   1  18
HETATM   18  C6  UNL     1       7.888  10.383  21.073  1.00  0.00     0.127 C 
BRANCH  18  19
HETATM   19  N1  UNL     1       6.550  10.642  20.818  1.00  0.00    -0.322 N 
HETATM   20  C7  UNL     1       5.530  10.042  21.455  1.00  0.00     0.117 A 
HETATM   21  C8  UNL     1       4.216  10.278  21.121  1.00  0.00     0.140 A 
HETATM   22  N2  UNL     1       3.957  11.137  20.124  1.00  0.00    -0.243 N 
HETATM   23  C9  UNL     1       4.955  11.751  19.469  1.00  0.00     0.160 A 
HETATM   24  C10 UNL     1       6.242  11.509  19.807  1.00  0.00     0.103 A 
HETATM   25 BR1  UNL     1       7.674  12.390  18.862  1.00  0.00    -0.029 Br
BRANCH  22  26
HETATM   26  O3  UNL     1       2.675  11.449  19.709  1.00  0.00    -0.284 OA
ATOM     27  H3  UNL     1       2.399  11.409  18.801  1.00  0.00     0.245 HD
ENDBRANCH  22  26
ENDBRANCH  18  19
ENDBRANCH   1  18
BRANCH   2  28
HETATM   28  C11 UNL     1       7.672   7.465  19.686  1.00  0.00     0.120 C 
BRANCH  28  29
HETATM   29  C12 UNL     1       7.615   5.959  19.688  1.00  0.00     0.077 A 
HETATM   30  C13 UNL     1       8.385   5.336  18.707  1.00  0.00     0.033 A 
HETATM   31  C14 UNL     1       8.393   3.965  18.623  1.00  0.00     0.004 A 
HETATM   32  C15 UNL     1       7.634   3.249  19.515  1.00  0.00     0.020 A 
HETATM   33  C16 UNL     1       6.877   3.865  20.477  1.00  0.00     0.123 A 
HETATM   34  N4  UNL     1       6.901   5.223  20.522  1.00  0.00    -0.235 N 
BRANCH  34  35
HETATM   35  O4  UNL     1       6.126   5.801  21.490  1.00  0.00    -0.283 OA
ATOM     36  H4  UNL     1       5.782   6.680  21.385  1.00  0.00     0.245 HD
ENDBRANCH  34  35
ENDBRANCH  28  29
ENDBRANCH   2  28
TORSDOF 11
ENDMDL
MODEL 5
REMARK VINA RESULT: -7.434254307      2.107      2.872
REMARK  11 active torsions:
REMARK  status: ('A' for Active; 'I' for Inactive)
REMARK    1  A    between atoms: O1_2  and  C2_3 
REMARK    2  A    between atoms: C2_3  and  C3_5 
REMARK    3  A    between atoms: C4_6  and  C5_7 
REMARK    4  A    between atoms: C5_7  and  C6_8 
REMARK    5  A    between atoms: C6_8  and  N1_9 
REMARK    6  A    between atoms: N2_12  and  O3_13 
REMARK    7  A    between atoms: N3_18  and  C11_20 
REMARK    8  A    between atoms: C11_20  and  C12_21 
REMARK    9  A    between atoms: N4_26  and  O4_27 
REMARK   10  A    between atoms: C19_31  and  O5_32 
REMARK   11  A    between atoms: C20_34  and  O6_35 
ROOT
HETATM    1  C5  UNL     1       6.316   6.790  21.151  1.00  0.00     0.059 C 
HETATM    2  N3  UNL     1       6.616   5.707  20.809  1.00  0.00    -0.362 N 
ATOM      3  H3  UNL     1       7.624   5.695  20.958  1.00  0.00     0.165 HD
ENDROOT
BRANCH   1   4
HETATM    4  C4  UNL     1       7.184   7.891  21.673  1.00  0.00     0.011 A 
HETATM    5  C3  UNL     1       7.488   9.048  21.065  1.00  0.00     0.087 A 
HETATM    6  C20 UNL     1       8.165  10.098  21.757  1.00  0.00     0.116 A 
HETATM    7  C19 UNL     1       8.514   9.929  23.040  1.00  0.00     0.099 A 
HETATM    8  C18 UNL     1       8.236   8.768  23.709  1.00  0.00     0.040 A 
HETATM    9  C17 UNL     1       7.587   7.786  23.028  1.00  0.00     0.018 A 
BRANCH   5  10
HETATM   10  C2  UNL     1       7.260   9.275  19.651  1.00  0.00     0.296 C 
HETATM   11  O2  UNL     1       7.642   8.730  18.632  1.00  0.00    -0.259 OA
BRANCH  10  12
HETATM   12  O1  UNL     1       6.396  10.379  19.296  1.00  0.00    -0.322 OA
HETATM   13  C1  UNL     1       5.051  10.148  18.928  1.00  0.00     0.213 C 
ENDBRANCH  10  12
ENDBRANCH   5  10
BRANCH   6  14
HETATM   14  O6  UNL     1       8.438  11.272  21.058  1.00  0.00    -0.357 OA
ATOM     15  H6  UNL     1       8.611  12.060  21.560  1.00  0.00     0.217 HD
ENDBRANCH   6  14
BRANCH   7  16
HETATM   16  O5  UNL     1       9.172  10.942  23.719  1.00  0.00    -0.358 OA
ATOM     17  H5  UNL     1       8.998  11.842  23.471  1.00  0.00     0.217 HD
ENDBRANCH   7  16
ENDBRANCH   1   4
BRANCH   1  18
HETATM   18  C6  UNL     1       4.845   7.181  21.153  1.00  0.00     0.127 C 
BRANCH  18  19
HETATM   19  N1  UNL     1       4.047   6.817  22.227  1.00  0.00    -0.322 N 
HETATM   20  C7  UNL     1       3.626   5.563  22.464  1.00  0.00     0.117 A 
HETATM   21  C8  UNL     1       2.778   5.259  23.504  1.00  0.00     0.140 A 
HETATM   22  N2  UNL     1       2.364   6.255  24.301  1.00  0.00    -0.243 N 
HETATM   23  C9  UNL     1       2.768   7.518  24.089  1.00  0.00     0.160 A 
HETATM   24  C10 UNL     1       3.601   7.803  23.062  1.00  0.00     0.103 A 
HETATM   25 BR1  UNL     1       4.177   9.618  22.758  1.00  0.00    -0.029 Br
BRANCH  22  26
HETATM   26  O3  UNL     1       1.515   6.060  25.375  1.00  0.00    -0.284 OA
ATOM     27  H3  UNL     1       1.200   6.769  25.923  1.00  0.00     0.245 HD
ENDBRANCH  22  26
ENDBRANCH  18  19
ENDBRANCH   1  18
BRANCH   2  28
HETATM   28  C11 UNL     1       6.367   4.446  20.321  1.00  0.00     0.120 C 
BRANCH  28  29
HETATM   29  C12 UNL     1       7.433   3.824  19.457  1.00  0.00     0.077 A 
HETATM   30  C13 UNL     1       7.562   2.442  19.579  1.00  0.00     0.033 A 
HETATM   31  C14 UNL     1       8.513   1.783  18.838  1.00  0.00     0.004 A 
HETATM   32  C15 UNL     1       9.312   2.516  17.995  1.00  0.00     0.020 A 
HETATM   33  C16 UNL     1       9.183   3.875  17.879  1.00  0.00     0.123 A 
HETATM   34  N4  UNL     1       8.228   4.483  18.632  1.00  0.00    -0.235 N 
BRANCH  34  35
HETATM   35  O4  UNL     1       8.136   5.841  18.494  1.00  0.00    -0.283 OA
ATOM     36  H4  UNL     1       8.292   6.262  17.656  1.00  0.00     0.245 HD
ENDBRANCH  34  35
ENDBRANCH  28  29
ENDBRANCH   2  28
TORSDOF 11
ENDMDL
