MODEL 1
REMARK VINA RESULT: -6.838925312      0.000      0.000
REMARK  12 active torsions:
REMARK  status: ('A' for Active; 'I' for Inactive)
REMARK    1  A    between atoms: S1_2  and  C2_3 
REMARK    2  A    between atoms: C4_8  and  N3_9 
REMARK    3  A    between atoms: N3_9  and  C5_11 
REMARK    4  A    between atoms: C5_11  and  C6_12 
REMARK    5  A    between atoms: C6_12  and  N4_13 
REMARK    6  A    between atoms: C9_21  and  N5_22 
REMARK    7  A    between atoms: N6_24  and  C10_26 
REMARK    8  A    between atoms: C12_28  and  S2_29 
REMARK    9  A    between atoms: S2_29  and  N7_30 
REMARK   10  A    between atoms: C13_35  and  O5_36 
REMARK   11  A    between atoms: C14_38  and  O6_39 
REMARK   12  A    between atoms: C15_41  and  N8_42 
ROOT
HETATM    1  N5  UNL     1      12.271  74.448  51.172  1.00  0.00    -0.294 N 
ATOM      2  H5  UNL     1      11.670  75.253  50.995  1.00  0.00     0.187 HD
HETATM    3  N6  UNL     1      12.464  73.581  50.265  1.00  0.00    -0.298 N 
ATOM      4  H6  UNL     1      13.071  72.787  50.471  1.00  0.00     0.187 HD
ENDROOT
BRANCH   1   5
HETATM    5  C9  UNL     1      12.900  74.287  52.434  1.00  0.00     0.136 C 
HETATM    6  C2  UNL     1      12.038  73.929  53.457  1.00  0.00     0.103 C 
HETATM    7  N1  UNL     1      12.250  74.130  54.777  1.00  0.00    -0.335 N 
HETATM    8  C3  UNL     1      13.423  74.303  55.438  1.00  0.00     0.148 C 
ATOM      9  H1  UNL     1      11.412  74.154  55.358  1.00  0.00     0.168 HD
HETATM   10  N2  UNL     1      13.360  74.641  56.819  1.00  0.00    -0.080 NA
HETATM   11  C4  UNL     1      14.714  74.198  54.959  1.00  0.00     0.124 C 
HETATM   12  C7  UNL     1      15.088  74.397  53.630  1.00  0.00     0.253 C 
HETATM   13  O1  UNL     1      16.318  74.497  53.405  1.00  0.00    -0.281 OA
HETATM   14  C8  UNL     1      14.283  74.502  52.509  1.00  0.00     0.254 C 
HETATM   15  O2  UNL     1      14.811  74.822  51.416  1.00  0.00    -0.281 OA
BRANCH   6  16
HETATM   16  S1  UNL     1      10.510  73.127  52.988  1.00  0.00    -0.114 SA
HETATM   17  C1  UNL     1       9.112  74.248  52.950  1.00  0.00     0.097 C 
ENDBRANCH   6  16
BRANCH  11  18
HETATM   18  N3  UNL     1      15.746  73.861  55.877  1.00  0.00    -0.382 N 
ATOM     19  H3  UNL     1      16.119  74.605  56.467  1.00  0.00     0.160 HD
BRANCH  18  20
HETATM   20  C5  UNL     1      16.295  72.554  56.026  1.00  0.00     0.147 C 
BRANCH  20  21
HETATM   21  C6  UNL     1      17.807  72.615  55.996  1.00  0.00     0.249 C 
BRANCH  21  22
HETATM   22  N4  UNL     1      18.339  72.614  54.657  1.00  0.00    -0.078 N 
ATOM     23  H43 UNL     1      18.469  71.662  54.317  1.00  0.00     0.274 HD
ATOM     24  H42 UNL     1      17.640  72.935  53.987  1.00  0.00     0.274 HD
ATOM     25  H41 UNL     1      19.201  73.154  54.574  1.00  0.00     0.274 HD
ENDBRANCH  21  22
ENDBRANCH  20  21
ENDBRANCH  18  20
ENDBRANCH  11  18
ENDBRANCH   1   5
BRANCH   3  26
HETATM   26  C10 UNL     1      11.876  73.667  48.985  1.00  0.00     0.085 A 
HETATM   27  C11 UNL     1      10.578  73.270  48.774  1.00  0.00     0.062 A 
HETATM   28  C12 UNL     1      10.013  73.360  47.514  1.00  0.00     0.117 A 
HETATM   29  C13 UNL     1      10.745  73.849  46.450  1.00  0.00     0.125 A 
HETATM   30  C14 UNL     1      12.051  74.244  46.685  1.00  0.00     0.136 A 
HETATM   31  C15 UNL     1      12.645  74.166  47.936  1.00  0.00     0.166 A 
BRANCH  28  32
HETATM   32  S2  UNL     1       8.372  72.862  47.221  1.00  0.00     0.259 S 
HETATM   33  O3  UNL     1       8.349  71.521  46.504  1.00  0.00    -0.201 OA
HETATM   34  O4  UNL     1       7.635  73.852  46.371  1.00  0.00    -0.201 OA
BRANCH  32  35
HETATM   35  N7  UNL     1       7.541  72.708  48.717  1.00  0.00    -0.324 N 
ATOM     36  H72 UNL     1       7.429  73.463  49.394  1.00  0.00     0.169 HD
ATOM     37  H71 UNL     1       7.185  71.758  48.814  1.00  0.00     0.169 HD
ENDBRANCH  32  35
ENDBRANCH  28  32
BRANCH  29  38
HETATM   38  O5  UNL     1      10.158  73.930  45.195  1.00  0.00    -0.356 OA
ATOM     39  H5  UNL     1       9.542  74.629  45.008  1.00  0.00     0.218 HD
ENDBRANCH  29  38
BRANCH  30  40
HETATM   40  O6  UNL     1      12.762  74.729  45.609  1.00  0.00    -0.356 OA
ATOM     41  H6  UNL     1      13.691  74.878  45.737  1.00  0.00     0.218 HD
ENDBRANCH  30  40
BRANCH  31  42
HETATM   42  N8  UNL     1      13.975  74.567  48.179  1.00  0.00    -0.110 N 
HETATM   43  O7  UNL     1      14.197  75.515  48.938  1.00  0.00    -0.532 OA
HETATM   44  O8  UNL     1      15.016  73.920  47.586  1.00  0.00    -0.532 OA
ENDBRANCH  31  42
ENDBRANCH   3  26
TORSDOF 12
ENDMDL
MODEL 2
REMARK VINA RESULT: -6.483919236      2.936      4.206
REMARK  12 active torsions:
REMARK  status: ('A' for Active; 'I' for Inactive)
REMARK    1  A    between atoms: S1_2  and  C2_3 
REMARK    2  A    between atoms: C4_8  and  N3_9 
REMARK    3  A    between atoms: N3_9  and  C5_11 
REMARK    4  A    between atoms: C5_11  and  C6_12 
REMARK    5  A    between atoms: C6_12  and  N4_13 
REMARK    6  A    between atoms: C9_21  and  N5_22 
REMARK    7  A    between atoms: N6_24  and  C10_26 
REMARK    8  A    between atoms: C12_28  and  S2_29 
REMARK    9  A    between atoms: S2_29  and  N7_30 
REMARK   10  A    between atoms: C13_35  and  O5_36 
REMARK   11  A    between atoms: C14_38  and  O6_39 
REMARK   12  A    between atoms: C15_41  and  N8_42 
ROOT
HETATM    1  N5  UNL     1      10.093  74.419  51.660  1.00  0.00    -0.294 N 
ATOM      2  H5  UNL     1       9.458  75.196  51.472  1.00  0.00     0.187 HD
HETATM    3  N6  UNL     1       9.839  73.260  51.208  1.00  0.00    -0.298 N 
ATOM      4  H6  UNL     1      10.493  72.504  51.412  1.00  0.00     0.187 HD
ENDROOT
BRANCH   1   5
HETATM    5  C9  UNL     1      11.267  74.625  52.430  1.00  0.00     0.136 C 
HETATM    6  C2  UNL     1      11.028  74.957  53.754  1.00  0.00     0.103 C 
HETATM    7  N1  UNL     1      11.882  75.613  54.572  1.00  0.00    -0.335 N 
HETATM    8  C3  UNL     1      13.233  75.721  54.487  1.00  0.00     0.148 C 
ATOM      9  H1  UNL     1      11.452  76.092  55.362  1.00  0.00     0.168 HD
HETATM   10  N2  UNL     1      13.884  76.596  55.403  1.00  0.00    -0.080 NA
HETATM   11  C4  UNL     1      14.103  75.093  53.619  1.00  0.00     0.124 C 
HETATM   12  C7  UNL     1      13.762  74.628  52.348  1.00  0.00     0.253 C 
HETATM   13  O1  UNL     1      14.713  74.298  51.600  1.00  0.00    -0.281 OA
HETATM   14  C8  UNL     1      12.504  74.477  51.789  1.00  0.00     0.254 C 
HETATM   15  O2  UNL     1      12.418  74.173  50.575  1.00  0.00    -0.281 OA
BRANCH   6  16
HETATM   16  S1  UNL     1       9.451  74.469  54.441  1.00  0.00    -0.114 SA
HETATM   17  C1  UNL     1       8.336  75.851  54.688  1.00  0.00     0.097 C 
ENDBRANCH   6  16
BRANCH  11  18
HETATM   18  N3  UNL     1      15.447  74.898  54.037  1.00  0.00    -0.382 N 
ATOM     19  H3  UNL     1      16.115  75.649  53.859  1.00  0.00     0.160 HD
BRANCH  18  20
HETATM   20  C5  UNL     1      15.924  73.724  54.690  1.00  0.00     0.147 C 
BRANCH  20  21
HETATM   21  C6  UNL     1      17.279  73.333  54.138  1.00  0.00     0.249 C 
BRANCH  21  22
HETATM   22  N4  UNL     1      17.253  73.090  52.718  1.00  0.00    -0.078 N 
ATOM     23  H43 UNL     1      16.295  73.018  52.377  1.00  0.00     0.274 HD
ATOM     24  H42 UNL     1      17.551  73.918  52.202  1.00  0.00     0.274 HD
ATOM     25  H41 UNL     1      17.801  72.273  52.447  1.00  0.00     0.274 HD
ENDBRANCH  21  22
ENDBRANCH  20  21
ENDBRANCH  18  20
ENDBRANCH  11  18
ENDBRANCH   1   5
BRANCH   3  26
HETATM   26  C10 UNL     1       8.693  72.972  50.436  1.00  0.00     0.085 A 
HETATM   27  C11 UNL     1       8.701  73.130  49.072  1.00  0.00     0.062 A 
HETATM   28  C12 UNL     1       7.571  72.843  48.327  1.00  0.00     0.117 A 
HETATM   29  C13 UNL     1       6.418  72.396  48.942  1.00  0.00     0.125 A 
HETATM   30  C14 UNL     1       6.434  72.244  50.319  1.00  0.00     0.136 A 
HETATM   31  C15 UNL     1       7.551  72.522  51.093  1.00  0.00     0.166 A 
BRANCH  28  32
HETATM   32  S2  UNL     1       7.555  73.037  46.598  1.00  0.00     0.259 S 
HETATM   33  O3  UNL     1       7.483  71.679  45.916  1.00  0.00    -0.201 OA
HETATM   34  O4  UNL     1       8.787  73.735  46.107  1.00  0.00    -0.201 OA
BRANCH  32  35
HETATM   35  N7  UNL     1       6.186  73.966  46.135  1.00  0.00    -0.324 N 
ATOM     36  H72 UNL     1       5.246  73.831  46.505  1.00  0.00     0.169 HD
ATOM     37  H71 UNL     1       6.463  74.660  45.442  1.00  0.00     0.169 HD
ENDBRANCH  32  35
ENDBRANCH  28  32
BRANCH  29  38
HETATM   38  O5  UNL     1       5.297  72.114  48.176  1.00  0.00    -0.356 OA
ATOM     39  H5  UNL     1       4.455  72.481  48.422  1.00  0.00     0.218 HD
ENDBRANCH  29  38
BRANCH  30  40
HETATM   40  O6  UNL     1       5.273  71.795  50.911  1.00  0.00    -0.356 OA
ATOM     41  H6  UNL     1       5.365  71.179  51.629  1.00  0.00     0.218 HD
ENDBRANCH  30  40
BRANCH  31  42
HETATM   42  N8  UNL     1       7.569  72.368  52.494  1.00  0.00    -0.110 N 
HETATM   43  O7  UNL     1       6.777  73.014  53.189  1.00  0.00    -0.532 OA
HETATM   44  O8  UNL     1       8.447  71.516  53.091  1.00  0.00    -0.532 OA
ENDBRANCH  31  42
ENDBRANCH   3  26
TORSDOF 12
ENDMDL
MODEL 3
REMARK VINA RESULT: -6.425668670      1.954      2.372
REMARK  12 active torsions:
REMARK  status: ('A' for Active; 'I' for Inactive)
REMARK    1  A    between atoms: S1_2  and  C2_3 
REMARK    2  A    between atoms: C4_8  and  N3_9 
REMARK    3  A    between atoms: N3_9  and  C5_11 
REMARK    4  A    between atoms: C5_11  and  C6_12 
REMARK    5  A    between atoms: C6_12  and  N4_13 
REMARK    6  A    between atoms: C9_21  and  N5_22 
REMARK    7  A    between atoms: N6_24  and  C10_26 
REMARK    8  A    between atoms: C12_28  and  S2_29 
REMARK    9  A    between atoms: S2_29  and  N7_30 
REMARK   10  A    between atoms: C13_35  and  O5_36 
REMARK   11  A    between atoms: C14_38  and  O6_39 
REMARK   12  A    between atoms: C15_41  and  N8_42 
ROOT
HETATM    1  N5  UNL     1      11.036  74.201  52.189  1.00  0.00    -0.294 N 
ATOM      2  H5  UNL     1      10.373  74.967  52.070  1.00  0.00     0.187 HD
HETATM    3  N6  UNL     1      11.019  73.211  51.394  1.00  0.00    -0.298 N 
ATOM      4  H6  UNL     1      11.694  72.460  51.537  1.00  0.00     0.187 HD
ENDROOT
BRANCH   1   5
HETATM    5  C9  UNL     1      11.986  74.231  53.243  1.00  0.00     0.136 C 
HETATM    6  C2  UNL     1      11.440  74.056  54.504  1.00  0.00     0.103 C 
HETATM    7  N1  UNL     1      11.995  74.460  55.669  1.00  0.00    -0.335 N 
HETATM    8  C3  UNL     1      13.299  74.715  55.952  1.00  0.00     0.148 C 
ATOM      9  H1  UNL     1      11.345  74.591  56.443  1.00  0.00     0.168 HD
HETATM   10  N2  UNL     1      13.601  75.269  57.228  1.00  0.00    -0.080 NA
HETATM   11  C4  UNL     1      14.414  74.512  55.165  1.00  0.00     0.124 C 
HETATM   12  C7  UNL     1      14.412  74.491  53.770  1.00  0.00     0.253 C 
HETATM   13  O1  UNL     1      15.532  74.532  53.208  1.00  0.00    -0.281 OA
HETATM   14  C8  UNL     1      13.331  74.430  52.907  1.00  0.00     0.254 C 
HETATM   15  O2  UNL     1      13.537  74.564  51.676  1.00  0.00    -0.281 OA
BRANCH   6  16
HETATM   16  S1  UNL     1       9.865  73.216  54.598  1.00  0.00    -0.114 SA
HETATM   17  C1  UNL     1       8.514  74.308  55.043  1.00  0.00     0.097 C 
ENDBRANCH   6  16
BRANCH  11  18
HETATM   18  N3  UNL     1      15.664  74.307  55.811  1.00  0.00    -0.382 N 
ATOM     19  H3  UNL     1      16.265  75.119  55.953  1.00  0.00     0.160 HD
BRANCH  18  20
HETATM   20  C5  UNL     1      16.134  73.042  56.273  1.00  0.00     0.147 C 
BRANCH  20  21
HETATM   21  C6  UNL     1      17.504  72.752  55.699  1.00  0.00     0.249 C 
BRANCH  21  22
HETATM   22  N4  UNL     1      17.476  72.522  54.277  1.00  0.00    -0.078 N 
ATOM     23  H43 UNL     1      17.611  73.392  53.764  1.00  0.00     0.274 HD
ATOM     24  H42 UNL     1      18.310  72.019  53.973  1.00  0.00     0.274 HD
ATOM     25  H41 UNL     1      16.628  72.044  53.971  1.00  0.00     0.274 HD
ENDBRANCH  21  22
ENDBRANCH  20  21
ENDBRANCH  18  20
ENDBRANCH  11  18
ENDBRANCH   1   5
BRANCH   3  26
HETATM   26  C10 UNL     1      10.107  73.104  50.322  1.00  0.00     0.085 A 
HETATM   27  C11 UNL     1       8.760  72.964  50.550  1.00  0.00     0.062 A 
HETATM   28  C12 UNL     1       7.877  72.860  49.490  1.00  0.00     0.117 A 
HETATM   29  C13 UNL     1       8.335  72.896  48.188  1.00  0.00     0.125 A 
HETATM   30  C14 UNL     1       9.697  73.039  47.981  1.00  0.00     0.136 A 
HETATM   31  C15 UNL     1      10.607  73.146  49.023  1.00  0.00     0.166 A 
BRANCH  28  32
HETATM   32  S2  UNL     1       6.166  72.679  49.753  1.00  0.00     0.259 S 
HETATM   33  O3  UNL     1       5.446  73.984  49.450  1.00  0.00    -0.201 OA
HETATM   34  O4  UNL     1       5.861  72.302  51.171  1.00  0.00    -0.201 OA
BRANCH  32  35
HETATM   35  N7  UNL     1       5.551  71.451  48.722  1.00  0.00    -0.324 N 
ATOM     36  H72 UNL     1       5.431  70.475  48.996  1.00  0.00     0.169 HD
ATOM     37  H71 UNL     1       5.331  71.848  47.810  1.00  0.00     0.169 HD
ENDBRANCH  32  35
ENDBRANCH  28  32
BRANCH  29  38
HETATM   38  O5  UNL     1       7.431  72.790  47.140  1.00  0.00    -0.356 OA
ATOM     39  H5  UNL     1       6.558  72.453  47.305  1.00  0.00     0.218 HD
ENDBRANCH  29  38
BRANCH  30  40
HETATM   40  O6  UNL     1      10.131  73.073  46.674  1.00  0.00    -0.356 OA
ATOM     41  H6  UNL     1      11.045  72.869  46.518  1.00  0.00     0.218 HD
ENDBRANCH  30  40
BRANCH  31  42
HETATM   42  N8  UNL     1      11.994  73.291  48.815  1.00  0.00    -0.110 N 
HETATM   43  O7  UNL     1      12.780  72.531  49.392  1.00  0.00    -0.532 OA
HETATM   44  O8  UNL     1      12.477  74.257  47.987  1.00  0.00    -0.532 OA
ENDBRANCH  31  42
ENDBRANCH   3  26
TORSDOF 12
ENDMDL
MODEL 4
REMARK VINA RESULT: -6.416365173      4.232      7.379
REMARK  12 active torsions:
REMARK  status: ('A' for Active; 'I' for Inactive)
REMARK    1  A    between atoms: S1_2  and  C2_3 
REMARK    2  A    between atoms: C4_8  and  N3_9 
REMARK    3  A    between atoms: N3_9  and  C5_11 
REMARK    4  A    between atoms: C5_11  and  C6_12 
REMARK    5  A    between atoms: C6_12  and  N4_13 
REMARK    6  A    between atoms: C9_21  and  N5_22 
REMARK    7  A    between atoms: N6_24  and  C10_26 
REMARK    8  A    between atoms: C12_28  and  S2_29 
REMARK    9  A    between atoms: S2_29  and  N7_30 
REMARK   10  A    between atoms: C13_35  and  O5_36 
REMARK   11  A    between atoms: C14_38  and  O6_39 
REMARK   12  A    between atoms: C15_41  and  N8_42 
ROOT
HETATM    1  N5  UNL     1       7.924  73.186  50.640  1.00  0.00    -0.294 N 
ATOM      2  H5  UNL     1       8.140  74.181  50.578  1.00  0.00     0.187 HD
HETATM    3  N6  UNL     1       8.103  72.428  49.637  1.00  0.00    -0.298 N 
ATOM      4  H6  UNL     1       7.879  71.437  49.729  1.00  0.00     0.187 HD
ENDROOT
BRANCH   1   5
HETATM    5  C9  UNL     1       7.421  72.635  51.848  1.00  0.00     0.136 C 
HETATM    6  C2  UNL     1       8.373  72.480  52.841  1.00  0.00     0.103 C 
HETATM    7  N1  UNL     1       8.298  71.619  53.881  1.00  0.00    -0.335 N 
HETATM    8  C3  UNL     1       7.199  71.053  54.443  1.00  0.00     0.148 C 
ATOM      9  H1  UNL     1       9.190  71.359  54.302  1.00  0.00     0.168 HD
HETATM   10  N2  UNL     1       7.407  70.062  55.445  1.00  0.00    -0.080 NA
HETATM   11  C4  UNL     1       5.866  71.298  54.185  1.00  0.00     0.124 C 
HETATM   12  C7  UNL     1       5.365  71.780  52.976  1.00  0.00     0.253 C 
HETATM   13  O1  UNL     1       4.121  71.725  52.823  1.00  0.00    -0.281 OA
HETATM   14  C8  UNL     1       6.057  72.318  51.904  1.00  0.00     0.254 C 
HETATM   15  O2  UNL     1       5.430  72.565  50.845  1.00  0.00    -0.281 OA
BRANCH   6  16
HETATM   16  S1  UNL     1       9.829  73.512  52.740  1.00  0.00    -0.114 SA
HETATM   17  C1  UNL     1      11.202  72.710  51.910  1.00  0.00     0.097 C 
ENDBRANCH   6  16
BRANCH  11  18
HETATM   18  N3  UNL     1       4.923  71.047  55.219  1.00  0.00    -0.382 N 
ATOM     19  H3  UNL     1       4.466  70.135  55.236  1.00  0.00     0.160 HD
BRANCH  18  20
HETATM   20  C5  UNL     1       4.573  71.985  56.234  1.00  0.00     0.147 C 
BRANCH  20  21
HETATM   21  C6  UNL     1       4.614  71.323  57.595  1.00  0.00     0.249 C 
BRANCH  21  22
HETATM   22  N4  UNL     1       5.104  69.969  57.542  1.00  0.00    -0.078 N 
ATOM     23  H43 UNL     1       4.387  69.335  57.189  1.00  0.00     0.274 HD
ATOM     24  H42 UNL     1       5.799  69.862  56.803  1.00  0.00     0.274 HD
ATOM     25  H41 UNL     1       5.469  69.646  58.438  1.00  0.00     0.274 HD
ENDBRANCH  21  22
ENDBRANCH  20  21
ENDBRANCH  18  20
ENDBRANCH  11  18
ENDBRANCH   1   5
BRANCH   3  26
HETATM   26  C10 UNL     1       8.598  72.896  48.401  1.00  0.00     0.085 A 
HETATM   27  C11 UNL     1       9.937  73.145  48.223  1.00  0.00     0.062 A 
HETATM   28  C12 UNL     1      10.409  73.603  47.006  1.00  0.00     0.117 A 
HETATM   29  C13 UNL     1       9.543  73.818  45.952  1.00  0.00     0.125 A 
HETATM   30  C14 UNL     1       8.197  73.559  46.153  1.00  0.00     0.136 A 
HETATM   31  C15 UNL     1       7.694  73.098  47.361  1.00  0.00     0.166 A 
BRANCH  28  32
HETATM   32  S2  UNL     1      12.100  73.929  46.757  1.00  0.00     0.259 S 
HETATM   33  O3  UNL     1      12.733  72.824  45.925  1.00  0.00    -0.201 OA
HETATM   34  O4  UNL     1      12.845  74.014  48.055  1.00  0.00    -0.201 OA
BRANCH  32  35
HETATM   35  N7  UNL     1      12.283  75.424  45.930  1.00  0.00    -0.324 N 
ATOM     36  H72 UNL     1      11.628  75.783  45.236  1.00  0.00     0.169 HD
ATOM     37  H71 UNL     1      13.139  75.884  46.240  1.00  0.00     0.169 HD
ENDBRANCH  32  35
ENDBRANCH  28  32
BRANCH  29  38
HETATM   38  O5  UNL     1      10.038  74.277  44.740  1.00  0.00    -0.356 OA
ATOM     39  H5  UNL     1       9.511  74.192  43.954  1.00  0.00     0.218 HD
ENDBRANCH  29  38
BRANCH  30  40
HETATM   40  O6  UNL     1       7.352  73.778  45.087  1.00  0.00    -0.356 OA
ATOM     41  H6  UNL     1       6.623  73.178  44.985  1.00  0.00     0.218 HD
ENDBRANCH  30  40
BRANCH  31  42
HETATM   42  N8  UNL     1       6.325  72.834  47.569  1.00  0.00    -0.110 N 
HETATM   43  O7  UNL     1       5.509  73.759  47.505  1.00  0.00    -0.532 OA
HETATM   44  O8  UNL     1       5.892  71.572  47.838  1.00  0.00    -0.532 OA
ENDBRANCH  31  42
ENDBRANCH   3  26
TORSDOF 12
ENDMDL
MODEL 5
REMARK VINA RESULT: -6.411589705      3.549      4.998
REMARK  12 active torsions:
REMARK  status: ('A' for Active; 'I' for Inactive)
REMARK    1  A    between atoms: S1_2  and  C2_3 
REMARK    2  A    between atoms: C4_8  and  N3_9 
REMARK    3  A    between atoms: N3_9  and  C5_11 
REMARK    4  A    between atoms: C5_11  and  C6_12 
REMARK    5  A    between atoms: C6_12  and  N4_13 
REMARK    6  A    between atoms: C9_21  and  N5_22 
REMARK    7  A    between atoms: N6_24  and  C10_26 
REMARK    8  A    between atoms: C12_28  and  S2_29 
REMARK    9  A    between atoms: S2_29  and  N7_30 
REMARK   10  A    between atoms: C13_35  and  O5_36 
REMARK   11  A    between atoms: C14_38  and  O6_39 
REMARK   12  A    between atoms: C15_41  and  N8_42 
ROOT
HETATM    1  N5  UNL     1      10.082  74.133  52.024  1.00  0.00    -0.294 N 
ATOM      2  H5  UNL     1       9.818  74.932  51.447  1.00  0.00     0.187 HD
HETATM    3  N6  UNL     1       9.491  73.018  51.883  1.00  0.00    -0.298 N 
ATOM      4  H6  UNL     1       9.777  72.237  52.473  1.00  0.00     0.187 HD
ENDROOT
BRANCH   1   5
HETATM    5  C9  UNL     1      11.113  74.257  52.991  1.00  0.00     0.136 C 
HETATM    6  C2  UNL     1      12.394  74.160  52.473  1.00  0.00     0.103 C 
HETATM    7  N1  UNL     1      13.502  73.810  53.163  1.00  0.00    -0.335 N 
HETATM    8  C3  UNL     1      13.737  73.887  54.498  1.00  0.00     0.148 C 
ATOM      9  H1  UNL     1      14.269  73.437  52.604  1.00  0.00     0.168 HD
HETATM   10  N2  UNL     1      14.945  73.315  54.990  1.00  0.00    -0.080 NA
HETATM   11  C4  UNL     1      12.958  74.454  55.487  1.00  0.00     0.124 C 
HETATM   12  C7  UNL     1      11.573  74.606  55.420  1.00  0.00     0.253 C 
HETATM   13  O1  UNL     1      10.992  74.919  56.487  1.00  0.00    -0.281 OA
HETATM   14  C8  UNL     1      10.737  74.457  54.326  1.00  0.00     0.254 C 
HETATM   15  O2  UNL     1       9.496  74.501  54.507  1.00  0.00    -0.281 OA
BRANCH   6  16
HETATM   16  S1  UNL     1      12.598  74.536  50.737  1.00  0.00    -0.114 SA
HETATM   17  C1  UNL     1      14.311  74.506  50.209  1.00  0.00     0.097 C 
ENDBRANCH   6  16
BRANCH  11  18
HETATM   18  N3  UNL     1      13.602  74.923  56.665  1.00  0.00    -0.382 N 
ATOM     19  H3  UNL     1      13.736  74.261  57.429  1.00  0.00     0.160 HD
BRANCH  18  20
HETATM   20  C5  UNL     1      14.073  76.256  56.847  1.00  0.00     0.147 C 
BRANCH  20  21
HETATM   21  C6  UNL     1      15.587  76.280  56.856  1.00  0.00     0.249 C 
BRANCH  21  22
HETATM   22  N4  UNL     1      16.152  76.320  55.532  1.00  0.00    -0.078 N 
ATOM     23  H43 UNL     1      15.470  76.661  54.855  1.00  0.00     0.274 HD
ATOM     24  H42 UNL     1      16.847  77.062  55.455  1.00  0.00     0.274 HD
ATOM     25  H41 UNL     1      16.540  75.423  55.241  1.00  0.00     0.274 HD
ENDBRANCH  21  22
ENDBRANCH  20  21
ENDBRANCH  18  20
ENDBRANCH  11  18
ENDBRANCH   1   5
BRANCH   3  26
HETATM   26  C10 UNL     1       8.456  72.813  50.945  1.00  0.00     0.085 A 
HETATM   27  C11 UNL     1       8.685  72.943  49.597  1.00  0.00     0.062 A 
HETATM   28  C12 UNL     1       7.662  72.738  48.689  1.00  0.00     0.117 A 
HETATM   29  C13 UNL     1       6.395  72.400  49.122  1.00  0.00     0.125 A 
HETATM   30  C14 UNL     1       6.187  72.273  50.486  1.00  0.00     0.136 A 
HETATM   31  C15 UNL     1       7.192  72.471  51.420  1.00  0.00     0.166 A 
BRANCH  28  32
HETATM   32  S2  UNL     1       7.927  72.900  46.977  1.00  0.00     0.259 S 
HETATM   33  O3  UNL     1       6.887  73.829  46.369  1.00  0.00    -0.201 OA
HETATM   34  O4  UNL     1       7.833  71.580  46.274  1.00  0.00    -0.201 OA
BRANCH  32  35
HETATM   35  N7  UNL     1       9.491  73.553  46.695  1.00  0.00    -0.324 N 
ATOM     36  H72 UNL     1       9.845  74.406  47.126  1.00  0.00     0.169 HD
ATOM     37  H71 UNL     1       9.996  72.959  46.039  1.00  0.00     0.169 HD
ENDBRANCH  32  35
ENDBRANCH  28  32
BRANCH  29  38
HETATM   38  O5  UNL     1       5.384  72.199  48.194  1.00  0.00    -0.356 OA
ATOM     39  H5  UNL     1       4.675  72.829  48.127  1.00  0.00     0.218 HD
ENDBRANCH  29  38
BRANCH  30  40
HETATM   40  O6  UNL     1       4.915  71.934  50.895  1.00  0.00    -0.356 OA
ATOM     41  H6  UNL     1       4.475  72.540  51.478  1.00  0.00     0.218 HD
ENDBRANCH  30  40
BRANCH  31  42
HETATM   42  N8  UNL     1       6.983  72.343  52.809  1.00  0.00    -0.110 N 
HETATM   43  O7  UNL     1       6.135  73.048  53.365  1.00  0.00    -0.532 OA
HETATM   44  O8  UNL     1       7.703  71.451  53.543  1.00  0.00    -0.532 OA
ENDBRANCH  31  42
ENDBRANCH   3  26
TORSDOF 12
ENDMDL
