MODEL 1
REMARK VINA RESULT: -5.084721971      0.000      0.000
REMARK  1 active torsions:
REMARK  status: ('A' for Active; 'I' for Inactive)
REMARK    1  A    between atoms: C2_3  and  C3_4 
REMARK       I    between atoms: C3_4  and  N2_6 
ROOT
HETATM    1  N1  UNL     1     -34.664  10.753 -47.396  1.00  0.00    -0.197 NA
HETATM    2  C1  UNL     1     -34.048  10.142 -46.631  1.00  0.00     0.068 C 
HETATM    3  C2  UNL     1     -33.236   9.361 -45.645  1.00  0.00     0.227 C 
ENDROOT
BRANCH   3   4
HETATM    4  C3  UNL     1     -32.903  10.215 -44.508  1.00  0.00     0.252 C 
HETATM    5  O1  UNL     1     -32.147  11.234 -44.741  1.00  0.00    -0.271 OA
HETATM    6  N2  UNL     1     -33.344  10.011 -43.182  1.00  0.00    -0.134 N 
HETATM    7  C4  UNL     1     -32.901  10.969 -42.169  1.00  0.00     0.276 A 
HETATM    8  C6  UNL     1     -34.175   8.922 -42.880  1.00  0.00     0.684 A 
HETATM    9  N3  UNL     1     -33.405  10.652 -40.882  1.00  0.00    -0.347 N 
HETATM   10  C5  UNL     1     -34.157   9.677 -40.571  1.00  0.00     0.204 A 
ATOM     11  H3  UNL     1     -33.133  11.275 -40.122  1.00  0.00     0.163 HD
HETATM   12  N4  UNL     1     -34.547   9.544 -39.210  1.00  0.00    -0.063 NA
HETATM   13  N5  UNL     1     -34.606   8.740 -41.512  1.00  0.00    -0.164 N 
ATOM     14  H5  UNL     1     -35.210   7.963 -41.244  1.00  0.00     0.187 HD
HETATM   15  N6  UNL     1     -34.596   8.057 -43.733  1.00  0.00    -0.234 N 
ATOM     16  H62 UNL     1     -34.292   8.186 -44.698  1.00  0.00     0.174 HD
ATOM     17  H61 UNL     1     -35.201   7.266 -43.513  1.00  0.00     0.174 HD
ENDBRANCH   3   4
TORSDOF 1
ENDMDL
MODEL 2
REMARK VINA RESULT: -5.014973634      1.069      1.123
REMARK  1 active torsions:
REMARK  status: ('A' for Active; 'I' for Inactive)
REMARK    1  A    between atoms: C2_3  and  C3_4 
REMARK       I    between atoms: C3_4  and  N2_6 
ROOT
HETATM    1  N1  UNL     1     -31.774   8.789 -47.423  1.00  0.00    -0.197 NA
HETATM    2  C1  UNL     1     -32.625   9.007 -46.670  1.00  0.00     0.068 C 
HETATM    3  C2  UNL     1     -33.718   9.278 -45.683  1.00  0.00     0.227 C 
ENDROOT
BRANCH   3   4
HETATM    4  C3  UNL     1     -33.193  10.096 -44.593  1.00  0.00     0.252 C 
HETATM    5  O1  UNL     1     -32.361  11.029 -44.907  1.00  0.00    -0.271 OA
HETATM    6  N2  UNL     1     -33.527   9.942 -43.229  1.00  0.00    -0.134 N 
HETATM    7  C4  UNL     1     -32.894  10.851 -42.274  1.00  0.00     0.276 A 
HETATM    8  C6  UNL     1     -34.435   8.947 -42.838  1.00  0.00     0.684 A 
HETATM    9  N3  UNL     1     -33.306  10.592 -40.942  1.00  0.00    -0.347 N 
HETATM   10  C5  UNL     1     -34.123   9.702 -40.550  1.00  0.00     0.204 A 
ATOM     11  H3  UNL     1     -32.901  11.185 -40.218  1.00  0.00     0.163 HD
HETATM   12  N4  UNL     1     -34.396   9.615 -39.157  1.00  0.00    -0.063 NA
HETATM   13  N5  UNL     1     -34.753   8.815 -41.434  1.00  0.00    -0.164 N 
ATOM     14  H5  UNL     1     -35.406   8.106 -41.101  1.00  0.00     0.187 HD
HETATM   15  N6  UNL     1     -35.022   8.129 -43.637  1.00  0.00    -0.234 N 
ATOM     16  H62 UNL     1     -34.798   8.222 -44.628  1.00  0.00     0.174 HD
ATOM     17  H61 UNL     1     -35.682   7.406 -43.353  1.00  0.00     0.174 HD
ENDBRANCH   3   4
TORSDOF 1
ENDMDL
MODEL 3
REMARK VINA RESULT: -5.011402771      2.666      3.636
REMARK  1 active torsions:
REMARK  status: ('A' for Active; 'I' for Inactive)
REMARK    1  A    between atoms: C2_3  and  C3_4 
REMARK       I    between atoms: C3_4  and  N2_6 
ROOT
HETATM    1  N1  UNL     1     -35.257   7.428 -44.599  1.00  0.00    -0.197 NA
HETATM    2  C1  UNL     1     -35.264   8.410 -43.988  1.00  0.00     0.068 C 
HETATM    3  C2  UNL     1     -35.284   9.674 -43.185  1.00  0.00     0.227 C 
ENDROOT
BRANCH   3   4
HETATM    4  C3  UNL     1     -34.707   9.420 -41.868  1.00  0.00     0.252 C 
HETATM    5  O1  UNL     1     -33.919   8.405 -41.758  1.00  0.00    -0.271 OA
HETATM    6  N2  UNL     1     -34.947  10.196 -40.713  1.00  0.00    -0.134 N 
HETATM    7  C4  UNL     1     -34.286   9.784 -39.474  1.00  0.00     0.276 A 
HETATM    8  C6  UNL     1     -35.790  11.315 -40.783  1.00  0.00     0.684 A 
HETATM    9  N3  UNL     1     -34.610  10.638 -38.390  1.00  0.00    -0.347 N 
HETATM   10  C5  UNL     1     -35.368  11.657 -38.415  1.00  0.00     0.204 A 
ATOM     11  H3  UNL     1     -34.189  10.410 -37.490  1.00  0.00     0.163 HD
HETATM   12  N4  UNL     1     -35.557  12.377 -37.204  1.00  0.00    -0.063 NA
HETATM   13  N5  UNL     1     -36.016  12.087 -39.582  1.00  0.00    -0.164 N 
ATOM     14  H5  UNL     1     -36.621  12.908 -39.583  1.00  0.00     0.187 HD
HETATM   15  N6  UNL     1     -36.388  11.722 -41.846  1.00  0.00    -0.234 N 
ATOM     16  H62 UNL     1     -36.229  11.177 -42.693  1.00  0.00     0.174 HD
ATOM     17  H61 UNL     1     -37.001  12.535 -41.897  1.00  0.00     0.174 HD
ENDBRANCH   3   4
TORSDOF 1
ENDMDL
MODEL 4
REMARK VINA RESULT: -4.971037055      2.537      3.616
REMARK  1 active torsions:
REMARK  status: ('A' for Active; 'I' for Inactive)
REMARK    1  A    between atoms: C2_3  and  C3_4 
REMARK       I    between atoms: C3_4  and  N2_6 
ROOT
HETATM    1  N1  UNL     1     -35.615   8.035 -43.842  1.00  0.00    -0.197 NA
HETATM    2  C1  UNL     1     -34.895   8.770 -43.312  1.00  0.00     0.068 C 
HETATM    3  C2  UNL     1     -33.967   9.732 -42.639  1.00  0.00     0.227 C 
ENDROOT
BRANCH   3   4
HETATM    4  C3  UNL     1     -34.730  10.872 -42.140  1.00  0.00     0.252 C 
HETATM    5  O1  UNL     1     -35.269  11.647 -43.018  1.00  0.00    -0.271 OA
HETATM    6  N2  UNL     1     -34.920  11.188 -40.777  1.00  0.00    -0.134 N 
HETATM    7  C4  UNL     1     -35.711  12.379 -40.465  1.00  0.00     0.276 A 
HETATM    8  C6  UNL     1     -34.361  10.371 -39.783  1.00  0.00     0.684 A 
HETATM    9  N3  UNL     1     -35.824  12.590 -39.067  1.00  0.00    -0.347 N 
HETATM   10  C5  UNL     1     -35.332  11.874 -38.140  1.00  0.00     0.204 A 
ATOM     11  H3  UNL     1     -36.359  13.407 -38.773  1.00  0.00     0.163 HD
HETATM   12  N4  UNL     1     -35.569  12.270 -36.795  1.00  0.00    -0.063 NA
HETATM   13  N5  UNL     1     -34.573  10.724 -38.398  1.00  0.00    -0.164 N 
ATOM     14  H5  UNL     1     -34.186  10.161 -37.640  1.00  0.00     0.187 HD
HETATM   15  N6  UNL     1     -33.666   9.313 -40.005  1.00  0.00    -0.234 N 
ATOM     16  H62 UNL     1     -33.516   9.064 -40.982  1.00  0.00     0.174 HD
ATOM     17  H61 UNL     1     -33.259   8.718 -39.283  1.00  0.00     0.174 HD
ENDBRANCH   3   4
TORSDOF 1
ENDMDL
MODEL 5
REMARK VINA RESULT: -4.901480446      2.472      4.058
REMARK  1 active torsions:
REMARK  status: ('A' for Active; 'I' for Inactive)
REMARK    1  A    between atoms: C2_3  and  C3_4 
REMARK       I    between atoms: C3_4  and  N2_6 
ROOT
HETATM    1  N1  UNL     1     -32.632  15.635 -43.055  1.00  0.00    -0.197 NA
HETATM    2  C1  UNL     1     -32.934  14.671 -42.490  1.00  0.00     0.068 C 
HETATM    3  C2  UNL     1     -33.335  13.419 -41.774  1.00  0.00     0.227 C 
ENDROOT
BRANCH   3   4
HETATM    4  C3  UNL     1     -32.789  12.262 -42.479  1.00  0.00     0.252 C 
HETATM    5  O1  UNL     1     -31.535  12.296 -42.777  1.00  0.00    -0.271 OA
HETATM    6  N2  UNL     1     -33.526  11.119 -42.855  1.00  0.00    -0.134 N 
HETATM    7  C4  UNL     1     -32.809  10.058 -43.565  1.00  0.00     0.276 A 
HETATM    8  C6  UNL     1     -34.891  11.031 -42.545  1.00  0.00     0.684 A 
HETATM    9  N3  UNL     1     -33.658   8.971 -43.891  1.00  0.00    -0.347 N 
HETATM   10  C5  UNL     1     -34.895   8.856 -43.628  1.00  0.00     0.204 A 
ATOM     11  H3  UNL     1     -33.228   8.194 -44.392  1.00  0.00     0.163 HD
HETATM   12  N4  UNL     1     -35.560   7.672 -44.050  1.00  0.00    -0.063 NA
HETATM   13  N5  UNL     1     -35.617   9.847 -42.947  1.00  0.00    -0.164 N 
ATOM     14  H5  UNL     1     -36.610   9.738 -42.744  1.00  0.00     0.187 HD
HETATM   15  N6  UNL     1     -35.564  11.930 -41.919  1.00  0.00    -0.234 N 
ATOM     16  H62 UNL     1     -35.052  12.765 -41.635  1.00  0.00     0.174 HD
ATOM     17  H61 UNL     1     -36.556  11.866 -41.693  1.00  0.00     0.174 HD
ENDBRANCH   3   4
TORSDOF 1
ENDMDL
