MODEL 1
REMARK VINA RESULT: -5.378323162      0.000      0.000
REMARK  1 active torsions:
REMARK  status: ('A' for Active; 'I' for Inactive)
REMARK    1  A    between atoms: N5_15  and  C5_16 
ROOT
HETATM    1  N1  UNL     1     -34.506   8.033 -43.438  1.00  0.00    -0.383 N 
ATOM      2  H11 UNL     1     -34.270   8.179 -44.419  1.00  0.00     0.157 HD
ATOM      3  H12 UNL     1     -35.015   7.209 -43.120  1.00  0.00     0.157 HD
HETATM    4  C1  UNL     1     -34.144   8.920 -42.608  1.00  0.00     0.134 A 
HETATM    5  N2  UNL     1     -34.460   8.725 -41.292  1.00  0.00    -0.293 N 
ATOM      6  H2  UNL     1     -34.970   7.888 -41.007  1.00  0.00     0.172 HD
HETATM    7  C2  UNL     1     -34.098   9.635 -40.380  1.00  0.00     0.326 A 
HETATM    8  O1  UNL     1     -34.386   9.462 -39.167  1.00  0.00    -0.247 OA
HETATM    9  N3  UNL     1     -33.429  10.721 -40.794  1.00  0.00    -0.305 N 
ATOM     10  H3  UNL     1     -33.157  11.410 -40.092  1.00  0.00     0.171 HD
HETATM   11  C3  UNL     1     -33.096  10.959 -42.061  1.00  0.00     0.086 A 
HETATM   12  C4  UNL     1     -32.429  11.970 -42.720  1.00  0.00     0.140 A 
HETATM   13  N4  UNL     1     -32.384  11.685 -44.007  1.00  0.00    -0.300 N 
ATOM     14  H4  UNL     1     -31.950  12.259 -44.730  1.00  0.00     0.186 HD
HETATM   15  N5  UNL     1     -33.010  10.504 -44.207  1.00  0.00    -0.226 N 
HETATM   16  C6  UNL     1     -33.459  10.030 -43.036  1.00  0.00     0.131 A 
ENDROOT
BRANCH  15  17
HETATM   17  C5  UNL     1     -33.137   9.913 -45.487  1.00  0.00     0.376 C 
HETATM   18  O2  UNL     1     -32.745   8.810 -45.877  1.00  0.00    -0.281 OA
ENDBRANCH  15  17
TORSDOF 1
ENDMDL
MODEL 2
REMARK VINA RESULT: -5.334320375      2.039      3.717
REMARK  1 active torsions:
REMARK  status: ('A' for Active; 'I' for Inactive)
REMARK    1  A    between atoms: N5_15  and  C5_16 
ROOT
HETATM    1  N1  UNL     1     -33.287  11.130 -45.132  1.00  0.00    -0.383 N 
ATOM      2  H11 UNL     1     -32.883  11.931 -44.647  1.00  0.00     0.157 HD
ATOM      3  H12 UNL     1     -33.333  11.081 -46.150  1.00  0.00     0.157 HD
HETATM    4  C1  UNL     1     -33.739  10.180 -44.426  1.00  0.00     0.134 A 
HETATM    5  N2  UNL     1     -34.280   9.107 -45.078  1.00  0.00    -0.293 N 
ATOM      6  H2  UNL     1     -34.310   9.089 -46.098  1.00  0.00     0.172 HD
HETATM    7  C2  UNL     1     -34.770   8.080 -44.373  1.00  0.00     0.326 A 
HETATM    8  O1  UNL     1     -35.269   7.088 -44.966  1.00  0.00    -0.247 OA
HETATM    9  N3  UNL     1     -34.712   8.140 -43.034  1.00  0.00    -0.305 N 
ATOM     10  H3  UNL     1     -35.088   7.353 -42.505  1.00  0.00     0.171 HD
HETATM   11  C3  UNL     1     -34.196   9.160 -42.352  1.00  0.00     0.086 A 
HETATM   12  C4  UNL     1     -34.024   9.450 -41.014  1.00  0.00     0.140 A 
HETATM   13  N4  UNL     1     -33.442  10.629 -40.904  1.00  0.00    -0.300 N 
ATOM     14  H4  UNL     1     -33.195  11.092 -40.029  1.00  0.00     0.186 HD
HETATM   15  N5  UNL     1     -33.228  11.120 -42.144  1.00  0.00    -0.226 N 
HETATM   16  C6  UNL     1     -33.677  10.246 -43.056  1.00  0.00     0.131 A 
ENDROOT
BRANCH  15  17
HETATM   17  C5  UNL     1     -32.616  12.375 -42.374  1.00  0.00     0.376 C 
HETATM   18  O2  UNL     1     -31.528  12.626 -42.901  1.00  0.00    -0.281 OA
ENDBRANCH  15  17
TORSDOF 1
ENDMDL
MODEL 3
REMARK VINA RESULT: -5.114959745      1.741      2.291
REMARK  1 active torsions:
REMARK  status: ('A' for Active; 'I' for Inactive)
REMARK    1  A    between atoms: N5_15  and  C5_16 
ROOT
HETATM    1  N1  UNL     1     -31.647  10.116 -42.170  1.00  0.00    -0.383 N 
ATOM      2  H11 UNL     1     -31.371  10.450 -43.094  1.00  0.00     0.157 HD
ATOM      3  H12 UNL     1     -30.961   9.861 -41.460  1.00  0.00     0.157 HD
HETATM    4  C1  UNL     1     -32.886  10.024 -41.923  1.00  0.00     0.134 A 
HETATM    5  N2  UNL     1     -33.255   9.577 -40.685  1.00  0.00    -0.293 N 
ATOM      6  H2  UNL     1     -32.543   9.330 -39.997  1.00  0.00     0.172 HD
HETATM    7  C2  UNL     1     -34.553   9.463 -40.380  1.00  0.00     0.326 A 
HETATM    8  O1  UNL     1     -34.901   9.052 -39.242  1.00  0.00    -0.247 OA
HETATM    9  N3  UNL     1     -35.459   9.797 -41.310  1.00  0.00    -0.305 N 
ATOM     10  H3  UNL     1     -36.446   9.707 -41.070  1.00  0.00     0.171 HD
HETATM   11  C3  UNL     1     -35.153  10.238 -42.529  1.00  0.00     0.086 A 
HETATM   12  C4  UNL     1     -35.880  10.635 -43.633  1.00  0.00     0.140 A 
HETATM   13  N4  UNL     1     -35.044  10.983 -44.592  1.00  0.00    -0.300 N 
ATOM     14  H4  UNL     1     -35.307  11.318 -45.519  1.00  0.00     0.186 HD
HETATM   15  N5  UNL     1     -33.781  10.822 -44.140  1.00  0.00    -0.226 N 
HETATM   16  C6  UNL     1     -33.810  10.367 -42.880  1.00  0.00     0.131 A 
ENDROOT
BRANCH  15  17
HETATM   17  C5  UNL     1     -32.643  11.110 -44.932  1.00  0.00     0.376 C 
HETATM   18  O2  UNL     1     -31.740  11.927 -44.729  1.00  0.00    -0.281 OA
ENDBRANCH  15  17
TORSDOF 1
ENDMDL
MODEL 4
REMARK VINA RESULT: -5.103616876      2.364      2.539
REMARK  1 active torsions:
REMARK  status: ('A' for Active; 'I' for Inactive)
REMARK    1  A    between atoms: N5_15  and  C5_16 
ROOT
HETATM    1  N1  UNL     1     -33.722   7.962 -41.784  1.00  0.00    -0.383 N 
ATOM      2  H11 UNL     1     -33.834   7.686 -42.759  1.00  0.00     0.157 HD
ATOM      3  H12 UNL     1     -33.138   7.435 -41.135  1.00  0.00     0.157 HD
HETATM    4  C1  UNL     1     -34.340   8.997 -41.391  1.00  0.00     0.134 A 
HETATM    5  N2  UNL     1     -34.191   9.366 -40.084  1.00  0.00    -0.293 N 
ATOM      6  H2  UNL     1     -33.598   8.817 -39.460  1.00  0.00     0.172 HD
HETATM    7  C2  UNL     1     -34.825  10.452 -39.624  1.00  0.00     0.326 A 
HETATM    8  O1  UNL     1     -34.692  10.800 -38.422  1.00  0.00    -0.247 OA
HETATM    9  N3  UNL     1     -35.594  11.149 -40.474  1.00  0.00    -0.305 N 
ATOM     10  H3  UNL     1     -36.074  11.975 -40.116  1.00  0.00     0.171 HD
HETATM   11  C3  UNL     1     -35.773  10.832 -41.755  1.00  0.00     0.086 A 
HETATM   12  C4  UNL     1     -36.491  11.372 -42.801  1.00  0.00     0.140 A 
HETATM   13  N4  UNL     1     -36.301  10.632 -43.877  1.00  0.00    -0.300 N 
ATOM     14  H4  UNL     1     -36.712  10.799 -44.796  1.00  0.00     0.186 HD
HETATM   15  N5  UNL     1     -35.471   9.615 -43.557  1.00  0.00    -0.226 N 
HETATM   16  C6  UNL     1     -35.127   9.706 -42.265  1.00  0.00     0.131 A 
ENDROOT
BRANCH  15  17
HETATM   17  C5  UNL     1     -35.066   8.635 -44.495  1.00  0.00     0.376 C 
HETATM   18  O2  UNL     1     -35.232   7.412 -44.464  1.00  0.00    -0.281 OA
ENDBRANCH  15  17
TORSDOF 1
ENDMDL
MODEL 5
REMARK VINA RESULT: -5.069493184      1.339      2.547
REMARK  1 active torsions:
REMARK  status: ('A' for Active; 'I' for Inactive)
REMARK    1  A    between atoms: N5_15  and  C5_16 
ROOT
HETATM    1  N1  UNL     1     -32.008  11.374 -42.301  1.00  0.00    -0.383 N 
ATOM      2  H11 UNL     1     -31.717  11.553 -43.262  1.00  0.00     0.157 HD
ATOM      3  H12 UNL     1     -31.571  11.841 -41.506  1.00  0.00     0.157 HD
HETATM    4  C1  UNL     1     -32.945  10.541 -42.116  1.00  0.00     0.134 A 
HETATM    5  N2  UNL     1     -33.336  10.301 -40.829  1.00  0.00    -0.293 N 
ATOM      6  H2  UNL     1     -32.879  10.785 -40.056  1.00  0.00     0.172 HD
HETATM    7  C2  UNL     1     -34.322   9.428 -40.586  1.00  0.00     0.326 A 
HETATM    8  O1  UNL     1     -34.688   9.202 -39.403  1.00  0.00    -0.247 OA
HETATM    9  N3  UNL     1     -34.900   8.812 -41.628  1.00  0.00    -0.305 N 
ATOM     10  H3  UNL     1     -35.650   8.149 -41.434  1.00  0.00     0.171 HD
HETATM   11  C3  UNL     1     -34.557   9.010 -42.899  1.00  0.00     0.086 A 
HETATM   12  C4  UNL     1     -34.987   8.514 -44.113  1.00  0.00     0.140 A 
HETATM   13  N4  UNL     1     -34.278   9.071 -45.077  1.00  0.00    -0.300 N 
ATOM     14  H4  UNL     1     -34.383   8.888 -46.075  1.00  0.00     0.186 HD
HETATM   15  N5  UNL     1     -33.391   9.924 -44.519  1.00  0.00    -0.226 N 
HETATM   16  C6  UNL     1     -33.534   9.913 -43.187  1.00  0.00     0.131 A 
ENDROOT
BRANCH  15  17
HETATM   17  C5  UNL     1     -32.476  10.685 -45.287  1.00  0.00     0.376 C 
HETATM   18  O2  UNL     1     -32.029  11.814 -45.070  1.00  0.00    -0.281 OA
ENDBRANCH  15  17
TORSDOF 1
ENDMDL
