MODEL 1
REMARK VINA RESULT: -9.951701727      0.000      0.000
REMARK  7 active torsions:
REMARK  status: ('A' for Active; 'I' for Inactive)
REMARK    1  A    between atoms: C2_2  and  C3_3 
REMARK    2  A    between atoms: C2_2  and  C8_8 
REMARK    3  A    between atoms: C11_11  and  C12_12 
REMARK    4  A    between atoms: C12_12  and  N1_13 
REMARK       I    between atoms: N1_13  and  C13_15 
REMARK    5  A    between atoms: C13_15  and  C14_17 
REMARK    6  A    between atoms: C14_17  and  N2_18 
REMARK       I    between atoms: N2_18  and  C15_20 
REMARK    7  A    between atoms: C15_20  and  C16_22 
ROOT
HETATM    1  N1  UNL     1      13.674   9.154   0.723  1.00  0.00    -0.357 N 
ATOM      2  H1  UNL     1      12.859   9.176   0.111  1.00  0.00     0.162 HD
HETATM    3  C13 UNL     1      14.787   9.992   0.427  1.00  0.00     0.246 C 
HETATM    4  O1  UNL     1      15.772   9.943   1.203  1.00  0.00    -0.271 OA
ENDROOT
BRANCH   1   5
HETATM    5  C12 UNL     1      13.669   8.272   1.873  1.00  0.00     0.147 C 
BRANCH   5   6
HETATM    6  C11 UNL     1      12.474   8.589   2.720  1.00  0.00     0.094 C 
HETATM    7  C10 UNL     1      11.682   9.742   2.192  1.00  0.00     0.027 C 
HETATM    8  C9  UNL     1      10.757  10.179   3.343  1.00  0.00     0.013 C 
HETATM    9  C8  UNL     1       9.970   8.983   3.795  1.00  0.00     0.031 C 
HETATM   10  C24 UNL     1      10.206   7.756   2.928  1.00  0.00     0.123 C 
HETATM   11  N3  UNL     1      11.620   7.456   2.906  1.00  0.00    -0.415 N 
ATOM     12  H3  UNL     1      11.982   6.509   3.015  1.00  0.00     0.153 HD
BRANCH   9  13
HETATM   13  C2  UNL     1       8.564   9.241   4.124  1.00  0.00    -0.079 C 
HETATM   14  C1  UNL     1       8.103   8.642   5.222  1.00  0.00     0.015 C 
BRANCH  13  15
HETATM   15  C3  UNL     1       7.639  10.088   3.366  1.00  0.00     0.014 C 
HETATM   16  C4  UNL     1       6.282  10.312   3.917  1.00  0.00     0.009 C 
HETATM   17  C5  UNL     1       5.315  10.228   2.720  1.00  0.00     0.001 C 
HETATM   18  C6  UNL     1       6.266  10.678   1.598  1.00  0.00     0.001 C 
HETATM   19  C7  UNL     1       7.440   9.726   1.920  1.00  0.00     0.009 C 
ENDBRANCH  13  15
ENDBRANCH   9  13
ENDBRANCH   5   6
ENDBRANCH   1   5
BRANCH   3  20
HETATM   20  C14 UNL     1      14.752  10.865  -0.741  1.00  0.00     0.113 C 
HETATM   21  C20 UNL     1      13.477  11.684  -0.718  1.00  0.00     0.041 C 
HETATM   22  C21 UNL     1      13.783  12.749  -1.757  1.00  0.00     0.003 C 
HETATM   23  C22 UNL     1      15.288  12.955  -1.688  1.00  0.00     0.003 C 
HETATM   24  C23 UNL     1      15.783  11.994  -0.632  1.00  0.00     0.041 C 
BRANCH  20  25
HETATM   25  N2  UNL     1      14.923  10.160  -1.970  1.00  0.00    -0.342 N 
HETATM   26  C15 UNL     1      16.159   9.619  -2.363  1.00  0.00     0.226 C 
HETATM   27  O2  UNL     1      17.161   9.743  -1.628  1.00  0.00    -0.273 OA
ATOM     28  H2  UNL     1      14.118  10.044  -2.586  1.00  0.00     0.163 HD
BRANCH  26  29
HETATM   29  C16 UNL     1      16.301   8.897  -3.647  1.00  0.00     0.030 C 
HETATM   30  C17 UNL     1      17.688   9.106  -4.178  1.00  0.00     0.024 C 
HETATM   31  C18 UNL     1      16.029   7.430  -3.405  1.00  0.00     0.024 C 
HETATM   32  C19 UNL     1      15.281   9.444  -4.622  1.00  0.00     0.024 C 
ENDBRANCH  26  29
ENDBRANCH  20  25
ENDBRANCH   3  20
TORSDOF 7
ENDMDL
MODEL 2
REMARK VINA RESULT: -9.939960938      2.260      3.178
REMARK  7 active torsions:
REMARK  status: ('A' for Active; 'I' for Inactive)
REMARK    1  A    between atoms: C2_2  and  C3_3 
REMARK    2  A    between atoms: C2_2  and  C8_8 
REMARK    3  A    between atoms: C11_11  and  C12_12 
REMARK    4  A    between atoms: C12_12  and  N1_13 
REMARK       I    between atoms: N1_13  and  C13_15 
REMARK    5  A    between atoms: C13_15  and  C14_17 
REMARK    6  A    between atoms: C14_17  and  N2_18 
REMARK       I    between atoms: N2_18  and  C15_20 
REMARK    7  A    between atoms: C15_20  and  C16_22 
ROOT
HETATM    1  N1  UNL     1      12.724  10.086   3.794  1.00  0.00    -0.357 N 
ATOM      2  H1  UNL     1      13.029  11.057   3.845  1.00  0.00     0.162 HD
HETATM    3  C13 UNL     1      12.775   9.408   2.542  1.00  0.00     0.246 C 
HETATM    4  O1  UNL     1      12.395   8.212   2.515  1.00  0.00    -0.271 OA
ENDROOT
BRANCH   1   5
HETATM    5  C12 UNL     1      12.251   9.430   4.997  1.00  0.00     0.147 C 
BRANCH   5   6
HETATM    6  C11 UNL     1      10.765   9.598   5.085  1.00  0.00     0.094 C 
HETATM    7  C10 UNL     1      10.286  10.858   4.437  1.00  0.00     0.027 C 
HETATM    8  C9  UNL     1       8.849  11.071   4.945  1.00  0.00     0.013 C 
HETATM    9  C8  UNL     1       8.056   9.830   4.653  1.00  0.00     0.031 C 
HETATM   10  C24 UNL     1       8.836   8.804   3.846  1.00  0.00     0.123 C 
HETATM   11  N3  UNL     1      10.055   8.476   4.552  1.00  0.00    -0.415 N 
ATOM     12  H3  UNL     1      10.384   7.517   4.661  1.00  0.00     0.153 HD
BRANCH   9  13
HETATM   13  C2  UNL     1       6.681  10.054   4.193  1.00  0.00    -0.079 C 
HETATM   14  C1  UNL     1       5.812  10.448   5.125  1.00  0.00     0.015 C 
BRANCH  13  15
HETATM   15  C3  UNL     1       6.188   9.890   2.823  1.00  0.00     0.014 C 
HETATM   16  C4  UNL     1       6.805  10.707   1.752  1.00  0.00     0.009 C 
HETATM   17  C5  UNL     1       5.648  11.174   0.849  1.00  0.00     0.001 C 
HETATM   18  C6  UNL     1       4.663  10.017   1.087  1.00  0.00     0.001 C 
HETATM   19  C7  UNL     1       4.702  10.017   2.631  1.00  0.00     0.009 C 
ENDBRANCH  13  15
ENDBRANCH   9  13
ENDBRANCH   5   6
ENDBRANCH   1   5
BRANCH   3  20
HETATM   20  C14 UNL     1      13.257  10.105   1.355  1.00  0.00     0.113 C 
HETATM   21  C20 UNL     1      12.105  10.313   0.392  1.00  0.00     0.041 C 
HETATM   22  C21 UNL     1      12.691  11.336  -0.565  1.00  0.00     0.003 C 
HETATM   23  C22 UNL     1      13.658  12.159   0.272  1.00  0.00     0.003 C 
HETATM   24  C23 UNL     1      13.600  11.568   1.662  1.00  0.00     0.041 C 
BRANCH  20  25
HETATM   25  N2  UNL     1      14.370   9.457   0.740  1.00  0.00    -0.342 N 
HETATM   26  C15 UNL     1      15.588   9.255   1.410  1.00  0.00     0.226 C 
HETATM   27  O2  UNL     1      15.730   9.643   2.588  1.00  0.00    -0.273 OA
ATOM     28  H2  UNL     1      14.277   9.129  -0.221  1.00  0.00     0.163 HD
BRANCH  26  29
HETATM   29  C16 UNL     1      16.723   8.582   0.739  1.00  0.00     0.030 C 
HETATM   30  C17 UNL     1      17.734   8.177   1.771  1.00  0.00     0.024 C 
HETATM   31  C18 UNL     1      16.195   7.376  -0.004  1.00  0.00     0.024 C 
HETATM   32  C19 UNL     1      17.342   9.550  -0.247  1.00  0.00     0.024 C 
ENDBRANCH  26  29
ENDBRANCH  20  25
ENDBRANCH   3  20
TORSDOF 7
ENDMDL
MODEL 3
REMARK VINA RESULT: -9.921407732      2.107      3.606
REMARK  7 active torsions:
REMARK  status: ('A' for Active; 'I' for Inactive)
REMARK    1  A    between atoms: C2_2  and  C3_3 
REMARK    2  A    between atoms: C2_2  and  C8_8 
REMARK    3  A    between atoms: C11_11  and  C12_12 
REMARK    4  A    between atoms: C12_12  and  N1_13 
REMARK       I    between atoms: N1_13  and  C13_15 
REMARK    5  A    between atoms: C13_15  and  C14_17 
REMARK    6  A    between atoms: C14_17  and  N2_18 
REMARK       I    between atoms: N2_18  and  C15_20 
REMARK    7  A    between atoms: C15_20  and  C16_22 
ROOT
HETATM    1  N1  UNL     1      13.381   7.845   2.515  1.00  0.00    -0.357 N 
ATOM      2  H1  UNL     1      12.871   7.788   1.633  1.00  0.00     0.162 HD
HETATM    3  C13 UNL     1      14.693   8.398   2.523  1.00  0.00     0.246 C 
HETATM    4  O1  UNL     1      15.291   8.456   3.625  1.00  0.00    -0.271 OA
ENDROOT
BRANCH   1   5
HETATM    5  C12 UNL     1      12.750   7.362   3.727  1.00  0.00     0.147 C 
BRANCH   5   6
HETATM    6  C11 UNL     1      11.535   8.194   4.003  1.00  0.00     0.094 C 
HETATM    7  C10 UNL     1      11.189   9.106   2.869  1.00  0.00     0.027 C 
HETATM    8  C9  UNL     1      10.201  10.136   3.446  1.00  0.00     0.013 C 
HETATM    9  C8  UNL     1       9.057   9.393   4.073  1.00  0.00     0.031 C 
HETATM   10  C24 UNL     1       9.134   7.890   3.850  1.00  0.00     0.123 C 
HETATM   11  N3  UNL     1      10.397   7.401   4.354  1.00  0.00    -0.415 N 
ATOM     12  H3  UNL     1      10.472   6.554   4.917  1.00  0.00     0.153 HD
BRANCH   9  13
HETATM   13  C2  UNL     1       7.730   9.978   3.857  1.00  0.00    -0.079 C 
HETATM   14  C1  UNL     1       7.250  10.718   4.856  1.00  0.00     0.015 C 
BRANCH  13  15
HETATM   15  C3  UNL     1       6.901   9.827   2.658  1.00  0.00     0.014 C 
HETATM   16  C4  UNL     1       7.341  10.497   1.412  1.00  0.00     0.009 C 
HETATM   17  C5  UNL     1       6.070  11.088   0.772  1.00  0.00     0.001 C 
HETATM   18  C6  UNL     1       5.030  10.097   1.323  1.00  0.00     0.001 C 
HETATM   19  C7  UNL     1       5.443  10.160   2.811  1.00  0.00     0.009 C 
ENDBRANCH  13  15
ENDBRANCH   9  13
ENDBRANCH   5   6
ENDBRANCH   1   5
BRANCH   3  20
HETATM   20  C14 UNL     1      15.292   8.871   1.280  1.00  0.00     0.113 C 
HETATM   21  C20 UNL     1      16.596   9.580   1.589  1.00  0.00     0.041 C 
HETATM   22  C21 UNL     1      17.228   9.666   0.210  1.00  0.00     0.003 C 
HETATM   23  C22 UNL     1      16.731   8.436  -0.534  1.00  0.00     0.003 C 
HETATM   24  C23 UNL     1      15.827   7.709   0.435  1.00  0.00     0.041 C 
BRANCH  20  25
HETATM   25  N2  UNL     1      14.406   9.676   0.504  1.00  0.00    -0.342 N 
HETATM   26  C15 UNL     1      13.950  10.932   0.941  1.00  0.00     0.226 C 
HETATM   27  O2  UNL     1      14.319  11.386   2.044  1.00  0.00    -0.273 OA
ATOM     28  H2  UNL     1      14.092   9.328  -0.402  1.00  0.00     0.163 HD
BRANCH  26  29
HETATM   29  C16 UNL     1      13.027  11.738   0.110  1.00  0.00     0.030 C 
HETATM   30  C17 UNL     1      11.735  10.994  -0.052  1.00  0.00     0.024 C 
HETATM   31  C18 UNL     1      12.805  13.068   0.793  1.00  0.00     0.024 C 
HETATM   32  C19 UNL     1      13.672  11.967  -1.240  1.00  0.00     0.024 C 
ENDBRANCH  26  29
ENDBRANCH  20  25
ENDBRANCH   3  20
TORSDOF 7
ENDMDL
MODEL 4
REMARK VINA RESULT: -9.737837575      2.156      3.631
REMARK  7 active torsions:
REMARK  status: ('A' for Active; 'I' for Inactive)
REMARK    1  A    between atoms: C2_2  and  C3_3 
REMARK    2  A    between atoms: C2_2  and  C8_8 
REMARK    3  A    between atoms: C11_11  and  C12_12 
REMARK    4  A    between atoms: C12_12  and  N1_13 
REMARK       I    between atoms: N1_13  and  C13_15 
REMARK    5  A    between atoms: C13_15  and  C14_17 
REMARK    6  A    between atoms: C14_17  and  N2_18 
REMARK       I    between atoms: N2_18  and  C15_20 
REMARK    7  A    between atoms: C15_20  and  C16_22 
ROOT
HETATM    1  N1  UNL     1      14.488   9.047   3.709  1.00  0.00    -0.357 N 
ATOM      2  H1  UNL     1      14.857   9.998   3.689  1.00  0.00     0.162 HD
HETATM    3  C13 UNL     1      14.653   8.216   2.564  1.00  0.00     0.246 C 
HETATM    4  O1  UNL     1      14.190   7.051   2.623  1.00  0.00    -0.271 OA
ENDROOT
BRANCH   1   5
HETATM    5  C12 UNL     1      13.811   8.578   4.900  1.00  0.00     0.147 C 
BRANCH   5   6
HETATM    6  C11 UNL     1      12.352   8.900   4.785  1.00  0.00     0.094 C 
HETATM    7  C10 UNL     1      12.093  10.115   3.953  1.00  0.00     0.027 C 
HETATM    8  C9  UNL     1      10.640  10.527   4.253  1.00  0.00     0.013 C 
HETATM    9  C8  UNL     1       9.752   9.345   3.998  1.00  0.00     0.031 C 
HETATM   10  C24 UNL     1      10.499   8.159   3.408  1.00  0.00     0.123 C 
HETATM   11  N3  UNL     1      11.586   7.798   4.290  1.00  0.00    -0.415 N 
ATOM     12  H3  UNL     1      11.791   6.831   4.540  1.00  0.00     0.153 HD
BRANCH   9  13
HETATM   13  C2  UNL     1       8.471   9.647   3.350  1.00  0.00    -0.079 C 
HETATM   14  C1  UNL     1       8.523   9.880   2.038  1.00  0.00     0.015 C 
BRANCH  13  15
HETATM   15  C3  UNL     1       7.162   9.712   4.005  1.00  0.00     0.014 C 
HETATM   16  C4  UNL     1       5.990  10.113   3.193  1.00  0.00     0.009 C 
HETATM   17  C5  UNL     1       5.158  11.059   4.080  1.00  0.00     0.001 C 
HETATM   18  C6  UNL     1       5.557  10.519   5.464  1.00  0.00     0.001 C 
HETATM   19  C7  UNL     1       7.089  10.530   5.264  1.00  0.00     0.009 C 
ENDBRANCH  13  15
ENDBRANCH   9  13
ENDBRANCH   5   6
ENDBRANCH   1   5
BRANCH   3  20
HETATM   20  C14 UNL     1      15.340   8.728   1.384  1.00  0.00     0.113 C 
HETATM   21  C20 UNL     1      16.547   9.538   1.817  1.00  0.00     0.041 C 
HETATM   22  C21 UNL     1      17.310   9.665   0.510  1.00  0.00     0.003 C 
HETATM   23  C22 UNL     1      16.990   8.397  -0.266  1.00  0.00     0.003 C 
HETATM   24  C23 UNL     1      16.049   7.607   0.614  1.00  0.00     0.041 C 
BRANCH  20  25
HETATM   25  N2  UNL     1      14.481   9.458   0.510  1.00  0.00    -0.342 N 
HETATM   26  C15 UNL     1      14.051  10.765   0.794  1.00  0.00     0.226 C 
HETATM   27  O2  UNL     1      14.421  11.335   1.842  1.00  0.00    -0.273 OA
ATOM     28  H2  UNL     1      14.167   9.015  -0.353  1.00  0.00     0.163 HD
BRANCH  26  29
HETATM   29  C16 UNL     1      13.156  11.492  -0.135  1.00  0.00     0.030 C 
HETATM   30  C17 UNL     1      13.768  11.494  -1.505  1.00  0.00     0.024 C 
HETATM   31  C18 UNL     1      11.811  10.802  -0.144  1.00  0.00     0.024 C 
HETATM   32  C19 UNL     1      12.992  12.910   0.366  1.00  0.00     0.024 C 
ENDBRANCH  26  29
ENDBRANCH  20  25
ENDBRANCH   3  20
TORSDOF 7
ENDMDL
MODEL 5
REMARK VINA RESULT: -9.720316364      2.363      3.642
REMARK  7 active torsions:
REMARK  status: ('A' for Active; 'I' for Inactive)
REMARK    1  A    between atoms: C2_2  and  C3_3 
REMARK    2  A    between atoms: C2_2  and  C8_8 
REMARK    3  A    between atoms: C11_11  and  C12_12 
REMARK    4  A    between atoms: C12_12  and  N1_13 
REMARK       I    between atoms: N1_13  and  C13_15 
REMARK    5  A    between atoms: C13_15  and  C14_17 
REMARK    6  A    between atoms: C14_17  and  N2_18 
REMARK       I    between atoms: N2_18  and  C15_20 
REMARK    7  A    between atoms: C15_20  and  C16_22 
ROOT
HETATM    1  N1  UNL     1      14.705  10.147   3.926  1.00  0.00    -0.357 N 
ATOM      2  H1  UNL     1      14.739  11.065   3.482  1.00  0.00     0.162 HD
HETATM    3  C13 UNL     1      15.243   9.023   3.237  1.00  0.00     0.246 C 
HETATM    4  O1  UNL     1      15.188   7.910   3.812  1.00  0.00    -0.271 OA
ENDROOT
BRANCH   1   5
HETATM    5  C12 UNL     1      14.112  10.022   5.243  1.00  0.00     0.147 C 
BRANCH   5   6
HETATM    6  C11 UNL     1      12.628   9.880   5.092  1.00  0.00     0.094 C 
HETATM    7  C10 UNL     1      12.074  10.737   3.998  1.00  0.00     0.027 C 
HETATM    8  C9  UNL     1      10.553  10.779   4.229  1.00  0.00     0.013 C 
HETATM    9  C8  UNL     1      10.045   9.368   4.289  1.00  0.00     0.031 C 
HETATM   10  C24 UNL     1      11.121   8.338   3.982  1.00  0.00     0.123 C 
HETATM   11  N3  UNL     1      12.226   8.521   4.896  1.00  0.00    -0.415 N 
ATOM     12  H3  UNL     1      12.684   7.740   5.366  1.00  0.00     0.153 HD
BRANCH   9  13
HETATM   13  C2  UNL     1       8.761   9.131   3.621  1.00  0.00    -0.079 C 
HETATM   14  C1  UNL     1       8.236   7.916   3.781  1.00  0.00     0.015 C 
BRANCH  13  15
HETATM   15  C3  UNL     1       8.015  10.097   2.810  1.00  0.00     0.014 C 
HETATM   16  C4  UNL     1       6.603  10.370   3.166  1.00  0.00     0.009 C 
HETATM   17  C5  UNL     1       5.833  10.449   1.833  1.00  0.00     0.001 C 
HETATM   18  C6  UNL     1       6.973  10.920   0.914  1.00  0.00     0.001 C 
HETATM   19  C7  UNL     1       8.027   9.867   1.324  1.00  0.00     0.009 C 
ENDBRANCH  13  15
ENDBRANCH   9  13
ENDBRANCH   5   6
ENDBRANCH   1   5
BRANCH   3  20
HETATM   20  C14 UNL     1      15.830   9.193   1.913  1.00  0.00     0.113 C 
HETATM   21  C20 UNL     1      17.312   9.481   2.053  1.00  0.00     0.041 C 
HETATM   22  C21 UNL     1      17.799   9.263   0.631  1.00  0.00     0.003 C 
HETATM   23  C22 UNL     1      16.879   8.198   0.052  1.00  0.00     0.003 C 
HETATM   24  C23 UNL     1      15.899   7.864   1.152  1.00  0.00     0.041 C 
BRANCH  20  25
HETATM   25  N2  UNL     1      15.158  10.175   1.125  1.00  0.00    -0.342 N 
HETATM   26  C15 UNL     1      13.790  10.087   0.818  1.00  0.00     0.226 C 
HETATM   27  O2  UNL     1      13.111   9.127   1.239  1.00  0.00    -0.273 OA
ATOM     28  H2  UNL     1      15.690  10.971   0.772  1.00  0.00     0.163 HD
BRANCH  26  29
HETATM   29  C16 UNL     1      13.126  11.123  -0.005  1.00  0.00     0.030 C 
HETATM   30  C17 UNL     1      13.773  11.165  -1.357  1.00  0.00     0.024 C 
HETATM   31  C18 UNL     1      11.658  10.779  -0.117  1.00  0.00     0.024 C 
HETATM   32  C19 UNL     1      13.278  12.460   0.689  1.00  0.00     0.024 C 
ENDBRANCH  26  29
ENDBRANCH  20  25
ENDBRANCH   3  20
TORSDOF 7
ENDMDL
