MODEL 1
REMARK VINA RESULT: -6.169170045      0.000      0.000
REMARK  7 active torsions:
REMARK  status: ('A' for Active; 'I' for Inactive)
REMARK    1  A    between atoms: C2_2  and  C3_3 
REMARK    2  A    between atoms: C3_3  and  N1_4 
REMARK    3  A    between atoms: C8_14  and  C9_15 
REMARK    4  A    between atoms: C9_15  and  C10_16 
REMARK    5  A    between atoms: C10_16  and  N3_17 
REMARK    6  A    between atoms: N3_17  and  C11_20 
REMARK    7  A    between atoms: C11_20  and  C12_21 
ROOT
HETATM    1  N1  UNL     1      80.907  20.082  -0.517  1.00  0.00    -0.364 N 
ATOM      2  H1  UNL     1      81.303  20.616  -1.290  1.00  0.00     0.165 HD
HETATM    3  C4  UNL     1      81.421  20.378   0.568  1.00  0.00     0.082 C 
HETATM    4  C5  UNL     1      81.045  19.763   1.871  1.00  0.00     0.271 C 
HETATM    5  O1  UNL     1      80.501  18.647   1.926  1.00  0.00    -0.266 OA
HETATM    6  N2  UNL     1      81.326  20.488   3.059  1.00  0.00    -0.292 N 
ATOM      7  H2  UNL     1      81.078  20.091   3.966  1.00  0.00     0.172 HD
HETATM    8  C6  UNL     1      81.953  21.765   2.994  1.00  0.00     0.225 C 
HETATM    9  O2  UNL     1      82.408  22.259   4.051  1.00  0.00    -0.273 OA
HETATM   10  C7  UNL     1      82.017  22.422   1.655  1.00  0.00     0.114 C 
HETATM   11  C8  UNL     1      82.523  21.431   0.629  1.00  0.00     0.051 C 
ENDROOT
BRANCH  11  12
HETATM   12  C9  UNL     1      83.813  20.764   1.043  1.00  0.00     0.039 C 
BRANCH  12  13
HETATM   13  C10 UNL     1      84.883  21.109   0.058  1.00  0.00     0.233 C 
BRANCH  13  14
HETATM   14  N3  UNL     1      86.059  20.270   0.224  1.00  0.00    -0.072 N 
ATOM     15  H32 UNL     1      86.020  19.689   1.062  1.00  0.00     0.277 HD
ATOM     16  H31 UNL     1      86.110  19.514  -0.457  1.00  0.00     0.277 HD
BRANCH  14  17
HETATM   17  C11 UNL     1      87.231  21.157   0.191  1.00  0.00     0.259 C 
BRANCH  17  18
HETATM   18  C12 UNL     1      86.852  22.351  -0.582  1.00  0.00    -0.010 C 
HETATM   19  C13 UNL     1      87.742  23.008  -1.328  1.00  0.00     0.008 C 
ENDBRANCH  17  18
ENDBRANCH  14  17
ENDBRANCH  13  14
ENDBRANCH  12  13
ENDBRANCH  11  12
BRANCH   1  20
HETATM   20  C3  UNL     1      79.909  19.187  -0.944  1.00  0.00     0.087 C 
BRANCH  20  21
HETATM   21  C2  UNL     1      80.391  17.983  -1.678  1.00  0.00     0.007 C 
HETATM   22  C1  UNL     1      80.696  16.870  -1.023  1.00  0.00     0.012 C 
ENDBRANCH  20  21
ENDBRANCH   1  20
TORSDOF 7
ENDMDL
MODEL 2
REMARK VINA RESULT: -6.104486477      2.883      4.266
REMARK  7 active torsions:
REMARK  status: ('A' for Active; 'I' for Inactive)
REMARK    1  A    between atoms: C2_2  and  C3_3 
REMARK    2  A    between atoms: C3_3  and  N1_4 
REMARK    3  A    between atoms: C8_14  and  C9_15 
REMARK    4  A    between atoms: C9_15  and  C10_16 
REMARK    5  A    between atoms: C10_16  and  N3_17 
REMARK    6  A    between atoms: N3_17  and  C11_20 
REMARK    7  A    between atoms: C11_20  and  C12_21 
ROOT
HETATM    1  N1  UNL     1      79.772  20.292   0.106  1.00  0.00    -0.364 N 
ATOM      2  H1  UNL     1      78.809  20.549   0.321  1.00  0.00     0.165 HD
HETATM    3  C4  UNL     1      80.581  20.822   0.877  1.00  0.00     0.082 C 
HETATM    4  C5  UNL     1      82.057  20.632   0.808  1.00  0.00     0.271 C 
HETATM    5  O1  UNL     1      82.613  20.274  -0.244  1.00  0.00    -0.266 OA
HETATM    6  N2  UNL     1      82.818  20.871   1.981  1.00  0.00    -0.292 N 
ATOM      7  H2  UNL     1      83.831  20.747   1.963  1.00  0.00     0.172 HD
HETATM    8  C6  UNL     1      82.179  21.284   3.184  1.00  0.00     0.225 C 
HETATM    9  O2  UNL     1      82.891  21.724   4.116  1.00  0.00    -0.273 OA
HETATM   10  C7  UNL     1      80.693  21.159   3.242  1.00  0.00     0.114 C 
HETATM   11  C8  UNL     1      80.088  21.748   1.985  1.00  0.00     0.051 C 
ENDROOT
BRANCH  11  12
HETATM   12  C9  UNL     1      80.570  23.150   1.701  1.00  0.00     0.039 C 
BRANCH  12  13
HETATM   13  C10 UNL     1      79.699  24.126   2.424  1.00  0.00     0.233 C 
BRANCH  13  14
HETATM   14  N3  UNL     1      80.405  24.770   3.519  1.00  0.00    -0.072 N 
ATOM     15  H32 UNL     1      79.873  25.529   3.945  1.00  0.00     0.277 HD
ATOM     16  H31 UNL     1      80.478  24.180   4.349  1.00  0.00     0.277 HD
BRANCH  14  17
HETATM   17  C11 UNL     1      81.711  25.200   2.999  1.00  0.00     0.259 C 
BRANCH  17  18
HETATM   18  C12 UNL     1      81.637  26.655   2.788  1.00  0.00    -0.010 C 
HETATM   19  C13 UNL     1      82.654  27.332   2.250  1.00  0.00     0.008 C 
ENDBRANCH  17  18
ENDBRANCH  14  17
ENDBRANCH  13  14
ENDBRANCH  12  13
ENDBRANCH  11  12
BRANCH   1  20
HETATM   20  C3  UNL     1      79.858  19.421  -0.995  1.00  0.00     0.087 C 
BRANCH  20  21
HETATM   21  C2  UNL     1      79.815  17.967  -0.674  1.00  0.00     0.007 C 
HETATM   22  C1  UNL     1      80.881  17.201  -0.869  1.00  0.00     0.012 C 
ENDBRANCH  20  21
ENDBRANCH   1  20
TORSDOF 7
ENDMDL
MODEL 3
REMARK VINA RESULT: -6.074944879      3.073      6.017
REMARK  7 active torsions:
REMARK  status: ('A' for Active; 'I' for Inactive)
REMARK    1  A    between atoms: C2_2  and  C3_3 
REMARK    2  A    between atoms: C3_3  and  N1_4 
REMARK    3  A    between atoms: C8_14  and  C9_15 
REMARK    4  A    between atoms: C9_15  and  C10_16 
REMARK    5  A    between atoms: C10_16  and  N3_17 
REMARK    6  A    between atoms: N3_17  and  C11_20 
REMARK    7  A    between atoms: C11_20  and  C12_21 
ROOT
HETATM    1  N1  UNL     1      81.763  23.632   3.580  1.00  0.00    -0.364 N 
ATOM      2  H1  UNL     1      82.493  23.114   4.069  1.00  0.00     0.165 HD
HETATM    3  C4  UNL     1      81.162  22.931   2.758  1.00  0.00     0.082 C 
HETATM    4  C5  UNL     1      80.047  23.415   1.897  1.00  0.00     0.271 C 
HETATM    5  O1  UNL     1      79.909  24.623   1.638  1.00  0.00    -0.266 OA
HETATM    6  N2  UNL     1      79.140  22.457   1.373  1.00  0.00    -0.292 N 
ATOM      7  H2  UNL     1      78.367  22.760   0.782  1.00  0.00     0.172 HD
HETATM    8  C6  UNL     1      79.303  21.074   1.668  1.00  0.00     0.225 C 
HETATM    9  O2  UNL     1      78.649  20.241   0.999  1.00  0.00    -0.273 OA
HETATM   10  C7  UNL     1      80.252  20.720   2.765  1.00  0.00     0.114 C 
HETATM   11  C8  UNL     1      81.553  21.469   2.569  1.00  0.00     0.051 C 
ENDROOT
BRANCH  11  12
HETATM   12  C9  UNL     1      82.130  21.292   1.185  1.00  0.00     0.039 C 
BRANCH  12  13
HETATM   13  C10 UNL     1      82.445  19.848   0.963  1.00  0.00     0.233 C 
BRANCH  13  14
HETATM   14  N3  UNL     1      81.633  19.276  -0.098  1.00  0.00    -0.072 N 
ATOM     15  H32 UNL     1      80.892  19.901  -0.415  1.00  0.00     0.277 HD
ATOM     16  H31 UNL     1      82.130  19.201  -0.986  1.00  0.00     0.277 HD
BRANCH  14  17
HETATM   17  C11 UNL     1      81.128  17.985   0.392  1.00  0.00     0.259 C 
BRANCH  17  18
HETATM   18  C12 UNL     1      80.476  17.314  -0.744  1.00  0.00    -0.010 C 
HETATM   19  C13 UNL     1      80.395  17.896  -1.943  1.00  0.00     0.008 C 
ENDBRANCH  17  18
ENDBRANCH  14  17
ENDBRANCH  13  14
ENDBRANCH  12  13
ENDBRANCH  11  12
BRANCH   1  20
HETATM   20  C3  UNL     1      81.686  24.971   4.004  1.00  0.00     0.087 C 
BRANCH  20  21
HETATM   21  C2  UNL     1      82.593  25.924   3.303  1.00  0.00     0.007 C 
HETATM   22  C1  UNL     1      82.114  27.038   2.761  1.00  0.00     0.012 C 
ENDBRANCH  20  21
ENDBRANCH   1  20
TORSDOF 7
ENDMDL
MODEL 4
REMARK VINA RESULT: -6.055778293      0.864      1.508
REMARK  7 active torsions:
REMARK  status: ('A' for Active; 'I' for Inactive)
REMARK    1  A    between atoms: C2_2  and  C3_3 
REMARK    2  A    between atoms: C3_3  and  N1_4 
REMARK    3  A    between atoms: C8_14  and  C9_15 
REMARK    4  A    between atoms: C9_15  and  C10_16 
REMARK    5  A    between atoms: C10_16  and  N3_17 
REMARK    6  A    between atoms: N3_17  and  C11_20 
REMARK    7  A    between atoms: C11_20  and  C12_21 
ROOT
HETATM    1  N1  UNL     1      80.934  20.079  -0.533  1.00  0.00    -0.364 N 
ATOM      2  H1  UNL     1      81.345  20.599  -1.308  1.00  0.00     0.165 HD
HETATM    3  C4  UNL     1      81.449  20.373   0.553  1.00  0.00     0.082 C 
HETATM    4  C5  UNL     1      81.053  19.775   1.859  1.00  0.00     0.271 C 
HETATM    5  O1  UNL     1      80.486  18.671   1.919  1.00  0.00    -0.266 OA
HETATM    6  N2  UNL     1      81.343  20.503   3.043  1.00  0.00    -0.292 N 
ATOM      7  H2  UNL     1      81.082  20.119   3.951  1.00  0.00     0.172 HD
HETATM    8  C6  UNL     1      81.996  21.766   2.971  1.00  0.00     0.225 C 
HETATM    9  O2  UNL     1      82.457  22.258   4.027  1.00  0.00    -0.273 OA
HETATM   10  C7  UNL     1      82.082  22.412   1.628  1.00  0.00     0.114 C 
HETATM   11  C8  UNL     1      82.572  21.402   0.612  1.00  0.00     0.051 C 
ENDROOT
BRANCH  11  12
HETATM   12  C9  UNL     1      83.846  20.712   1.038  1.00  0.00     0.039 C 
BRANCH  12  13
HETATM   13  C10 UNL     1      84.958  21.126   0.130  1.00  0.00     0.233 C 
BRANCH  13  14
HETATM   14  N3  UNL     1      86.046  20.163   0.136  1.00  0.00    -0.072 N 
ATOM     15  H32 UNL     1      85.821  19.309   0.645  1.00  0.00     0.277 HD
ATOM     16  H31 UNL     1      86.205  19.734  -0.776  1.00  0.00     0.277 HD
BRANCH  14  17
HETATM   17  C11 UNL     1      87.233  20.853   0.663  1.00  0.00     0.259 C 
BRANCH  17  18
HETATM   18  C12 UNL     1      87.777  20.018   1.745  1.00  0.00    -0.010 C 
HETATM   19  C13 UNL     1      87.006  19.589   2.747  1.00  0.00     0.008 C 
ENDBRANCH  17  18
ENDBRANCH  14  17
ENDBRANCH  13  14
ENDBRANCH  12  13
ENDBRANCH  11  12
BRANCH   1  20
HETATM   20  C3  UNL     1      79.920  19.202  -0.958  1.00  0.00     0.087 C 
BRANCH  20  21
HETATM   21  C2  UNL     1      80.381  17.983  -1.682  1.00  0.00     0.007 C 
HETATM   22  C1  UNL     1      80.671  16.872  -1.017  1.00  0.00     0.012 C 
ENDBRANCH  20  21
ENDBRANCH   1  20
TORSDOF 7
ENDMDL
MODEL 5
REMARK VINA RESULT: -6.016787681      2.957      3.882
REMARK  7 active torsions:
REMARK  status: ('A' for Active; 'I' for Inactive)
REMARK    1  A    between atoms: C2_2  and  C3_3 
REMARK    2  A    between atoms: C3_3  and  N1_4 
REMARK    3  A    between atoms: C8_14  and  C9_15 
REMARK    4  A    between atoms: C9_15  and  C10_16 
REMARK    5  A    between atoms: C10_16  and  N3_17 
REMARK    6  A    between atoms: N3_17  and  C11_20 
REMARK    7  A    between atoms: C11_20  and  C12_21 
ROOT
HETATM    1  N1  UNL     1      80.983  21.096   0.570  1.00  0.00    -0.364 N 
ATOM      2  H1  UNL     1      80.941  21.585  -0.324  1.00  0.00     0.165 HD
HETATM    3  C4  UNL     1      81.237  21.859   1.509  1.00  0.00     0.082 C 
HETATM    4  C5  UNL     1      81.361  21.430   2.931  1.00  0.00     0.271 C 
HETATM    5  O1  UNL     1      81.625  20.253   3.229  1.00  0.00    -0.266 OA
HETATM    6  N2  UNL     1      81.170  22.406   3.944  1.00  0.00    -0.292 N 
ATOM      7  H2  UNL     1      81.247  22.139   4.926  1.00  0.00     0.172 HD
HETATM    8  C6  UNL     1      80.871  23.754   3.599  1.00  0.00     0.225 C 
HETATM    9  O2  UNL     1      80.956  24.629   4.491  1.00  0.00    -0.273 OA
HETATM   10  C7  UNL     1      80.475  24.022   2.185  1.00  0.00     0.114 C 
HETATM   11  C8  UNL     1      81.455  23.346   1.249  1.00  0.00     0.051 C 
ENDROOT
BRANCH  11  12
HETATM   12  C9  UNL     1      82.893  23.691   1.554  1.00  0.00     0.039 C 
BRANCH  12  13
HETATM   13  C10 UNL     1      83.468  24.462   0.411  1.00  0.00     0.233 C 
BRANCH  13  14
HETATM   14  N3  UNL     1      82.863  25.778   0.290  1.00  0.00    -0.072 N 
ATOM     15  H32 UNL     1      82.582  26.002  -0.664  1.00  0.00     0.277 HD
ATOM     16  H31 UNL     1      81.937  25.833   0.716  1.00  0.00     0.277 HD
BRANCH  14  17
HETATM   17  C11 UNL     1      83.816  26.746   0.854  1.00  0.00     0.259 C 
BRANCH  17  18
HETATM   18  C12 UNL     1      83.041  27.691   1.674  1.00  0.00    -0.010 C 
HETATM   19  C13 UNL     1      82.154  27.265   2.576  1.00  0.00     0.008 C 
ENDBRANCH  17  18
ENDBRANCH  14  17
ENDBRANCH  13  14
ENDBRANCH  12  13
ENDBRANCH  11  12
BRANCH   1  20
HETATM   20  C3  UNL     1      80.739  19.717   0.435  1.00  0.00     0.087 C 
BRANCH  20  21
HETATM   21  C2  UNL     1      79.854  19.326  -0.698  1.00  0.00     0.007 C 
HETATM   22  C1  UNL     1      80.171  18.301  -1.480  1.00  0.00     0.012 C 
ENDBRANCH  20  21
ENDBRANCH   1  20
TORSDOF 7
ENDMDL
