MODEL 1
REMARK VINA RESULT: -7.751674677      0.000      0.000
REMARK  8 active torsions:
REMARK  status: ('A' for Active; 'I' for Inactive)
REMARK    1  A    between atoms: N1_1  and  C1_4 
REMARK    2  A    between atoms: C5_13  and  N4_14 
REMARK    3  A    between atoms: N4_14  and  C6_16 
REMARK    4  A    between atoms: C6_16  and  O2_17 
REMARK    5  A    between atoms: C6_16  and  C7_19 
REMARK    6  A    between atoms: C7_19  and  N5_20 
REMARK    7  A    between atoms: C7_19  and  C8_24 
REMARK       I    between atoms: N7_29  and  C9_30 
REMARK    8  A    between atoms: N9_32  and  N10_34 
ROOT
HETATM    1  C1  UNL     1      30.143  50.638  14.194  1.00  0.00     0.680 A 
HETATM    2  N2  UNL     1      29.501  51.795  14.409  1.00  0.00    -0.154 N 
ATOM      3  H2  UNL     1      29.130  51.959  15.345  1.00  0.00     0.187 HD
HETATM    4  C2  UNL     1      29.307  52.756  13.491  1.00  0.00     0.292 A 
HETATM    5  O1  UNL     1      28.691  53.810  13.787  1.00  0.00    -0.265 OA
HETATM    6  C3  UNL     1      29.798  52.559  12.221  1.00  0.00     0.173 A 
HETATM    7  C4  UNL     1      30.470  51.353  11.989  1.00  0.00     0.171 A 
HETATM    8  N3  UNL     1      30.978  51.082  10.785  1.00  0.00    -0.172 N 
ATOM      9  H3  UNL     1      31.469  50.206  10.611  1.00  0.00     0.186 HD
HETATM   10  C5  UNL     1      30.826  52.000   9.800  1.00  0.00     0.697 A 
HETATM   11  N6  UNL     1      30.175  53.155  10.046  1.00  0.00    -0.122 N 
ATOM     12  H6  UNL     1      30.075  53.830   9.287  1.00  0.00     0.206 HD
HETATM   13  N7  UNL     1      29.658  53.453  11.234  1.00  0.00    -0.203 N 
HETATM   14  C9  UNL     1      28.986  54.682  11.424  1.00  0.00     0.229 C 
HETATM   15  N8  UNL     1      27.581  54.728  11.207  1.00  0.00    -0.060 NA
HETATM   16  N9  UNL     1      29.575  55.774  11.770  1.00  0.00    -0.279 N 
ATOM     17  H9  UNL     1      28.994  56.605  11.881  1.00  0.00     0.189 HD
HETATM   18  N11 UNL     1      30.626  50.437  12.958  1.00  0.00    -0.174 N 
ATOM     19  H11 UNL     1      31.123  49.570  12.751  1.00  0.00     0.186 HD
ENDROOT
BRANCH  10  20
HETATM   20  N4  UNL     1      31.323  51.717   8.653  1.00  0.00    -0.196 N 
ATOM     21  H4  UNL     1      32.332  51.812   8.542  1.00  0.00     0.180 HD
BRANCH  20  22
HETATM   22  C6  UNL     1      30.569  51.276   7.508  1.00  0.00     0.276 C 
BRANCH  22  23
HETATM   23  O2  UNL     1      29.365  50.675   7.824  1.00  0.00    -0.373 OA
ATOM     24  H2  UNL     1      29.132  49.952   7.254  1.00  0.00     0.212 HD
ENDBRANCH  22  23
BRANCH  22  25
HETATM   25  C7  UNL     1      31.438  50.361   6.672  1.00  0.00     0.331 C 
BRANCH  25  26
HETATM   26  N5  UNL     1      31.065  50.442   5.290  1.00  0.00    -0.061 N 
ATOM     27  H53 UNL     1      31.496  49.700   4.737  1.00  0.00     0.275 HD
ATOM     28  H52 UNL     1      30.088  50.191   5.145  1.00  0.00     0.275 HD
ATOM     29  H51 UNL     1      31.280  51.366   4.916  1.00  0.00     0.275 HD
ENDBRANCH  25  26
BRANCH  25  30
HETATM   30  C8  UNL     1      31.331  48.961   7.193  1.00  0.00     0.209 C 
HETATM   31  O3  UNL     1      30.915  48.046   6.451  1.00  0.00    -0.646 OA
HETATM   32  O4  UNL     1      31.690  48.671   8.498  1.00  0.00    -0.646 OA
ENDBRANCH  25  30
ENDBRANCH  22  25
ENDBRANCH  20  22
ENDBRANCH  10  20
BRANCH   1  33
HETATM   33  N1  UNL     1      30.311  49.740  15.103  1.00  0.00    -0.234 N 
ATOM     34  H12 UNL     1      30.215  48.753  14.867  1.00  0.00     0.174 HD
ATOM     35  H11 UNL     1      30.543  49.958  16.072  1.00  0.00     0.174 HD
ENDBRANCH   1  33
BRANCH  16  36
HETATM   36  N10 UNL     1      30.922  55.911  12.003  1.00  0.00    -0.343 N 
ATOM     37 2H10 UNL     1      31.544  55.488  11.313  1.00  0.00     0.176 HD
ATOM     38 1H10 UNL     1      31.337  56.396  12.798  1.00  0.00     0.176 HD
ENDBRANCH  16  36
TORSDOF 8
ENDMDL
MODEL 2
REMARK VINA RESULT: -7.743180587      2.417      6.350
REMARK  8 active torsions:
REMARK  status: ('A' for Active; 'I' for Inactive)
REMARK    1  A    between atoms: N1_1  and  C1_4 
REMARK    2  A    between atoms: C5_13  and  N4_14 
REMARK    3  A    between atoms: N4_14  and  C6_16 
REMARK    4  A    between atoms: C6_16  and  O2_17 
REMARK    5  A    between atoms: C6_16  and  C7_19 
REMARK    6  A    between atoms: C7_19  and  N5_20 
REMARK    7  A    between atoms: C7_19  and  C8_24 
REMARK       I    between atoms: N7_29  and  C9_30 
REMARK    8  A    between atoms: N9_32  and  N10_34 
ROOT
HETATM    1  C1  UNL     1      30.232  50.280   6.048  1.00  0.00     0.680 A 
HETATM    2  N2  UNL     1      31.541  50.537   6.183  1.00  0.00    -0.154 N 
ATOM      3  H2  UNL     1      32.159  50.225   5.434  1.00  0.00     0.187 HD
HETATM    4  C2  UNL     1      32.103  51.170   7.224  1.00  0.00     0.292 A 
HETATM    5  O1  UNL     1      33.343  51.366   7.262  1.00  0.00    -0.265 OA
HETATM    6  C3  UNL     1      31.291  51.601   8.247  1.00  0.00     0.173 A 
HETATM    7  C4  UNL     1      29.922  51.336   8.114  1.00  0.00     0.171 A 
HETATM    8  N3  UNL     1      29.064  51.721   9.061  1.00  0.00    -0.172 N 
ATOM      9  H3  UNL     1      28.065  51.531   8.968  1.00  0.00     0.186 HD
HETATM   10  C5  UNL     1      29.550  52.368  10.147  1.00  0.00     0.697 A 
HETATM   11  N6  UNL     1      30.871  52.612  10.255  1.00  0.00    -0.122 N 
ATOM     12  H6  UNL     1      31.211  53.101  11.083  1.00  0.00     0.206 HD
HETATM   13  N7  UNL     1      31.751  52.242   9.329  1.00  0.00    -0.203 N 
HETATM   14  C9  UNL     1      33.124  52.527   9.505  1.00  0.00     0.229 C 
HETATM   15  N8  UNL     1      33.942  51.559  10.148  1.00  0.00    -0.060 NA
HETATM   16  N9  UNL     1      33.680  53.626   9.128  1.00  0.00    -0.279 N 
ATOM     17  H9  UNL     1      34.680  53.729   9.303  1.00  0.00     0.189 HD
HETATM   18  N11 UNL     1      29.430  50.696   7.041  1.00  0.00    -0.174 N 
ATOM     19  H11 UNL     1      28.427  50.523   6.979  1.00  0.00     0.186 HD
ENDROOT
BRANCH  10  20
HETATM   20  N4  UNL     1      28.705  52.726  11.043  1.00  0.00    -0.196 N 
ATOM     21  H4  UNL     1      28.308  51.996  11.632  1.00  0.00     0.180 HD
BRANCH  20  22
HETATM   22  C6  UNL     1      28.273  54.079  11.282  1.00  0.00     0.276 C 
BRANCH  22  23
HETATM   23  O2  UNL     1      28.433  54.921  10.198  1.00  0.00    -0.373 OA
ATOM     24  H2  UNL     1      27.620  55.152   9.764  1.00  0.00     0.212 HD
ENDBRANCH  22  23
BRANCH  22  25
HETATM   25  C7  UNL     1      28.989  54.613  12.504  1.00  0.00     0.331 C 
BRANCH  25  26
HETATM   26  N5  UNL     1      30.122  55.401  12.117  1.00  0.00    -0.061 N 
ATOM     27  H53 UNL     1      30.954  54.828  11.981  1.00  0.00     0.275 HD
ATOM     28  H52 UNL     1      30.028  55.760  11.166  1.00  0.00     0.275 HD
ATOM     29  H51 UNL     1      30.283  56.150  12.791  1.00  0.00     0.275 HD
ENDBRANCH  25  26
BRANCH  25  30
HETATM   30  C8  UNL     1      29.385  53.471  13.387  1.00  0.00     0.209 C 
HETATM   31  O3  UNL     1      30.588  53.151  13.497  1.00  0.00    -0.646 OA
HETATM   32  O4  UNL     1      28.424  52.761  14.087  1.00  0.00    -0.646 OA
ENDBRANCH  25  30
ENDBRANCH  22  25
ENDBRANCH  20  22
ENDBRANCH  10  20
BRANCH   1  33
HETATM   33  N1  UNL     1      29.729  49.670   5.030  1.00  0.00    -0.234 N 
ATOM     34  H12 UNL     1      30.308  49.033   4.482  1.00  0.00     0.174 HD
ATOM     35  H11 UNL     1      28.761  49.782   4.729  1.00  0.00     0.174 HD
ENDBRANCH   1  33
BRANCH  16  36
HETATM   36  N10 UNL     1      33.038  54.671   8.510  1.00  0.00    -0.343 N 
ATOM     37 2H10 UNL     1      32.532  55.314   9.120  1.00  0.00     0.176 HD
ATOM     38 1H10 UNL     1      33.029  54.847   7.505  1.00  0.00     0.176 HD
ENDBRANCH  16  36
TORSDOF 8
ENDMDL
MODEL 3
REMARK VINA RESULT: -7.604595215      1.176      1.524
REMARK  8 active torsions:
REMARK  status: ('A' for Active; 'I' for Inactive)
REMARK    1  A    between atoms: N1_1  and  C1_4 
REMARK    2  A    between atoms: C5_13  and  N4_14 
REMARK    3  A    between atoms: N4_14  and  C6_16 
REMARK    4  A    between atoms: C6_16  and  O2_17 
REMARK    5  A    between atoms: C6_16  and  C7_19 
REMARK    6  A    between atoms: C7_19  and  N5_20 
REMARK    7  A    between atoms: C7_19  and  C8_24 
REMARK       I    between atoms: N7_29  and  C9_30 
REMARK    8  A    between atoms: N9_32  and  N10_34 
ROOT
HETATM    1  C1  UNL     1      30.213  50.588  14.104  1.00  0.00     0.680 A 
HETATM    2  N2  UNL     1      29.517  51.706  14.356  1.00  0.00    -0.154 N 
ATOM      3  H2  UNL     1      29.130  51.817  15.293  1.00  0.00     0.187 HD
HETATM    4  C2  UNL     1      29.288  52.692  13.473  1.00  0.00     0.292 A 
HETATM    5  O1  UNL     1      28.622  53.704  13.802  1.00  0.00    -0.265 OA
HETATM    6  C3  UNL     1      29.799  52.567  12.202  1.00  0.00     0.173 A 
HETATM    7  C4  UNL     1      30.528  51.402  11.932  1.00  0.00     0.171 A 
HETATM    8  N3  UNL     1      31.059  51.202  10.724  1.00  0.00    -0.172 N 
ATOM      9  H3  UNL     1      31.592  50.355  10.522  1.00  0.00     0.186 HD
HETATM   10  C5  UNL     1      30.875  52.149   9.774  1.00  0.00     0.697 A 
HETATM   11  N6  UNL     1      30.170  53.263  10.056  1.00  0.00    -0.122 N 
ATOM     12  H6  UNL     1      30.046  53.962   9.322  1.00  0.00     0.206 HD
HETATM   13  N7  UNL     1      29.629  53.492  11.249  1.00  0.00    -0.203 N 
HETATM   14  C9  UNL     1      28.899  54.680  11.478  1.00  0.00     0.229 C 
HETATM   15  N8  UNL     1      27.496  54.671  11.247  1.00  0.00    -0.060 NA
HETATM   16  N9  UNL     1      29.435  55.783  11.872  1.00  0.00    -0.279 N 
ATOM     17  H9  UNL     1      28.815  56.583  12.008  1.00  0.00     0.189 HD
HETATM   18  N11 UNL     1      30.717  50.457  12.867  1.00  0.00    -0.174 N 
ATOM     19  H11 UNL     1      31.254  49.623  12.633  1.00  0.00     0.186 HD
ENDROOT
BRANCH  10  20
HETATM   20  N4  UNL     1      31.395  51.933   8.622  1.00  0.00    -0.196 N 
ATOM     21  H4  UNL     1      31.322  52.676   7.928  1.00  0.00     0.180 HD
BRANCH  20  22
HETATM   22  C6  UNL     1      32.075  50.726   8.231  1.00  0.00     0.276 C 
BRANCH  22  23
HETATM   23  O2  UNL     1      33.119  50.928   7.348  1.00  0.00    -0.373 OA
ATOM     24  H2  UNL     1      32.957  51.610   6.707  1.00  0.00     0.212 HD
ENDBRANCH  22  23
BRANCH  22  25
HETATM   25  C7  UNL     1      31.061  49.752   7.670  1.00  0.00     0.331 C 
BRANCH  25  26
HETATM   26  N5  UNL     1      31.580  48.416   7.699  1.00  0.00    -0.061 N 
ATOM     27  H53 UNL     1      32.356  48.325   8.355  1.00  0.00     0.275 HD
ATOM     28  H52 UNL     1      30.930  47.766   8.141  1.00  0.00     0.275 HD
ATOM     29  H51 UNL     1      31.840  48.114   6.760  1.00  0.00     0.275 HD
ENDBRANCH  25  26
BRANCH  25  30
HETATM   30  C8  UNL     1      30.687  50.169   6.281  1.00  0.00     0.209 C 
HETATM   31  O3  UNL     1      30.874  51.347   5.909  1.00  0.00    -0.646 OA
HETATM   32  O4  UNL     1      30.133  49.255   5.401  1.00  0.00    -0.646 OA
ENDBRANCH  25  30
ENDBRANCH  22  25
ENDBRANCH  20  22
ENDBRANCH  10  20
BRANCH   1  33
HETATM   33  N1  UNL     1      30.413  49.665  14.980  1.00  0.00    -0.234 N 
ATOM     34  H12 UNL     1      29.688  48.971  15.162  1.00  0.00     0.174 HD
ATOM     35  H11 UNL     1      31.275  49.578  15.519  1.00  0.00     0.174 HD
ENDBRANCH   1  33
BRANCH  16  36
HETATM   36  N10 UNL     1      30.772  55.972  12.125  1.00  0.00    -0.343 N 
ATOM     37 2H10 UNL     1      31.075  55.819  13.087  1.00  0.00     0.176 HD
ATOM     38 1H10 UNL     1      31.469  56.250  11.434  1.00  0.00     0.176 HD
ENDBRANCH  16  36
TORSDOF 8
ENDMDL
MODEL 4
REMARK VINA RESULT: -7.423683355      2.482      6.462
REMARK  8 active torsions:
REMARK  status: ('A' for Active; 'I' for Inactive)
REMARK    1  A    between atoms: N1_1  and  C1_4 
REMARK    2  A    between atoms: C5_13  and  N4_14 
REMARK    3  A    between atoms: N4_14  and  C6_16 
REMARK    4  A    between atoms: C6_16  and  O2_17 
REMARK    5  A    between atoms: C6_16  and  C7_19 
REMARK    6  A    between atoms: C7_19  and  N5_20 
REMARK    7  A    between atoms: C7_19  and  C8_24 
REMARK       I    between atoms: N7_29  and  C9_30 
REMARK    8  A    between atoms: N9_32  and  N10_34 
ROOT
HETATM    1  C1  UNL     1      30.235  50.120   5.840  1.00  0.00     0.680 A 
HETATM    2  N2  UNL     1      31.549  50.343   5.993  1.00  0.00    -0.154 N 
ATOM      3  H2  UNL     1      32.171  49.993   5.264  1.00  0.00     0.187 HD
HETATM    4  C2  UNL     1      32.111  50.988   7.027  1.00  0.00     0.292 A 
HETATM    5  O1  UNL     1      33.356  51.148   7.083  1.00  0.00    -0.265 OA
HETATM    6  C3  UNL     1      31.294  51.469   8.023  1.00  0.00     0.173 A 
HETATM    7  C4  UNL     1      29.921  51.240   7.872  1.00  0.00     0.171 A 
HETATM    8  N3  UNL     1      29.057  51.675   8.791  1.00  0.00    -0.172 N 
ATOM      9  H3  UNL     1      28.055  51.512   8.685  1.00  0.00     0.186 HD
HETATM   10  C5  UNL     1      29.542  52.336   9.869  1.00  0.00     0.697 A 
HETATM   11  N6  UNL     1      30.868  52.545   9.995  1.00  0.00    -0.122 N 
ATOM     12  H6  UNL     1      31.207  53.046  10.817  1.00  0.00     0.206 HD
HETATM   13  N7  UNL     1      31.753  52.125   9.096  1.00  0.00    -0.203 N 
HETATM   14  C9  UNL     1      33.130  52.375   9.290  1.00  0.00     0.229 C 
HETATM   15  N8  UNL     1      33.908  51.401   9.974  1.00  0.00    -0.060 NA
HETATM   16  N9  UNL     1      33.725  53.447   8.894  1.00  0.00    -0.279 N 
ATOM     17  H9  UNL     1      34.724  53.526   9.086  1.00  0.00     0.189 HD
HETATM   18  N11 UNL     1      29.429  50.586   6.807  1.00  0.00    -0.174 N 
ATOM     19  H11 UNL     1      28.423  50.440   6.731  1.00  0.00     0.186 HD
ENDROOT
BRANCH  10  20
HETATM   20  N4  UNL     1      28.692  52.743  10.739  1.00  0.00    -0.196 N 
ATOM     21  H4  UNL     1      27.784  53.054  10.398  1.00  0.00     0.180 HD
BRANCH  20  22
HETATM   22  C6  UNL     1      28.919  52.795  12.160  1.00  0.00     0.276 C 
BRANCH  22  23
HETATM   23  O2  UNL     1      27.890  52.263  12.914  1.00  0.00    -0.373 OA
ATOM     24  H2  UNL     1      27.024  52.455  12.577  1.00  0.00     0.212 HD
ENDBRANCH  22  23
BRANCH  22  25
HETATM   25  C7  UNL     1      29.210  54.227  12.558  1.00  0.00     0.331 C 
BRANCH  25  26
HETATM   26  N5  UNL     1      28.806  55.128  11.519  1.00  0.00    -0.061 N 
ATOM     27  H53 UNL     1      28.426  54.631  10.713  1.00  0.00     0.275 HD
ATOM     28  H52 UNL     1      27.974  55.657  11.777  1.00  0.00     0.275 HD
ATOM     29  H51 UNL     1      29.580  55.740  11.257  1.00  0.00     0.275 HD
ENDBRANCH  25  26
BRANCH  25  30
HETATM   30  C8  UNL     1      30.667  54.367  12.877  1.00  0.00     0.209 C 
HETATM   31  O3  UNL     1      31.186  55.501  12.954  1.00  0.00    -0.646 OA
HETATM   32  O4  UNL     1      31.448  53.243  13.088  1.00  0.00    -0.646 OA
ENDBRANCH  25  30
ENDBRANCH  22  25
ENDBRANCH  20  22
ENDBRANCH  10  20
BRANCH   1  33
HETATM   33  N1  UNL     1      29.734  49.498   4.830  1.00  0.00    -0.234 N 
ATOM     34  H12 UNL     1      30.278  49.397   3.973  1.00  0.00     0.174 HD
ATOM     35  H11 UNL     1      28.801  49.084   4.831  1.00  0.00     0.174 HD
ENDBRANCH   1  33
BRANCH  16  36
HETATM   36  N10 UNL     1      33.125  54.493   8.237  1.00  0.00    -0.343 N 
ATOM     37 2H10 UNL     1      32.991  54.377   7.232  1.00  0.00     0.176 HD
ATOM     38 1H10 UNL     1      32.810  55.360   8.672  1.00  0.00     0.176 HD
ENDBRANCH  16  36
TORSDOF 8
ENDMDL
MODEL 5
REMARK VINA RESULT: -7.403125886      1.511      1.579
REMARK  8 active torsions:
REMARK  status: ('A' for Active; 'I' for Inactive)
REMARK    1  A    between atoms: N1_1  and  C1_4 
REMARK    2  A    between atoms: C5_13  and  N4_14 
REMARK    3  A    between atoms: N4_14  and  C6_16 
REMARK    4  A    between atoms: C6_16  and  O2_17 
REMARK    5  A    between atoms: C6_16  and  C7_19 
REMARK    6  A    between atoms: C7_19  and  N5_20 
REMARK    7  A    between atoms: C7_19  and  C8_24 
REMARK       I    between atoms: N7_29  and  C9_30 
REMARK    8  A    between atoms: N9_32  and  N10_34 
ROOT
HETATM    1  C1  UNL     1      30.049  50.628  14.266  1.00  0.00     0.680 A 
HETATM    2  N2  UNL     1      29.359  51.760  14.470  1.00  0.00    -0.154 N 
ATOM      3  H2  UNL     1      28.937  51.892  15.390  1.00  0.00     0.187 HD
HETATM    4  C2  UNL     1      29.180  52.732  13.563  1.00  0.00     0.292 A 
HETATM    5  O1  UNL     1      28.515  53.760  13.848  1.00  0.00    -0.265 OA
HETATM    6  C3  UNL     1      29.739  52.578  12.316  1.00  0.00     0.173 A 
HETATM    7  C4  UNL     1      30.461  51.399  12.095  1.00  0.00     0.171 A 
HETATM    8  N3  UNL     1      31.038  51.170  10.913  1.00  0.00    -0.172 N 
ATOM      9  H3  UNL     1      31.566  50.314  10.747  1.00  0.00     0.186 HD
HETATM   10  C5  UNL     1      30.904  52.103   9.940  1.00  0.00     0.697 A 
HETATM   11  N6  UNL     1      30.205  53.232  10.174  1.00  0.00    -0.122 N 
ATOM     12  H6  UNL     1      30.120  53.919   9.425  1.00  0.00     0.206 HD
HETATM   13  N7  UNL     1      29.620  53.488  11.341  1.00  0.00    -0.203 N 
HETATM   14  C9  UNL     1      28.899  54.690  11.520  1.00  0.00     0.229 C 
HETATM   15  N8  UNL     1      27.506  54.697  11.234  1.00  0.00    -0.060 NA
HETATM   16  N9  UNL     1      29.434  55.793  11.917  1.00  0.00    -0.279 N 
ATOM     17  H9  UNL     1      28.821  56.603  12.014  1.00  0.00     0.189 HD
HETATM   18  N11 UNL     1      30.600  50.468  13.053  1.00  0.00    -0.174 N 
ATOM     19  H11 UNL     1      31.134  49.623  12.854  1.00  0.00     0.186 HD
ENDROOT
BRANCH  10  20
HETATM   20  N4  UNL     1      31.467  51.861   8.814  1.00  0.00    -0.196 N 
ATOM     21  H4  UNL     1      30.887  51.464   8.075  1.00  0.00     0.180 HD
BRANCH  20  22
HETATM   22  C6  UNL     1      32.853  52.104   8.508  1.00  0.00     0.276 C 
BRANCH  22  23
HETATM   23  O2  UNL     1      33.227  53.431   8.608  1.00  0.00    -0.373 OA
ATOM     24  H2  UNL     1      33.078  53.811   9.465  1.00  0.00     0.212 HD
ENDBRANCH  22  23
BRANCH  22  25
HETATM   25  C7  UNL     1      33.157  51.548   7.133  1.00  0.00     0.331 C 
BRANCH  25  26
HETATM   26  N5  UNL     1      33.324  52.614   6.188  1.00  0.00    -0.061 N 
ATOM     27  H53 UNL     1      33.910  52.334   5.401  1.00  0.00     0.275 HD
ATOM     28  H52 UNL     1      32.464  52.806   5.676  1.00  0.00     0.275 HD
ATOM     29  H51 UNL     1      33.685  53.448   6.652  1.00  0.00     0.275 HD
ENDBRANCH  25  26
BRANCH  25  30
HETATM   30  C8  UNL     1      32.064  50.611   6.723  1.00  0.00     0.209 C 
HETATM   31  O3  UNL     1      31.298  50.914   5.782  1.00  0.00    -0.646 OA
HETATM   32  O4  UNL     1      31.892  49.405   7.381  1.00  0.00    -0.646 OA
ENDBRANCH  25  30
ENDBRANCH  22  25
ENDBRANCH  20  22
ENDBRANCH  10  20
BRANCH   1  33
HETATM   33  N1  UNL     1      30.201  49.717  15.165  1.00  0.00    -0.234 N 
ATOM     34  H12 UNL     1      31.127  49.328  15.343  1.00  0.00     0.174 HD
ATOM     35  H11 UNL     1      29.434  49.351  15.729  1.00  0.00     0.174 HD
ENDBRANCH   1  33
BRANCH  16  36
HETATM   36  N10 UNL     1      30.762  55.968  12.219  1.00  0.00    -0.343 N 
ATOM     37 2H10 UNL     1      31.389  55.207  11.958  1.00  0.00     0.176 HD
ATOM     38 1H10 UNL     1      31.159  56.788  12.677  1.00  0.00     0.176 HD
ENDBRANCH  16  36
TORSDOF 8
ENDMDL
