MODEL 1
REMARK VINA RESULT: -8.885332468      0.000      0.000
REMARK  6 active torsions:
REMARK  status: ('A' for Active; 'I' for Inactive)
REMARK    1  A    between atoms: C2_2  and  C3_3 
REMARK    2  A    between atoms: C2_2  and  N2_8 
REMARK    3  A    between atoms: C3_3  and  N1_4 
REMARK    4  A    between atoms: N2_8  and  C4_11 
REMARK    5  A    between atoms: C4_11  and  C5_12 
REMARK    6  A    between atoms: C8_15  and  C9_16 
ROOT
HETATM    1  C5  UNL     1      39.476  11.055  50.528  1.00  0.00    -0.033 A 
HETATM    2  C6  UNL     1      39.351  12.107  51.399  1.00  0.00     0.010 A 
HETATM    3  C7  UNL     1      38.205  12.339  52.118  1.00  0.00     0.014 A 
HETATM    4  C8  UNL     1      37.100  11.500  51.994  1.00  0.00    -0.009 A 
HETATM    5  C14 UNL     1      37.212  10.444  51.127  1.00  0.00     0.014 A 
HETATM    6  C15 UNL     1      38.381  10.231  50.410  1.00  0.00     0.010 A 
ENDROOT
BRANCH   1   7
HETATM    7  C4  UNL     1      40.679  10.747  49.719  1.00  0.00     0.271 C 
BRANCH   7   8
HETATM    8  N2  UNL     1      41.044   9.372  49.743  1.00  0.00    -0.066 N 
ATOM      9  H22 UNL     1      41.544   9.103  48.896  1.00  0.00     0.278 HD
ATOM     10  H21 UNL     1      40.229   8.767  49.642  1.00  0.00     0.278 HD
BRANCH   8  11
HETATM   11  C2  UNL     1      41.790   9.053  50.913  1.00  0.00     0.207 C 
HETATM   12  C1  UNL     1      41.143   8.134  51.891  1.00  0.00     0.041 C 
BRANCH  11  13
HETATM   13  C3  UNL     1      43.149   8.442  50.531  1.00  0.00     0.262 C 
BRANCH  13  14
HETATM   14  N1  UNL     1      42.884   7.503  49.457  1.00  0.00    -0.077 N 
ATOM     15  H13 UNL     1      42.653   6.566  49.786  1.00  0.00     0.274 HD
ATOM     16  H12 UNL     1      42.008   7.684  48.968  1.00  0.00     0.274 HD
ATOM     17  H11 UNL     1      43.702   7.529  48.847  1.00  0.00     0.274 HD
ENDBRANCH  13  14
ENDBRANCH  11  13
ENDBRANCH   8  11
ENDBRANCH   7   8
ENDBRANCH   1   7
BRANCH   4  18
HETATM   18  C9  UNL     1      35.892  11.746  52.754  1.00  0.00     0.042 A 
HETATM   19  C10 UNL     1      34.681  11.248  52.386  1.00  0.00     0.030 A 
HETATM   20  C11 UNL     1      33.521  11.501  53.136  1.00  0.00     0.004 A 
HETATM   21  C12 UNL     1      33.658  12.273  54.262  1.00  0.00     0.017 A 
HETATM   22  C13 UNL     1      34.881  12.770  54.626  1.00  0.00     0.088 A 
HETATM   23  N3  UNL     1      35.959  12.494  53.866  1.00  0.00    -0.365 N 
ATOM     24  H3  UNL     1      36.865  12.870  54.147  1.00  0.00     0.165 HD
ENDBRANCH   4  18
TORSDOF 6
ENDMDL
MODEL 2
REMARK VINA RESULT: -8.840528314      0.822      1.244
REMARK  6 active torsions:
REMARK  status: ('A' for Active; 'I' for Inactive)
REMARK    1  A    between atoms: C2_2  and  C3_3 
REMARK    2  A    between atoms: C2_2  and  N2_8 
REMARK    3  A    between atoms: C3_3  and  N1_4 
REMARK    4  A    between atoms: N2_8  and  C4_11 
REMARK    5  A    between atoms: C4_11  and  C5_12 
REMARK    6  A    between atoms: C8_15  and  C9_16 
ROOT
HETATM    1  C5  UNL     1      39.436  11.114  50.545  1.00  0.00    -0.033 A 
HETATM    2  C6  UNL     1      39.266  12.196  51.370  1.00  0.00     0.010 A 
HETATM    3  C7  UNL     1      38.114  12.404  52.088  1.00  0.00     0.014 A 
HETATM    4  C8  UNL     1      37.050  11.508  52.010  1.00  0.00    -0.009 A 
HETATM    5  C14 UNL     1      37.208  10.421  51.189  1.00  0.00     0.014 A 
HETATM    6  C15 UNL     1      38.383  10.234  50.472  1.00  0.00     0.010 A 
ENDROOT
BRANCH   1   7
HETATM    7  C4  UNL     1      40.648  10.830  49.741  1.00  0.00     0.271 C 
BRANCH   7   8
HETATM    8  N2  UNL     1      40.955   9.444  49.644  1.00  0.00    -0.066 N 
ATOM      9  H22 UNL     1      41.206   9.182  48.691  1.00  0.00     0.278 HD
ATOM     10  H21 UNL     1      40.119   8.868  49.750  1.00  0.00     0.278 HD
BRANCH   8  11
HETATM   11  C2  UNL     1      41.968   9.070  50.573  1.00  0.00     0.207 C 
HETATM   12  C1  UNL     1      42.664  10.175  51.287  1.00  0.00     0.041 C 
BRANCH  11  13
HETATM   13  C3  UNL     1      41.394   8.119  51.636  1.00  0.00     0.262 C 
BRANCH  13  14
HETATM   14  N1  UNL     1      41.127   8.932  52.807  1.00  0.00    -0.077 N 
ATOM     15  H13 UNL     1      41.964   9.361  53.201  1.00  0.00     0.274 HD
ATOM     16  H12 UNL     1      40.631   9.798  52.594  1.00  0.00     0.274 HD
ATOM     17  H11 UNL     1      40.631   8.331  53.465  1.00  0.00     0.274 HD
ENDBRANCH  13  14
ENDBRANCH  11  13
ENDBRANCH   8  11
ENDBRANCH   7   8
ENDBRANCH   1   7
BRANCH   4  18
HETATM   18  C9  UNL     1      35.837  11.729  52.769  1.00  0.00     0.042 A 
HETATM   19  C10 UNL     1      34.624  11.271  52.358  1.00  0.00     0.030 A 
HETATM   20  C11 UNL     1      33.457  11.499  53.107  1.00  0.00     0.004 A 
HETATM   21  C12 UNL     1      33.591  12.202  54.278  1.00  0.00     0.017 A 
HETATM   22  C13 UNL     1      34.817  12.659  54.684  1.00  0.00     0.088 A 
HETATM   23  N3  UNL     1      35.901  12.410  53.922  1.00  0.00    -0.365 N 
ATOM     24  H3  UNL     1      36.808  12.755  54.236  1.00  0.00     0.165 HD
ENDBRANCH   4  18
TORSDOF 6
ENDMDL
MODEL 3
REMARK VINA RESULT: -8.780067597      0.112      1.111
REMARK  6 active torsions:
REMARK  status: ('A' for Active; 'I' for Inactive)
REMARK    1  A    between atoms: C2_2  and  C3_3 
REMARK    2  A    between atoms: C2_2  and  N2_8 
REMARK    3  A    between atoms: C3_3  and  N1_4 
REMARK    4  A    between atoms: N2_8  and  C4_11 
REMARK    5  A    between atoms: C4_11  and  C5_12 
REMARK    6  A    between atoms: C8_15  and  C9_16 
ROOT
HETATM    1  C5  UNL     1      39.415  10.983  50.532  1.00  0.00    -0.033 A 
HETATM    2  C6  UNL     1      38.293  10.202  50.422  1.00  0.00     0.010 A 
HETATM    3  C7  UNL     1      37.150  10.446  51.143  1.00  0.00     0.014 A 
HETATM    4  C8  UNL     1      37.079  11.516  52.032  1.00  0.00    -0.009 A 
HETATM    5  C14 UNL     1      38.194  12.305  52.150  1.00  0.00     0.014 A 
HETATM    6  C15 UNL     1      39.339  12.037  51.411  1.00  0.00     0.010 A 
ENDROOT
BRANCH   1   7
HETATM    7  C4  UNL     1      40.680  10.776  49.788  1.00  0.00     0.271 C 
BRANCH   7   8
HETATM    8  N2  UNL     1      41.057   9.408  49.676  1.00  0.00    -0.066 N 
ATOM      9  H22 UNL     1      41.627   9.243  48.847  1.00  0.00     0.278 HD
ATOM     10  H21 UNL     1      40.260   8.818  49.438  1.00  0.00     0.278 HD
BRANCH   8  11
HETATM   11  C2  UNL     1      41.710   8.952  50.858  1.00  0.00     0.207 C 
HETATM   12  C1  UNL     1      40.999   7.922  51.662  1.00  0.00     0.041 C 
BRANCH  11  13
HETATM   13  C3  UNL     1      43.103   8.396  50.517  1.00  0.00     0.262 C 
BRANCH  13  14
HETATM   14  N1  UNL     1      42.911   7.460  49.426  1.00  0.00    -0.077 N 
ATOM     15  H13 UNL     1      41.946   7.410  49.100  1.00  0.00     0.274 HD
ATOM     16  H12 UNL     1      43.324   7.772  48.547  1.00  0.00     0.274 HD
ATOM     17  H11 UNL     1      43.276   6.564  49.750  1.00  0.00     0.274 HD
ENDBRANCH  13  14
ENDBRANCH  11  13
ENDBRANCH   8  11
ENDBRANCH   7   8
ENDBRANCH   1   7
BRANCH   4  18
HETATM   18  C9  UNL     1      35.873  11.771  52.791  1.00  0.00     0.042 A 
HETATM   19  C10 UNL     1      34.673  11.222  52.464  1.00  0.00     0.030 A 
HETATM   20  C11 UNL     1      33.513  11.483  53.212  1.00  0.00     0.004 A 
HETATM   21  C12 UNL     1      33.639  12.318  54.293  1.00  0.00     0.017 A 
HETATM   22  C13 UNL     1      34.851  12.867  54.616  1.00  0.00     0.088 A 
HETATM   23  N3  UNL     1      35.930  12.580  53.860  1.00  0.00    -0.365 N 
ATOM     24  H3  UNL     1      36.827  12.994  54.112  1.00  0.00     0.165 HD
ENDBRANCH   4  18
TORSDOF 6
ENDMDL
MODEL 4
REMARK VINA RESULT: -8.752185066      0.652      1.111
REMARK  6 active torsions:
REMARK  status: ('A' for Active; 'I' for Inactive)
REMARK    1  A    between atoms: C2_2  and  C3_3 
REMARK    2  A    between atoms: C2_2  and  N2_8 
REMARK    3  A    between atoms: C3_3  and  N1_4 
REMARK    4  A    between atoms: N2_8  and  C4_11 
REMARK    5  A    between atoms: C4_11  and  C5_12 
REMARK    6  A    between atoms: C8_15  and  C9_16 
ROOT
HETATM    1  C5  UNL     1      39.353  11.096  50.559  1.00  0.00    -0.033 A 
HETATM    2  C6  UNL     1      39.255  12.097  51.491  1.00  0.00     0.010 A 
HETATM    3  C7  UNL     1      38.125  12.295  52.245  1.00  0.00     0.014 A 
HETATM    4  C8  UNL     1      37.010  11.472  52.095  1.00  0.00    -0.009 A 
HETATM    5  C14 UNL     1      37.096  10.468  51.167  1.00  0.00     0.014 A 
HETATM    6  C15 UNL     1      38.250  10.288  50.416  1.00  0.00     0.010 A 
ENDROOT
BRANCH   1   7
HETATM    7  C4  UNL     1      40.538  10.827  49.710  1.00  0.00     0.271 C 
BRANCH   7   8
HETATM    8  N2  UNL     1      40.943   9.463  49.714  1.00  0.00    -0.066 N 
ATOM      9  H22 UNL     1      41.465   9.225  48.871  1.00  0.00     0.278 HD
ATOM     10  H21 UNL     1      40.147   8.836  49.588  1.00  0.00     0.278 HD
BRANCH   8  11
HETATM   11  C2  UNL     1      41.678   9.143  50.891  1.00  0.00     0.207 C 
HETATM   12  C1  UNL     1      41.018   8.235  51.868  1.00  0.00     0.041 C 
BRANCH  11  13
HETATM   13  C3  UNL     1      43.035   8.520  50.521  1.00  0.00     0.262 C 
BRANCH  13  14
HETATM   14  N1  UNL     1      42.763   7.540  49.487  1.00  0.00    -0.077 N 
ATOM     15  H13 UNL     1      41.837   7.637  49.070  1.00  0.00     0.274 HD
ATOM     16  H12 UNL     1      43.301   7.691  48.634  1.00  0.00     0.274 HD
ATOM     17  H11 UNL     1      42.923   6.626  49.911  1.00  0.00     0.274 HD
ENDBRANCH  13  14
ENDBRANCH  11  13
ENDBRANCH   8  11
ENDBRANCH   7   8
ENDBRANCH   1   7
BRANCH   4  18
HETATM   18  C9  UNL     1      35.820  11.684  52.893  1.00  0.00     0.042 A 
HETATM   19  C10 UNL     1      35.869  12.138  54.174  1.00  0.00     0.030 A 
HETATM   20  C11 UNL     1      34.703  12.335  54.932  1.00  0.00     0.004 A 
HETATM   21  C12 UNL     1      33.505  12.050  54.326  1.00  0.00     0.017 A 
HETATM   22  C13 UNL     1      33.465  11.593  53.035  1.00  0.00     0.088 A 
HETATM   23  N3  UNL     1      34.618  11.423  52.357  1.00  0.00    -0.365 N 
ATOM     24  H3  UNL     1      34.574  11.083  51.397  1.00  0.00     0.165 HD
ENDBRANCH   4  18
TORSDOF 6
ENDMDL
MODEL 5
REMARK VINA RESULT: -8.738905781      0.824      1.660
REMARK  6 active torsions:
REMARK  status: ('A' for Active; 'I' for Inactive)
REMARK    1  A    between atoms: C2_2  and  C3_3 
REMARK    2  A    between atoms: C2_2  and  N2_8 
REMARK    3  A    between atoms: C3_3  and  N1_4 
REMARK    4  A    between atoms: N2_8  and  C4_11 
REMARK    5  A    between atoms: C4_11  and  C5_12 
REMARK    6  A    between atoms: C8_15  and  C9_16 
ROOT
HETATM    1  C5  UNL     1      39.362  11.039  50.537  1.00  0.00    -0.033 A 
HETATM    2  C6  UNL     1      38.269  10.212  50.473  1.00  0.00     0.010 A 
HETATM    3  C7  UNL     1      37.128  10.438  51.201  1.00  0.00     0.014 A 
HETATM    4  C8  UNL     1      37.026  11.539  52.050  1.00  0.00    -0.009 A 
HETATM    5  C14 UNL     1      38.111  12.374  52.122  1.00  0.00     0.014 A 
HETATM    6  C15 UNL     1      39.255  12.122  51.377  1.00  0.00     0.010 A 
ENDROOT
BRANCH   1   7
HETATM    7  C4  UNL     1      40.624  10.853  49.783  1.00  0.00     0.271 C 
BRANCH   7   8
HETATM    8  N2  UNL     1      40.991   9.488  49.616  1.00  0.00    -0.066 N 
ATOM      9  H22 UNL     1      41.303   9.298  48.665  1.00  0.00     0.278 HD
ATOM     10  H21 UNL     1      40.174   8.876  49.638  1.00  0.00     0.278 HD
BRANCH   8  11
HETATM   11  C2  UNL     1      41.966   9.092  50.576  1.00  0.00     0.207 C 
HETATM   12  C1  UNL     1      42.626  10.179  51.349  1.00  0.00     0.041 C 
BRANCH  11  13
HETATM   13  C3  UNL     1      41.353   8.109  51.587  1.00  0.00     0.262 C 
BRANCH  13  14
HETATM   14  N1  UNL     1      41.114   8.869  52.798  1.00  0.00    -0.077 N 
ATOM     15  H13 UNL     1      40.270   8.583  53.296  1.00  0.00     0.274 HD
ATOM     16  H12 UNL     1      41.776   8.660  53.545  1.00  0.00     0.274 HD
ATOM     17  H11 UNL     1      41.110   9.852  52.524  1.00  0.00     0.274 HD
ENDBRANCH  13  14
ENDBRANCH  11  13
ENDBRANCH   8  11
ENDBRANCH   7   8
ENDBRANCH   1   7
BRANCH   4  18
HETATM   18  C9  UNL     1      35.821  11.776  52.816  1.00  0.00     0.042 A 
HETATM   19  C10 UNL     1      34.607  11.291  52.439  1.00  0.00     0.030 A 
HETATM   20  C11 UNL     1      33.448  11.534  53.195  1.00  0.00     0.004 A 
HETATM   21  C12 UNL     1      33.590  12.283  54.337  1.00  0.00     0.017 A 
HETATM   22  C13 UNL     1      34.815  12.767  54.709  1.00  0.00     0.088 A 
HETATM   23  N3  UNL     1      35.892  12.501  53.943  1.00  0.00    -0.365 N 
ATOM     24  H3  UNL     1      36.799  12.867  54.231  1.00  0.00     0.165 HD
ENDBRANCH   4  18
TORSDOF 6
ENDMDL
