MODEL 1
REMARK VINA RESULT: -8.607307979      0.000      0.000
REMARK  6 active torsions:
REMARK  status: ('A' for Active; 'I' for Inactive)
REMARK    1  A    between atoms: C2_2  and  C3_3 
REMARK    2  A    between atoms: C5_8  and  C6_9 
REMARK    3  A    between atoms: N3_13  and  C8_14 
REMARK    4  A    between atoms: C11_17  and  C12_18 
REMARK    5  A    between atoms: C12_18  and  O2_19 
REMARK    6  A    between atoms: C13_22  and  C14_23 
ROOT
HETATM    1  C3  UNL     1       5.929  19.751  53.796  1.00  0.00     0.188 C 
HETATM    2  C4  UNL     1       6.383  21.098  53.375  1.00  0.00     0.245 C 
HETATM    3  O1  UNL     1       6.177  22.083  54.101  1.00  0.00    -0.271 OA
HETATM    4  N1  UNL     1       7.112  21.367  52.141  1.00  0.00    -0.326 N 
ATOM      5  H1  UNL     1       8.013  21.820  52.298  1.00  0.00     0.168 HD
HETATM    6  C5  UNL     1       6.860  21.152  50.882  1.00  0.00     0.051 C 
HETATM    7  C11 UNL     1       5.728  20.537  50.157  1.00  0.00     0.176 C 
HETATM    8  N4  UNL     1       5.364  19.262  50.554  1.00  0.00    -0.256 N 
HETATM    9  C13 UNL     1       4.642  18.434  49.754  1.00  0.00     0.120 C 
HETATM   10  S1  UNL     1       6.373  18.349  51.565  1.00  0.00     0.324 S 
HETATM   11  O3  UNL     1       5.950  16.871  51.452  1.00  0.00    -0.182 OA
HETATM   12  O4  UNL     1       7.748  18.339  50.880  1.00  0.00    -0.182 OA
HETATM   13  N5  UNL     1       6.582  18.683  53.158  1.00  0.00    -0.284 N 
HETATM   14  C20 UNL     1       6.584  17.472  53.990  1.00  0.00     0.165 C 
ENDROOT
BRANCH   6  15
HETATM   15  C6  UNL     1       7.992  21.642  50.033  1.00  0.00     0.023 A 
HETATM   16  C7  UNL     1       8.154  22.929  49.666  1.00  0.00     0.122 A 
HETATM   17  N2  UNL     1       9.130  22.963  48.773  1.00  0.00    -0.309 N 
HETATM   18  N3  UNL     1       9.560  21.744  48.579  1.00  0.00    -0.303 N 
ATOM     19  H2  UNL     1       9.487  23.801  48.313  1.00  0.00     0.186 HD
HETATM   20  C10 UNL     1       8.870  20.907  49.351  1.00  0.00     0.124 A 
BRANCH  18  21
HETATM   21  C8  UNL     1      10.584  21.430  47.573  1.00  0.00     0.143 C 
HETATM   22  C9  UNL     1      10.888  22.743  46.854  1.00  0.00     0.028 C 
ENDBRANCH  18  21
ENDBRANCH   6  15
BRANCH   7  23
HETATM   23  C12 UNL     1       4.636  21.547  49.966  1.00  0.00     0.196 C 
BRANCH  23  24
HETATM   24  O2  UNL     1       3.618  21.488  50.931  1.00  0.00    -0.398 OA
ATOM     25  H2  UNL     1       3.155  22.308  51.062  1.00  0.00     0.209 HD
ENDBRANCH  23  24
ENDBRANCH   7  23
BRANCH   1  26
HETATM   26  C2  UNL     1       5.789  19.654  55.257  1.00  0.00     0.031 C 
HETATM   27  C1  UNL     1       4.506  20.111  55.868  1.00  0.00     0.007 C 
ENDBRANCH   1  26
BRANCH   9  28
HETATM   28  C14 UNL     1       3.509  18.685  48.925  1.00  0.00     0.019 A 
HETATM   29  C15 UNL     1       3.522  18.743  47.574  1.00  0.00     0.016 A 
HETATM   30  C16 UNL     1       2.358  18.711  46.800  1.00  0.00     0.001 A 
HETATM   31  C17 UNL     1       1.136  18.618  47.449  1.00  0.00     0.003 A 
HETATM   32  C18 UNL     1       1.101  18.565  48.833  1.00  0.00     0.043 A 
HETATM   33  C19 UNL     1       2.247  18.596  49.575  1.00  0.00     0.128 A 
HETATM   34  F1  UNL     1       2.249  18.592  50.953  1.00  0.00    -0.205 F 
ENDBRANCH   9  28
TORSDOF 6
ENDMDL
MODEL 2
REMARK VINA RESULT: -8.564498247      0.942      1.440
REMARK  6 active torsions:
REMARK  status: ('A' for Active; 'I' for Inactive)
REMARK    1  A    between atoms: C2_2  and  C3_3 
REMARK    2  A    between atoms: C5_8  and  C6_9 
REMARK    3  A    between atoms: N3_13  and  C8_14 
REMARK    4  A    between atoms: C11_17  and  C12_18 
REMARK    5  A    between atoms: C12_18  and  O2_19 
REMARK    6  A    between atoms: C13_22  and  C14_23 
ROOT
HETATM    1  C3  UNL     1       5.857  19.750  53.802  1.00  0.00     0.188 C 
HETATM    2  C4  UNL     1       6.306  21.033  53.209  1.00  0.00     0.245 C 
HETATM    3  O1  UNL     1       6.139  22.098  53.824  1.00  0.00    -0.271 OA
HETATM    4  N1  UNL     1       6.985  21.146  51.924  1.00  0.00    -0.326 N 
ATOM      5  H1  UNL     1       7.896  21.601  51.991  1.00  0.00     0.168 HD
HETATM    6  C5  UNL     1       6.679  20.790  50.710  1.00  0.00     0.051 C 
HETATM    7  C11 UNL     1       5.512  20.112  50.108  1.00  0.00     0.176 C 
HETATM    8  N4  UNL     1       5.153  18.896  50.664  1.00  0.00    -0.256 N 
HETATM    9  C13 UNL     1       4.391  17.992  49.996  1.00  0.00     0.120 C 
HETATM   10  S1  UNL     1       6.194  18.093  51.734  1.00  0.00     0.324 S 
HETATM   11  O3  UNL     1       5.754  16.618  51.810  1.00  0.00    -0.182 OA
HETATM   12  O4  UNL     1       7.540  17.984  50.999  1.00  0.00    -0.182 OA
HETATM   13  N5  UNL     1       6.473  18.606  53.267  1.00  0.00    -0.284 N 
HETATM   14  C20 UNL     1       6.498  17.499  54.233  1.00  0.00     0.165 C 
ENDROOT
BRANCH   6  15
HETATM   15  C6  UNL     1       7.779  21.163  49.765  1.00  0.00     0.023 A 
HETATM   16  C7  UNL     1       8.656  20.280  49.246  1.00  0.00     0.122 A 
HETATM   17  N2  UNL     1       9.592  20.975  48.621  1.00  0.00    -0.309 N 
HETATM   18  N3  UNL     1       9.321  22.247  48.750  1.00  0.00    -0.303 N 
ATOM     19  H2  UNL     1      10.392  20.585  48.123  1.00  0.00     0.186 HD
HETATM   20  C10 UNL     1       8.199  22.389  49.454  1.00  0.00     0.124 A 
BRANCH  18  21
HETATM   21  C8  UNL     1      10.223  23.292  48.243  1.00  0.00     0.143 C 
HETATM   22  C9  UNL     1      10.794  22.757  46.932  1.00  0.00     0.028 C 
ENDBRANCH  18  21
ENDBRANCH   6  15
BRANCH   7  23
HETATM   23  C12 UNL     1       4.423  21.108  49.843  1.00  0.00     0.196 C 
BRANCH  23  24
HETATM   24  O2  UNL     1       3.568  21.332  50.935  1.00  0.00    -0.398 OA
ATOM     25  H2  UNL     1       3.006  22.093  50.842  1.00  0.00     0.209 HD
ENDBRANCH  23  24
ENDBRANCH   7  23
BRANCH   1  26
HETATM   26  C2  UNL     1       5.777  19.825  55.269  1.00  0.00     0.031 C 
HETATM   27  C1  UNL     1       4.497  20.296  55.875  1.00  0.00     0.007 C 
ENDBRANCH   1  26
BRANCH   9  28
HETATM   28  C14 UNL     1       3.226  18.161  49.189  1.00  0.00     0.019 A 
HETATM   29  C15 UNL     1       1.978  18.393  49.652  1.00  0.00     0.016 A 
HETATM   30  C16 UNL     1       0.931  18.826  48.832  1.00  0.00     0.001 A 
HETATM   31  C17 UNL     1       1.187  19.023  47.484  1.00  0.00     0.003 A 
HETATM   32  C18 UNL     1       2.458  18.783  46.988  1.00  0.00     0.043 A 
HETATM   33  C19 UNL     1       3.471  18.362  47.803  1.00  0.00     0.128 A 
HETATM   34  F1  UNL     1       4.734  18.068  47.337  1.00  0.00    -0.205 F 
ENDBRANCH   9  28
TORSDOF 6
ENDMDL
MODEL 3
REMARK VINA RESULT: -8.328854730      2.696      4.744
REMARK  6 active torsions:
REMARK  status: ('A' for Active; 'I' for Inactive)
REMARK    1  A    between atoms: C2_2  and  C3_3 
REMARK    2  A    between atoms: C5_8  and  C6_9 
REMARK    3  A    between atoms: N3_13  and  C8_14 
REMARK    4  A    between atoms: C11_17  and  C12_18 
REMARK    5  A    between atoms: C12_18  and  O2_19 
REMARK    6  A    between atoms: C13_22  and  C14_23 
ROOT
HETATM    1  C3  UNL     1       3.829  20.193  51.796  1.00  0.00     0.188 C 
HETATM    2  C4  UNL     1       4.334  20.512  50.439  1.00  0.00     0.245 C 
HETATM    3  O1  UNL     1       3.547  20.596  49.483  1.00  0.00    -0.271 OA
HETATM    4  N1  UNL     1       5.733  20.780  50.129  1.00  0.00    -0.326 N 
ATOM      5  H1  UNL     1       5.881  21.692  49.696  1.00  0.00     0.168 HD
HETATM    6  C5  UNL     1       6.835  20.104  50.286  1.00  0.00     0.051 C 
HETATM    7  C11 UNL     1       7.146  18.775  50.854  1.00  0.00     0.176 C 
HETATM    8  N4  UNL     1       6.693  18.534  52.140  1.00  0.00    -0.256 N 
HETATM    9  C13 UNL     1       7.223  17.559  52.922  1.00  0.00     0.120 C 
HETATM   10  S1  UNL     1       6.124  19.803  53.109  1.00  0.00     0.324 S 
HETATM   11  O3  UNL     1       6.136  19.327  54.574  1.00  0.00    -0.182 OA
HETATM   12  O4  UNL     1       7.242  20.858  53.108  1.00  0.00    -0.182 OA
HETATM   13  N5  UNL     1       4.690  20.557  52.845  1.00  0.00    -0.284 N 
HETATM   14  C20 UNL     1       3.953  20.811  54.091  1.00  0.00     0.165 C 
ENDROOT
BRANCH   6  15
HETATM   15  C6  UNL     1       8.004  20.888  49.777  1.00  0.00     0.023 A 
HETATM   16  C7  UNL     1       8.074  22.234  49.799  1.00  0.00     0.122 A 
HETATM   17  N2  UNL     1       9.142  22.585  49.101  1.00  0.00    -0.309 N 
HETATM   18  N3  UNL     1       9.718  21.502  48.650  1.00  0.00    -0.303 N 
ATOM     19  H2  UNL     1       9.463  23.540  48.942  1.00  0.00     0.186 HD
HETATM   20  C10 UNL     1       9.031  20.436  49.057  1.00  0.00     0.124 A 
BRANCH  18  21
HETATM   21  C8  UNL     1      10.884  21.554  47.757  1.00  0.00     0.143 C 
HETATM   22  C9  UNL     1      10.691  22.790  46.880  1.00  0.00     0.028 C 
ENDBRANCH  18  21
ENDBRANCH   6  15
BRANCH   7  23
HETATM   23  C12 UNL     1       6.914  17.713  49.821  1.00  0.00     0.196 C 
BRANCH  23  24
HETATM   24  O2  UNL     1       6.111  18.121  48.743  1.00  0.00    -0.398 OA
ATOM     25  H2  UNL     1       6.406  18.917  48.315  1.00  0.00     0.209 HD
ENDBRANCH  23  24
ENDBRANCH   7  23
BRANCH   1  26
HETATM   26  C2  UNL     1       2.414  20.562  51.953  1.00  0.00     0.031 C 
HETATM   27  C1  UNL     1       1.389  19.493  51.766  1.00  0.00     0.007 C 
ENDBRANCH   1  26
BRANCH   9  28
HETATM   28  C14 UNL     1       7.602  16.217  52.620  1.00  0.00     0.019 A 
HETATM   29  C15 UNL     1       6.750  15.184  52.432  1.00  0.00     0.016 A 
HETATM   30  C16 UNL     1       7.144  13.966  51.869  1.00  0.00     0.001 A 
HETATM   31  C17 UNL     1       8.468  13.812  51.490  1.00  0.00     0.003 A 
HETATM   32  C18 UNL     1       9.359  14.855  51.682  1.00  0.00     0.043 A 
HETATM   33  C19 UNL     1       8.959  16.040  52.232  1.00  0.00     0.128 A 
HETATM   34  F1  UNL     1       9.825  17.082  52.481  1.00  0.00    -0.205 F 
ENDBRANCH   9  28
TORSDOF 6
ENDMDL
MODEL 4
REMARK VINA RESULT: -8.198477796      2.379      4.690
REMARK  6 active torsions:
REMARK  status: ('A' for Active; 'I' for Inactive)
REMARK    1  A    between atoms: C2_2  and  C3_3 
REMARK    2  A    between atoms: C5_8  and  C6_9 
REMARK    3  A    between atoms: N3_13  and  C8_14 
REMARK    4  A    between atoms: C11_17  and  C12_18 
REMARK    5  A    between atoms: C12_18  and  O2_19 
REMARK    6  A    between atoms: C13_22  and  C14_23 
ROOT
HETATM    1  C3  UNL     1       3.913  20.320  51.790  1.00  0.00     0.188 C 
HETATM    2  C4  UNL     1       4.368  20.711  50.434  1.00  0.00     0.245 C 
HETATM    3  O1  UNL     1       3.564  20.740  49.490  1.00  0.00    -0.271 OA
HETATM    4  N1  UNL     1       5.732  21.114  50.113  1.00  0.00    -0.326 N 
ATOM      5  H1  UNL     1       5.788  22.044  49.697  1.00  0.00     0.168 HD
HETATM    6  C5  UNL     1       6.894  20.540  50.244  1.00  0.00     0.051 C 
HETATM    7  C11 UNL     1       7.334  19.235  50.781  1.00  0.00     0.176 C 
HETATM    8  N4  UNL     1       6.923  18.928  52.067  1.00  0.00    -0.256 N 
HETATM    9  C13 UNL     1       7.552  17.992  52.823  1.00  0.00     0.120 C 
HETATM   10  S1  UNL     1       6.252  20.121  53.068  1.00  0.00     0.324 S 
HETATM   11  O3  UNL     1       6.328  19.619  54.523  1.00  0.00    -0.182 OA
HETATM   12  O4  UNL     1       7.266  21.275  53.076  1.00  0.00    -0.182 OA
HETATM   13  N5  UNL     1       4.751  20.742  52.837  1.00  0.00    -0.284 N 
HETATM   14  C20 UNL     1       4.010  20.903  54.096  1.00  0.00     0.165 C 
ENDROOT
BRANCH   6  15
HETATM   15  C6  UNL     1       7.978  21.440  49.737  1.00  0.00     0.023 A 
HETATM   16  C7  UNL     1       7.962  22.782  49.865  1.00  0.00     0.122 A 
HETATM   17  N2  UNL     1       8.963  23.257  49.141  1.00  0.00    -0.309 N 
HETATM   18  N3  UNL     1       9.579  22.254  48.573  1.00  0.00    -0.303 N 
ATOM     19  H2  UNL     1       9.212  24.242  49.042  1.00  0.00     0.186 HD
HETATM   20  C10 UNL     1       8.987  21.116  48.929  1.00  0.00     0.124 A 
BRANCH  18  21
HETATM   21  C8  UNL     1      10.685  22.455  47.625  1.00  0.00     0.143 C 
HETATM   22  C9  UNL     1      10.364  23.741  46.867  1.00  0.00     0.028 C 
ENDBRANCH  18  21
ENDBRANCH   6  15
BRANCH   7  23
HETATM   23  C12 UNL     1       7.188  18.176  49.729  1.00  0.00     0.196 C 
BRANCH  23  24
HETATM   24  O2  UNL     1       6.198  18.447  48.771  1.00  0.00    -0.398 OA
ATOM     25  H2  UNL     1       5.525  19.051  49.064  1.00  0.00     0.209 HD
ENDBRANCH  23  24
ENDBRANCH   7  23
BRANCH   1  26
HETATM   26  C2  UNL     1       2.472  20.553  51.971  1.00  0.00     0.031 C 
HETATM   27  C1  UNL     1       1.546  19.406  51.738  1.00  0.00     0.007 C 
ENDBRANCH   1  26
BRANCH   9  28
HETATM   28  C14 UNL     1       8.050  16.697  52.489  1.00  0.00     0.019 A 
HETATM   29  C15 UNL     1       9.345  16.390  52.256  1.00  0.00     0.016 A 
HETATM   30  C16 UNL     1       9.819  15.075  52.210  1.00  0.00     0.001 A 
HETATM   31  C17 UNL     1       8.918  14.041  52.412  1.00  0.00     0.003 A 
HETATM   32  C18 UNL     1       7.583  14.335  52.644  1.00  0.00     0.043 A 
HETATM   33  C19 UNL     1       7.136  15.625  52.687  1.00  0.00     0.128 A 
HETATM   34  F1  UNL     1       5.811  15.953  52.870  1.00  0.00    -0.205 F 
ENDBRANCH   9  28
TORSDOF 6
ENDMDL
MODEL 5
REMARK VINA RESULT: -8.008341186      3.095      6.648
REMARK  6 active torsions:
REMARK  status: ('A' for Active; 'I' for Inactive)
REMARK    1  A    between atoms: C2_2  and  C3_3 
REMARK    2  A    between atoms: C5_8  and  C6_9 
REMARK    3  A    between atoms: N3_13  and  C8_14 
REMARK    4  A    between atoms: C11_17  and  C12_18 
REMARK    5  A    between atoms: C12_18  and  O2_19 
REMARK    6  A    between atoms: C13_22  and  C14_23 
ROOT
HETATM    1  C3  UNL     1       6.802  15.800  49.987  1.00  0.00     0.188 C 
HETATM    2  C4  UNL     1       5.493  16.452  49.744  1.00  0.00     0.245 C 
HETATM    3  O1  UNL     1       4.737  16.024  48.858  1.00  0.00    -0.271 OA
HETATM    4  N1  UNL     1       4.985  17.580  50.515  1.00  0.00    -0.326 N 
ATOM      5  H1  UNL     1       4.083  17.393  50.953  1.00  0.00     0.168 HD
HETATM    6  C5  UNL     1       5.438  18.775  50.765  1.00  0.00     0.051 C 
HETATM    7  C11 UNL     1       6.665  19.504  50.380  1.00  0.00     0.176 C 
HETATM    8  N4  UNL     1       7.867  18.879  50.664  1.00  0.00    -0.256 N 
HETATM    9  C13 UNL     1       9.037  19.563  50.742  1.00  0.00     0.120 C 
HETATM   10  S1  UNL     1       7.919  17.530  51.690  1.00  0.00     0.324 S 
HETATM   11  O3  UNL     1       9.372  17.354  52.171  1.00  0.00    -0.182 OA
HETATM   12  O4  UNL     1       7.207  17.964  52.981  1.00  0.00    -0.182 OA
HETATM   13  N5  UNL     1       7.359  16.051  51.253  1.00  0.00    -0.284 N 
HETATM   14  C20 UNL     1       8.253  14.965  51.679  1.00  0.00     0.165 C 
ENDROOT
BRANCH   6  15
HETATM   15  C6  UNL     1       4.478  19.523  51.638  1.00  0.00     0.023 A 
HETATM   16  C7  UNL     1       4.803  20.044  52.838  1.00  0.00     0.122 A 
HETATM   17  N2  UNL     1       3.680  20.455  53.405  1.00  0.00    -0.309 N 
HETATM   18  N3  UNL     1       2.686  20.194  52.597  1.00  0.00    -0.303 N 
ATOM     19  H2  UNL     1       3.602  20.900  54.320  1.00  0.00     0.186 HD
HETATM   20  C10 UNL     1       3.156  19.617  51.493  1.00  0.00     0.124 A 
BRANCH  18  21
HETATM   21  C8  UNL     1       1.288  20.445  52.976  1.00  0.00     0.143 C 
HETATM   22  C9  UNL     1       1.321  20.912  54.429  1.00  0.00     0.028 C 
ENDBRANCH  18  21
ENDBRANCH   6  15
BRANCH   7  23
HETATM   23  C12 UNL     1       6.494  20.104  49.016  1.00  0.00     0.196 C 
BRANCH  23  24
HETATM   24  O2  UNL     1       5.790  19.292  48.112  1.00  0.00    -0.398 OA
ATOM     25  H2  UNL     1       4.847  19.303  48.229  1.00  0.00     0.209 HD
ENDBRANCH  23  24
ENDBRANCH   7  23
BRANCH   1  26
HETATM   26  C2  UNL     1       6.807  14.400  49.536  1.00  0.00     0.031 C 
HETATM   27  C1  UNL     1       7.474  14.087  48.238  1.00  0.00     0.007 C 
ENDBRANCH   1  26
BRANCH   9  28
HETATM   28  C14 UNL     1       9.574  20.599  49.921  1.00  0.00     0.019 A 
HETATM   29  C15 UNL     1      10.166  20.421  48.719  1.00  0.00     0.016 A 
HETATM   30  C16 UNL     1      10.421  21.473  47.833  1.00  0.00     0.001 A 
HETATM   31  C17 UNL     1      10.051  22.756  48.208  1.00  0.00     0.003 A 
HETATM   32  C18 UNL     1       9.450  22.960  49.439  1.00  0.00     0.043 A 
HETATM   33  C19 UNL     1       9.206  21.922  50.293  1.00  0.00     0.128 A 
HETATM   34  F1  UNL     1       8.653  22.093  51.543  1.00  0.00    -0.205 F 
ENDBRANCH   9  28
TORSDOF 6
ENDMDL
