MODEL 1
REMARK VINA RESULT: -5.102572929      0.000      0.000
REMARK  2 active torsions:
REMARK  status: ('A' for Active; 'I' for Inactive)
REMARK    1  A    between atoms: C2_2  and  C3_3 
REMARK    2  A    between atoms: C3_3  and  C4_4 
ROOT
HETATM    1  C4  UNL     1       2.510  19.205 -20.667  1.00  0.00     0.191 C 
HETATM    2  N1  UNL     1       3.465  18.170 -20.349  1.00  0.00    -0.069 N 
ATOM      3  H11 UNL     1       4.241  18.457 -19.752  1.00  0.00     0.277 HD
ATOM      4  H12 UNL     1       4.056  17.866 -21.123  1.00  0.00     0.277 HD
HETATM    5  C5  UNL     1       2.586  17.144 -19.787  1.00  0.00     0.256 C 
HETATM    6  C6  UNL     1       1.528  17.042 -20.847  1.00  0.00     0.138 C 
HETATM    7  N2  UNL     1       0.252  16.731 -20.245  1.00  0.00    -0.094 NA
HETATM    8  O1  UNL     1      -0.771  16.867 -21.111  1.00  0.00    -0.286 OA
HETATM    9  C7  UNL     1      -1.034  18.188 -21.428  1.00  0.00     0.196 C 
HETATM   10  C8  UNL     1       0.106  19.065 -21.017  1.00  0.00     0.036 C 
HETATM   11  C9  UNL     1       1.449  18.459 -21.423  1.00  0.00     0.041 C 
ENDROOT
BRANCH   1  12
HETATM   12  C3  UNL     1       3.114  20.346 -21.427  1.00  0.00     0.033 C 
BRANCH  12  13
HETATM   13  C2  UNL     1       3.190  21.626 -20.668  1.00  0.00    -0.002 C 
HETATM   14  C1  UNL     1       2.752  21.322 -19.232  1.00  0.00     0.005 C 
ENDBRANCH  12  13
ENDBRANCH   1  12
TORSDOF 2
ENDMDL
MODEL 2
REMARK VINA RESULT: -4.921546168      2.529      4.495
REMARK  2 active torsions:
REMARK  status: ('A' for Active; 'I' for Inactive)
REMARK    1  A    between atoms: C2_2  and  C3_3 
REMARK    2  A    between atoms: C3_3  and  C4_4 
ROOT
HETATM    1  C4  UNL     1       1.638  18.611 -20.905  1.00  0.00     0.191 C 
HETATM    2  N1  UNL     1       1.759  18.795 -22.332  1.00  0.00    -0.069 N 
ATOM      3  H11 UNL     1       1.019  18.372 -22.893  1.00  0.00     0.277 HD
ATOM      4  H12 UNL     1       2.516  18.275 -22.778  1.00  0.00     0.277 HD
HETATM    5  C5  UNL     1       1.860  20.251 -22.417  1.00  0.00     0.256 C 
HETATM    6  C6  UNL     1       2.943  20.537 -21.418  1.00  0.00     0.138 C 
HETATM    7  N2  UNL     1       2.705  21.811 -20.780  1.00  0.00    -0.094 NA
HETATM    8  O1  UNL     1       3.502  22.007 -19.711  1.00  0.00    -0.286 OA
HETATM    9  C7  UNL     1       3.168  21.198 -18.638  1.00  0.00     0.196 C 
HETATM   10  C8  UNL     1       2.266  20.088 -19.076  1.00  0.00     0.036 C 
HETATM   11  C9  UNL     1       2.768  19.438 -20.365  1.00  0.00     0.041 C 
ENDROOT
BRANCH   1  12
HETATM   12  C3  UNL     1       1.683  17.171 -20.493  1.00  0.00     0.033 C 
BRANCH  12  13
HETATM   13  C2  UNL     1       0.367  16.598 -20.095  1.00  0.00    -0.002 C 
HETATM   14  C1  UNL     1      -0.714  17.451 -20.764  1.00  0.00     0.005 C 
ENDBRANCH  12  13
ENDBRANCH   1  12
TORSDOF 2
ENDMDL
MODEL 3
REMARK VINA RESULT: -4.603572515      2.057      2.928
REMARK  2 active torsions:
REMARK  status: ('A' for Active; 'I' for Inactive)
REMARK    1  A    between atoms: C2_2  and  C3_3 
REMARK    2  A    between atoms: C3_3  and  C4_4 
ROOT
HETATM    1  C4  UNL     1       2.545  20.918 -20.812  1.00  0.00     0.191 C 
HETATM    2  N1  UNL     1       3.044  21.416 -19.552  1.00  0.00    -0.069 N 
ATOM      3  H11 UNL     1       2.825  22.392 -19.348  1.00  0.00     0.277 HD
ATOM      4  H12 UNL     1       4.055  21.539 -19.498  1.00  0.00     0.277 HD
HETATM    5  C5  UNL     1       2.478  20.438 -18.624  1.00  0.00     0.256 C 
HETATM    6  C6  UNL     1       2.892  19.143 -19.261  1.00  0.00     0.138 C 
HETATM    7  N2  UNL     1       1.889  18.131 -19.024  1.00  0.00    -0.094 NA
HETATM    8  O1  UNL     1       2.087  17.028 -19.772  1.00  0.00    -0.286 OA
HETATM    9  C7  UNL     1       1.825  17.236 -21.115  1.00  0.00     0.196 C 
HETATM   10  C8  UNL     1       1.751  18.699 -21.416  1.00  0.00     0.036 C 
HETATM   11  C9  UNL     1       2.902  19.461 -20.760  1.00  0.00     0.041 C 
ENDROOT
BRANCH   1  12
HETATM   12  C3  UNL     1       3.111  21.644 -21.994  1.00  0.00     0.033 C 
BRANCH  12  13
HETATM   13  C2  UNL     1       2.098  22.092 -22.991  1.00  0.00    -0.002 C 
HETATM   14  C1  UNL     1       2.815  22.203 -24.339  1.00  0.00     0.005 C 
ENDBRANCH  12  13
ENDBRANCH   1  12
TORSDOF 2
ENDMDL
MODEL 4
REMARK VINA RESULT: -4.581064516      2.412      4.248
REMARK  2 active torsions:
REMARK  status: ('A' for Active; 'I' for Inactive)
REMARK    1  A    between atoms: C2_2  and  C3_3 
REMARK    2  A    between atoms: C3_3  and  C4_4 
ROOT
HETATM    1  C4  UNL     1       2.355  18.392 -20.218  1.00  0.00     0.191 C 
HETATM    2  N1  UNL     1       2.103  18.500 -18.800  1.00  0.00    -0.069 N 
ATOM      3  H11 UNL     1       2.382  17.693 -18.242  1.00  0.00     0.277 HD
ATOM      4  H12 UNL     1       1.121  18.463 -18.525  1.00  0.00     0.277 HD
HETATM    5  C5  UNL     1       2.797  19.750 -18.490  1.00  0.00     0.256 C 
HETATM    6  C6  UNL     1       2.239  20.672 -19.535  1.00  0.00     0.138 C 
HETATM    7  N2  UNL     1       3.239  21.637 -19.929  1.00  0.00    -0.094 NA
HETATM    8  O1  UNL     1       2.881  22.329 -21.028  1.00  0.00    -0.286 OA
HETATM    9  C7  UNL     1       2.905  21.558 -22.178  1.00  0.00     0.196 C 
HETATM   10  C8  UNL     1       2.965  20.103 -21.836  1.00  0.00     0.036 C 
HETATM   11  C9  UNL     1       1.972  19.750 -20.729  1.00  0.00     0.041 C 
ENDROOT
BRANCH   1  12
HETATM   12  C3  UNL     1       1.608  17.264 -20.861  1.00  0.00     0.033 C 
BRANCH  12  13
HETATM   13  C2  UNL     1       0.282  16.968 -20.250  1.00  0.00    -0.002 C 
HETATM   14  C1  UNL     1      -0.770  17.702 -21.085  1.00  0.00     0.005 C 
ENDBRANCH  12  13
ENDBRANCH   1  12
TORSDOF 2
ENDMDL
MODEL 5
REMARK VINA RESULT: -4.559637795      1.431      2.268
REMARK  2 active torsions:
REMARK  status: ('A' for Active; 'I' for Inactive)
REMARK    1  A    between atoms: C2_2  and  C3_3 
REMARK    2  A    between atoms: C3_3  and  C4_4 
ROOT
HETATM    1  C4  UNL     1       2.000  19.624 -21.471  1.00  0.00     0.191 C 
HETATM    2  N1  UNL     1       0.971  20.566 -21.846  1.00  0.00    -0.069 N 
ATOM      3  H11 UNL     1       1.218  21.209 -22.599  1.00  0.00     0.277 HD
ATOM      4  H12 UNL     1       0.778  21.299 -21.163  1.00  0.00     0.277 HD
HETATM    5  C5  UNL     1      -0.143  19.662 -22.131  1.00  0.00     0.256 C 
HETATM    6  C6  UNL     1      -0.164  18.812 -20.893  1.00  0.00     0.138 C 
HETATM    7  N2  UNL     1      -0.587  17.470 -21.221  1.00  0.00    -0.094 NA
HETATM    8  O1  UNL     1      -0.393  16.608 -20.204  1.00  0.00    -0.286 OA
HETATM    9  C7  UNL     1       0.945  16.331 -19.985  1.00  0.00     0.196 C 
HETATM   10  C8  UNL     1       1.812  17.330 -20.683  1.00  0.00     0.036 C 
HETATM   11  C9  UNL     1       1.305  18.755 -20.464  1.00  0.00     0.041 C 
ENDROOT
BRANCH   1  12
HETATM   12  C3  UNL     1       3.241  20.286 -20.956  1.00  0.00     0.033 C 
BRANCH  12  13
HETATM   13  C2  UNL     1       2.998  21.404 -20.001  1.00  0.00    -0.002 C 
HETATM   14  C1  UNL     1       2.741  20.774 -18.630  1.00  0.00     0.005 C 
ENDBRANCH  12  13
ENDBRANCH   1  12
TORSDOF 2
ENDMDL
