MODEL 1
REMARK VINA RESULT: -4.583230230      0.000      0.000
REMARK  2 active torsions:
REMARK  status: ('A' for Active; 'I' for Inactive)
REMARK    1  A    between atoms: C2_2  and  C3_3 
REMARK    2  A    between atoms: C3_3  and  C4_4 
ROOT
HETATM    1  C4  UNL     1       2.409  19.635 -21.633  1.00  0.00     0.103 C 
HETATM    2  C5  UNL     1       3.115  19.219 -20.353  1.00  0.00     0.256 C 
HETATM    3  N1  UNL     1       3.461  17.815 -20.388  1.00  0.00    -0.073 N 
ATOM      4  H11 UNL     1       4.427  17.626 -20.119  1.00  0.00     0.277 HD
ATOM      5  H12 UNL     1       3.519  17.433 -21.332  1.00  0.00     0.277 HD
HETATM    6  C6  UNL     1       2.474  17.140 -19.542  1.00  0.00     0.235 C 
HETATM    7  C7  UNL     1       1.234  16.968 -20.387  1.00  0.00     0.067 C 
HETATM    8  C8  UNL     1       0.611  18.265 -20.797  1.00  0.00     0.186 C 
HETATM    9  C9  UNL     1      -0.789  17.966 -21.182  1.00  0.00     0.084 C 
HETATM   10  N2  UNL     1      -1.880  17.722 -21.477  1.00  0.00    -0.195 NA
HETATM   11  N3  UNL     1       1.229  18.905 -21.904  1.00  0.00    -0.400 N 
ATOM     12  H3  UNL     1       0.842  18.842 -22.846  1.00  0.00     0.155 HD
ENDROOT
BRANCH   1  13
HETATM   13  C3  UNL     1       2.244  21.122 -21.586  1.00  0.00     0.026 C 
BRANCH  13  14
HETATM   14  C2  UNL     1       3.014  21.854 -22.643  1.00  0.00    -0.002 C 
HETATM   15  C1  UNL     1       2.208  22.233 -23.837  1.00  0.00     0.005 C 
ENDBRANCH  13  14
ENDBRANCH   1  13
TORSDOF 2
ENDMDL
MODEL 2
REMARK VINA RESULT: -4.462648668      0.941      1.633
REMARK  2 active torsions:
REMARK  status: ('A' for Active; 'I' for Inactive)
REMARK    1  A    between atoms: C2_2  and  C3_3 
REMARK    2  A    between atoms: C3_3  and  C4_4 
ROOT
HETATM    1  C4  UNL     1       2.453  19.455 -21.625  1.00  0.00     0.103 C 
HETATM    2  C5  UNL     1       3.231  18.899 -20.444  1.00  0.00     0.256 C 
HETATM    3  N1  UNL     1       3.465  17.481 -20.602  1.00  0.00    -0.073 N 
ATOM      4  H11 UNL     1       4.433  17.205 -20.433  1.00  0.00     0.277 HD
ATOM      5  H12 UNL     1       3.414  17.165 -21.570  1.00  0.00     0.277 HD
HETATM    6  C6  UNL     1       2.504  16.816 -19.718  1.00  0.00     0.235 C 
HETATM    7  C7  UNL     1       1.188  16.793 -20.458  1.00  0.00     0.067 C 
HETATM    8  C8  UNL     1       0.633  18.157 -20.723  1.00  0.00     0.186 C 
HETATM    9  C9  UNL     1      -0.813  17.986 -21.001  1.00  0.00     0.084 C 
HETATM   10  N2  UNL     1      -1.941  17.841 -21.212  1.00  0.00    -0.195 NA
HETATM   11  N3  UNL     1       1.202  18.831 -21.837  1.00  0.00    -0.400 N 
ATOM     12  H3  UNL     1       0.734  18.863 -22.742  1.00  0.00     0.155 HD
ENDROOT
BRANCH   1  13
HETATM   13  C3  UNL     1       2.406  20.943 -21.465  1.00  0.00     0.026 C 
BRANCH  13  14
HETATM   14  C2  UNL     1       2.996  21.435 -20.177  1.00  0.00    -0.002 C 
HETATM   15  C1  UNL     1       2.199  21.090 -18.967  1.00  0.00     0.005 C 
ENDBRANCH  13  14
ENDBRANCH   1  13
TORSDOF 2
ENDMDL
MODEL 3
REMARK VINA RESULT: -4.414265268      1.916      4.453
REMARK  2 active torsions:
REMARK  status: ('A' for Active; 'I' for Inactive)
REMARK    1  A    between atoms: C2_2  and  C3_3 
REMARK    2  A    between atoms: C3_3  and  C4_4 
ROOT
HETATM    1  C4  UNL     1       1.368  19.233 -20.637  1.00  0.00     0.103 C 
HETATM    2  C5  UNL     1       2.436  19.355 -19.563  1.00  0.00     0.256 C 
HETATM    3  N1  UNL     1       2.345  20.631 -18.889  1.00  0.00    -0.073 N 
ATOM      4  H11 UNL     1       2.364  20.558 -17.871  1.00  0.00     0.277 HD
ATOM      5  H12 UNL     1       1.426  21.066 -18.962  1.00  0.00     0.277 HD
HETATM    6  C6  UNL     1       3.427  21.452 -19.437  1.00  0.00     0.235 C 
HETATM    7  C7  UNL     1       2.927  21.990 -20.757  1.00  0.00     0.067 C 
HETATM    8  C8  UNL     1       2.662  20.922 -21.770  1.00  0.00     0.186 C 
HETATM    9  C9  UNL     1       2.649  21.582 -23.098  1.00  0.00     0.084 C 
HETATM   10  N2  UNL     1       2.646  22.108 -24.128  1.00  0.00    -0.195 NA
HETATM   11  N3  UNL     1       1.420  20.247 -21.621  1.00  0.00    -0.400 N 
ATOM     12  H3  UNL     1       0.609  20.482 -22.192  1.00  0.00     0.155 HD
ENDROOT
BRANCH   1  13
HETATM   13  C3  UNL     1       1.425  17.831 -21.161  1.00  0.00     0.026 C 
BRANCH  13  14
HETATM   14  C2  UNL     1       0.230  16.999 -20.802  1.00  0.00    -0.002 C 
HETATM   15  C1  UNL     1      -1.075  17.699 -20.965  1.00  0.00     0.005 C 
ENDBRANCH  13  14
ENDBRANCH   1  13
TORSDOF 2
ENDMDL
MODEL 4
REMARK VINA RESULT: -3.747560216      1.852      2.385
REMARK  2 active torsions:
REMARK  status: ('A' for Active; 'I' for Inactive)
REMARK    1  A    between atoms: C2_2  and  C3_3 
REMARK    2  A    between atoms: C3_3  and  C4_4 
ROOT
HETATM    1  C4  UNL     1       2.787  20.409 -21.567  1.00  0.00     0.103 C 
HETATM    2  C5  UNL     1       2.547  21.460 -20.496  1.00  0.00     0.256 C 
HETATM    3  N1  UNL     1       3.399  21.232 -19.350  1.00  0.00    -0.073 N 
ATOM      4  H11 UNL     1       3.888  22.069 -19.031  1.00  0.00     0.277 HD
ATOM      5  H12 UNL     1       4.230  20.679 -19.563  1.00  0.00     0.277 HD
HETATM    6  C6  UNL     1       2.540  20.629 -18.328  1.00  0.00     0.235 C 
HETATM    7  C7  UNL     1       2.429  19.164 -18.674  1.00  0.00     0.067 C 
HETATM    8  C8  UNL     1       1.751  18.914 -19.985  1.00  0.00     0.186 C 
HETATM    9  C9  UNL     1       1.294  17.504 -19.971  1.00  0.00     0.084 C 
HETATM   10  N2  UNL     1       0.939  16.404 -19.947  1.00  0.00    -0.195 NA
HETATM   11  N3  UNL     1       2.577  19.081 -21.129  1.00  0.00    -0.400 N 
ATOM     12  H3  UNL     1       2.996  18.285 -21.610  1.00  0.00     0.155 HD
ENDROOT
BRANCH   1  13
HETATM   13  C3  UNL     1       1.999  20.817 -22.773  1.00  0.00     0.026 C 
BRANCH  13  14
HETATM   14  C2  UNL     1       2.237  22.232 -23.205  1.00  0.00    -0.002 C 
HETATM   15  C1  UNL     1       2.996  22.364 -24.480  1.00  0.00     0.005 C 
ENDBRANCH  13  14
ENDBRANCH   1  13
TORSDOF 2
ENDMDL
MODEL 5
REMARK VINA RESULT: -3.699786576      1.675      2.242
REMARK  2 active torsions:
REMARK  status: ('A' for Active; 'I' for Inactive)
REMARK    1  A    between atoms: C2_2  and  C3_3 
REMARK    2  A    between atoms: C3_3  and  C4_4 
ROOT
HETATM    1  C4  UNL     1       2.835  21.203 -21.792  1.00  0.00     0.103 C 
HETATM    2  C5  UNL     1       2.886  21.906 -20.446  1.00  0.00     0.256 C 
HETATM    3  N1  UNL     1       3.657  21.139 -19.493  1.00  0.00    -0.073 N 
ATOM      4  H11 UNL     1       4.349  21.693 -18.987  1.00  0.00     0.277 HD
ATOM      5  H12 UNL     1       4.313  20.491 -19.927  1.00  0.00     0.277 HD
HETATM    6  C6  UNL     1       2.678  20.486 -18.620  1.00  0.00     0.235 C 
HETATM    7  C7  UNL     1       2.186  19.269 -19.367  1.00  0.00     0.067 C 
HETATM    8  C8  UNL     1       1.458  19.603 -20.630  1.00  0.00     0.186 C 
HETATM    9  C9  UNL     1       0.649  18.413 -20.987  1.00  0.00     0.084 C 
HETATM   10  N2  UNL     1       0.019  17.480 -21.254  1.00  0.00    -0.195 NA
HETATM   11  N3  UNL     1       2.290  19.900 -21.743  1.00  0.00    -0.400 N 
ATOM     12  H3  UNL     1       2.483  19.209 -22.468  1.00  0.00     0.155 HD
ENDROOT
BRANCH   1  13
HETATM   13  C3  UNL     1       2.172  22.138 -22.756  1.00  0.00     0.026 C 
BRANCH  13  14
HETATM   14  C2  UNL     1       2.554  21.908 -24.187  1.00  0.00    -0.002 C 
HETATM   15  C1  UNL     1       3.915  22.396 -24.544  1.00  0.00     0.005 C 
ENDBRANCH  13  14
ENDBRANCH   1  13
TORSDOF 2
ENDMDL
