MODEL 1
REMARK VINA RESULT: -6.964407452      0.000      0.000
REMARK  8 active torsions:
REMARK  status: ('A' for Active; 'I' for Inactive)
REMARK    1  A    between atoms: N2_5  and  S1_6 
REMARK    2  A    between atoms: S1_6  and  N3_9 
REMARK    3  A    between atoms: C7_13  and  C8_14 
REMARK    4  A    between atoms: C7_13  and  C9_16 
REMARK    5  A    between atoms: C9_16  and  N4_17 
REMARK    6  A    between atoms: C12_20  and  C13_21 
REMARK    7  A    between atoms: C13_21  and  O3_22 
REMARK    8  A    between atoms: C13_21  and  C14_24 
ROOT
HETATM    1  N3  UNL     1      -5.665  14.278  23.423  1.00  0.00    -0.192 NA
HETATM    2  C4  UNL     1      -5.911  15.632  23.789  1.00  0.00     0.109 C 
HETATM    3  C5  UNL     1      -7.273  16.026  23.288  1.00  0.00     0.016 C 
HETATM    4  C6  UNL     1      -7.666  15.277  22.012  1.00  0.00     0.016 C 
HETATM    5  C7  UNL     1      -7.762  13.794  22.247  1.00  0.00     0.025 C 
HETATM    6  C20 UNL     1      -6.933  13.575  23.544  1.00  0.00     0.122 C 
ENDROOT
BRANCH   5   7
HETATM    7  C8  UNL     1      -9.145  13.340  22.666  1.00  0.00     0.234 C 
HETATM    8  F1  UNL     1      -9.067  12.494  23.781  1.00  0.00    -0.255 F 
ENDBRANCH   5   7
BRANCH   5   9
HETATM    9  C9  UNL     1      -7.124  12.943  21.251  1.00  0.00     0.285 C 
BRANCH   9  10
HETATM   10  N4  UNL     1      -7.589  11.658  20.932  1.00  0.00     0.089 N 
HETATM   11  C10 UNL     1      -7.507  11.605  19.475  1.00  0.00     0.273 C 
HETATM   12  C11 UNL     1      -7.900  10.318  18.890  1.00  0.00     0.037 C 
HETATM   13  C12 UNL     1      -6.984   9.226  19.553  1.00  0.00     0.018 C 
HETATM   14  C18 UNL     1      -7.473   9.216  20.932  1.00  0.00     0.037 C 
HETATM   15  C19 UNL     1      -6.999  10.548  21.579  1.00  0.00     0.273 C 
BRANCH  13  16
HETATM   16  C13 UNL     1      -7.009   8.017  18.715  1.00  0.00     0.129 C 
BRANCH  16  17
HETATM   17  O3  UNL     1      -7.728   8.305  17.504  1.00  0.00    -0.394 OA
ATOM     18  H3  UNL     1      -7.837   7.500  17.011  1.00  0.00     0.210 HD
ENDBRANCH  16  17
BRANCH  16  19
HETATM   19  C14 UNL     1      -5.741   7.377  18.355  1.00  0.00    -0.025 C 
HETATM   20  C15 UNL     1      -5.621   5.897  18.411  1.00  0.00     0.017 C 
HETATM   21  C16 UNL     1      -5.428   7.759  16.884  1.00  0.00     0.017 C 
HETATM   22  C17 UNL     1      -4.548   7.962  19.114  1.00  0.00     0.017 C 
ENDBRANCH  16  19
ENDBRANCH  13  16
ENDBRANCH   9  10
ENDBRANCH   5   9
BRANCH   1  23
HETATM   23  S1  UNL     1      -4.507  13.438  24.333  1.00  0.00     0.301 S 
HETATM   24  O1  UNL     1      -5.266  12.461  25.221  1.00  0.00    -0.188 OA
HETATM   25  O2  UNL     1      -3.910  14.443  25.316  1.00  0.00    -0.188 OA
BRANCH  23  26
HETATM   26  N2  UNL     1      -3.254  12.702  23.487  1.00  0.00    -0.295 N 
HETATM   27  C3  UNL     1      -3.617  11.907  22.379  1.00  0.00     0.166 C 
HETATM   28  C2  UNL     1      -3.067  10.498  22.431  1.00  0.00     0.292 C 
HETATM   29  N1  UNL     1      -1.644  10.574  22.529  1.00  0.00     0.087 N 
HETATM   30  C1  UNL     1      -0.967  10.865  21.304  1.00  0.00     0.310 C 
HETATM   31  C22 UNL     1      -1.197  11.374  23.617  1.00  0.00     0.292 C 
HETATM   32  C21 UNL     1      -2.245  12.136  24.345  1.00  0.00     0.166 C 
ENDBRANCH  23  26
ENDBRANCH   1  23
TORSDOF 8
ENDMDL
MODEL 2
REMARK VINA RESULT: -6.883070988      1.787      2.241
REMARK  8 active torsions:
REMARK  status: ('A' for Active; 'I' for Inactive)
REMARK    1  A    between atoms: N2_5  and  S1_6 
REMARK    2  A    between atoms: S1_6  and  N3_9 
REMARK    3  A    between atoms: C7_13  and  C8_14 
REMARK    4  A    between atoms: C7_13  and  C9_16 
REMARK    5  A    between atoms: C9_16  and  N4_17 
REMARK    6  A    between atoms: C12_20  and  C13_21 
REMARK    7  A    between atoms: C13_21  and  O3_22 
REMARK    8  A    between atoms: C13_21  and  C14_24 
ROOT
HETATM    1  N3  UNL     1      -4.441  14.248  23.650  1.00  0.00    -0.192 NA
HETATM    2  C4  UNL     1      -4.185  15.579  24.083  1.00  0.00     0.109 C 
HETATM    3  C5  UNL     1      -4.705  16.532  23.042  1.00  0.00     0.016 C 
HETATM    4  C6  UNL     1      -4.652  15.942  21.631  1.00  0.00     0.016 C 
HETATM    5  C7  UNL     1      -5.530  14.727  21.506  1.00  0.00     0.025 C 
HETATM    6  C20 UNL     1      -5.731  14.267  22.978  1.00  0.00     0.122 C 
ENDROOT
BRANCH   5   7
HETATM    7  C8  UNL     1      -6.944  15.049  21.071  1.00  0.00     0.234 C 
HETATM    8  F1  UNL     1      -7.871  14.383  21.885  1.00  0.00    -0.255 F 
ENDBRANCH   5   7
BRANCH   5   9
HETATM    9  C9  UNL     1      -4.941  13.575  20.835  1.00  0.00     0.285 C 
BRANCH   9  10
HETATM   10  N4  UNL     1      -5.216  12.250  21.206  1.00  0.00     0.089 N 
HETATM   11  C10 UNL     1      -6.285  11.844  20.298  1.00  0.00     0.273 C 
HETATM   12  C11 UNL     1      -6.722  10.451  20.457  1.00  0.00     0.037 C 
HETATM   13  C12 UNL     1      -5.443   9.557  20.270  1.00  0.00     0.018 C 
HETATM   14  C18 UNL     1      -4.667   9.882  21.468  1.00  0.00     0.037 C 
HETATM   15  C19 UNL     1      -4.142  11.333  21.274  1.00  0.00     0.273 C 
BRANCH  13  16
HETATM   16  C13 UNL     1      -5.870   8.180  19.977  1.00  0.00     0.129 C 
BRANCH  16  17
HETATM   17  O3  UNL     1      -7.251   8.031  20.349  1.00  0.00    -0.394 OA
ATOM     18  H3  UNL     1      -7.465   7.106  20.374  1.00  0.00     0.210 HD
ENDBRANCH  16  17
BRANCH  16  19
HETATM   19  C14 UNL     1      -5.703   7.660  18.616  1.00  0.00    -0.025 C 
HETATM   20  C15 UNL     1      -5.041   6.347  18.406  1.00  0.00     0.017 C 
HETATM   21  C16 UNL     1      -7.119   7.510  17.998  1.00  0.00     0.017 C 
HETATM   22  C17 UNL     1      -5.033   8.667  17.678  1.00  0.00     0.017 C 
ENDBRANCH  16  19
ENDBRANCH  13  16
ENDBRANCH   9  10
ENDBRANCH   5   9
BRANCH   1  23
HETATM   23  S1  UNL     1      -4.488  13.049  24.849  1.00  0.00     0.301 S 
HETATM   24  O1  UNL     1      -5.664  12.139  24.516  1.00  0.00    -0.188 OA
HETATM   25  O2  UNL     1      -4.912  13.741  26.142  1.00  0.00    -0.188 OA
BRANCH  23  26
HETATM   26  N2  UNL     1      -3.070  12.194  25.135  1.00  0.00    -0.295 N 
HETATM   27  C3  UNL     1      -2.168  12.080  24.054  1.00  0.00     0.166 C 
HETATM   28  C2  UNL     1      -1.777  10.655  23.731  1.00  0.00     0.292 C 
HETATM   29  N1  UNL     1      -1.208  10.067  24.902  1.00  0.00     0.087 N 
HETATM   30  C1  UNL     1       0.143  10.447  25.175  1.00  0.00     0.310 C 
HETATM   31  C22 UNL     1      -2.053  10.156  26.043  1.00  0.00     0.292 C 
HETATM   32  C21 UNL     1      -3.277  10.986  25.891  1.00  0.00     0.166 C 
ENDBRANCH  23  26
ENDBRANCH   1  23
TORSDOF 8
ENDMDL
MODEL 3
REMARK VINA RESULT: -6.806791901      2.587      5.268
REMARK  8 active torsions:
REMARK  status: ('A' for Active; 'I' for Inactive)
REMARK    1  A    between atoms: N2_5  and  S1_6 
REMARK    2  A    between atoms: S1_6  and  N3_9 
REMARK    3  A    between atoms: C7_13  and  C8_14 
REMARK    4  A    between atoms: C7_13  and  C9_16 
REMARK    5  A    between atoms: C9_16  and  N4_17 
REMARK    6  A    between atoms: C12_20  and  C13_21 
REMARK    7  A    between atoms: C13_21  and  O3_22 
REMARK    8  A    between atoms: C13_21  and  C14_24 
ROOT
HETATM    1  N3  UNL     1      -3.451  12.708  23.439  1.00  0.00    -0.192 NA
HETATM    2  C4  UNL     1      -2.730  12.561  24.658  1.00  0.00     0.109 C 
HETATM    3  C5  UNL     1      -1.716  11.464  24.487  1.00  0.00     0.016 C 
HETATM    4  C6  UNL     1      -2.175  10.393  23.494  1.00  0.00     0.016 C 
HETATM    5  C7  UNL     1      -2.356  10.960  22.113  1.00  0.00     0.025 C 
HETATM    6  C20 UNL     1      -2.501  12.489  22.361  1.00  0.00     0.122 C 
ENDROOT
BRANCH   5   7
HETATM    7  C8  UNL     1      -1.105  10.886  21.263  1.00  0.00     0.234 C 
HETATM    8  F1  UNL     1      -0.040  10.357  22.004  1.00  0.00    -0.255 F 
ENDBRANCH   5   7
BRANCH   5   9
HETATM    9  C9  UNL     1      -3.580  10.581  21.418  1.00  0.00     0.285 C 
BRANCH   9  10
HETATM   10  N4  UNL     1      -3.641  10.382  20.030  1.00  0.00     0.089 N 
HETATM   11  C10 UNL     1      -4.336   9.105  19.887  1.00  0.00     0.273 C 
HETATM   12  C11 UNL     1      -4.573   8.694  18.498  1.00  0.00     0.037 C 
HETATM   13  C12 UNL     1      -5.375   9.860  17.816  1.00  0.00     0.018 C 
HETATM   14  C18 UNL     1      -4.375  10.927  17.763  1.00  0.00     0.037 C 
HETATM   15  C19 UNL     1      -4.172  11.416  19.225  1.00  0.00     0.273 C 
BRANCH  13  16
HETATM   16  C13 UNL     1      -6.017   9.341  16.598  1.00  0.00     0.129 C 
BRANCH  16  17
HETATM   17  O3  UNL     1      -5.307   8.170  16.161  1.00  0.00    -0.394 OA
ATOM     18  H3  UNL     1      -5.715   7.401  16.543  1.00  0.00     0.210 HD
ENDBRANCH  16  17
BRANCH  16  19
HETATM   19  C14 UNL     1      -7.448   9.025  16.630  1.00  0.00    -0.025 C 
HETATM   20  C15 UNL     1      -8.226   9.008  15.364  1.00  0.00     0.017 C 
HETATM   21  C16 UNL     1      -7.597   7.599  17.223  1.00  0.00     0.017 C 
HETATM   22  C17 UNL     1      -8.221   9.886  17.631  1.00  0.00     0.017 C 
ENDBRANCH  16  19
ENDBRANCH  13  16
ENDBRANCH   9  10
ENDBRANCH   5   9
BRANCH   1  23
HETATM   23  S1  UNL     1      -4.214  14.200  23.176  1.00  0.00     0.301 S 
HETATM   24  O1  UNL     1      -3.631  14.772  21.890  1.00  0.00    -0.188 OA
HETATM   25  O2  UNL     1      -3.708  15.146  24.262  1.00  0.00    -0.188 OA
BRANCH  23  26
HETATM   26  N2  UNL     1      -5.895  14.215  23.187  1.00  0.00    -0.295 N 
HETATM   27  C3  UNL     1      -6.515  15.202  23.984  1.00  0.00     0.166 C 
HETATM   28  C2  UNL     1      -7.513  14.647  24.976  1.00  0.00     0.292 C 
HETATM   29  N1  UNL     1      -8.503  13.912  24.256  1.00  0.00     0.087 N 
HETATM   30  C1  UNL     1      -9.494  14.709  23.602  1.00  0.00     0.310 C 
HETATM   31  C22 UNL     1      -7.954  12.905  23.414  1.00  0.00     0.292 C 
HETATM   32  C21 UNL     1      -6.474  12.900  23.276  1.00  0.00     0.166 C 
ENDBRANCH  23  26
ENDBRANCH   1  23
TORSDOF 8
ENDMDL
MODEL 4
REMARK VINA RESULT: -6.742187158      1.245      1.580
REMARK  8 active torsions:
REMARK  status: ('A' for Active; 'I' for Inactive)
REMARK    1  A    between atoms: N2_5  and  S1_6 
REMARK    2  A    between atoms: S1_6  and  N3_9 
REMARK    3  A    between atoms: C7_13  and  C8_14 
REMARK    4  A    between atoms: C7_13  and  C9_16 
REMARK    5  A    between atoms: C9_16  and  N4_17 
REMARK    6  A    between atoms: C12_20  and  C13_21 
REMARK    7  A    between atoms: C13_21  and  O3_22 
REMARK    8  A    between atoms: C13_21  and  C14_24 
ROOT
HETATM    1  N3  UNL     1      -5.596  14.484  23.751  1.00  0.00    -0.192 NA
HETATM    2  C4  UNL     1      -5.810  15.853  23.425  1.00  0.00     0.109 C 
HETATM    3  C5  UNL     1      -7.172  15.992  22.801  1.00  0.00     0.016 C 
HETATM    4  C6  UNL     1      -7.598  14.733  22.041  1.00  0.00     0.016 C 
HETATM    5  C7  UNL     1      -7.719  13.547  22.958  1.00  0.00     0.025 C 
HETATM    6  C20 UNL     1      -6.875  13.956  24.199  1.00  0.00     0.122 C 
ENDROOT
BRANCH   5   7
HETATM    7  C8  UNL     1      -9.104  13.382  23.548  1.00  0.00     0.234 C 
HETATM    8  F1  UNL     1      -9.399  12.025  23.736  1.00  0.00    -0.255 F 
ENDBRANCH   5   7
BRANCH   5   9
HETATM    9  C9  UNL     1      -7.113  12.308  22.490  1.00  0.00     0.285 C 
BRANCH   9  10
HETATM   10  N4  UNL     1      -7.145  11.900  21.147  1.00  0.00     0.089 N 
HETATM   11  C10 UNL     1      -5.784  11.436  20.887  1.00  0.00     0.273 C 
HETATM   12  C11 UNL     1      -5.572  10.902  19.537  1.00  0.00     0.037 C 
HETATM   13  C12 UNL     1      -6.617   9.743  19.344  1.00  0.00     0.018 C 
HETATM   14  C18 UNL     1      -7.882  10.479  19.300  1.00  0.00     0.037 C 
HETATM   15  C19 UNL     1      -8.147  10.989  20.744  1.00  0.00     0.273 C 
BRANCH  13  16
HETATM   16  C13 UNL     1      -6.178   8.894  18.227  1.00  0.00     0.129 C 
BRANCH  16  17
HETATM   17  O3  UNL     1      -4.837   9.263  17.860  1.00  0.00    -0.394 OA
ATOM     18  H3  UNL     1      -4.872  10.016  17.282  1.00  0.00     0.210 HD
ENDBRANCH  16  17
BRANCH  16  19
HETATM   19  C14 UNL     1      -6.227   7.437  18.381  1.00  0.00    -0.025 C 
HETATM   20  C15 UNL     1      -4.966   6.652  18.367  1.00  0.00     0.017 C 
HETATM   21  C16 UNL     1      -6.884   7.136  19.754  1.00  0.00     0.017 C 
HETATM   22  C17 UNL     1      -7.190   6.772  17.395  1.00  0.00     0.017 C 
ENDBRANCH  16  19
ENDBRANCH  13  16
ENDBRANCH   9  10
ENDBRANCH   5   9
BRANCH   1  23
HETATM   23  S1  UNL     1      -4.441  14.154  24.948  1.00  0.00     0.301 S 
HETATM   24  O1  UNL     1      -5.207  13.767  26.207  1.00  0.00    -0.188 OA
HETATM   25  O2  UNL     1      -3.791  15.488  25.307  1.00  0.00    -0.188 OA
BRANCH  23  26
HETATM   26  N2  UNL     1      -3.231  13.051  24.563  1.00  0.00    -0.295 N 
HETATM   27  C3  UNL     1      -3.235  12.539  23.247  1.00  0.00     0.166 C 
HETATM   28  C2  UNL     1      -3.244  11.027  23.181  1.00  0.00     0.292 C 
HETATM   29  N1  UNL     1      -2.105  10.538  23.889  1.00  0.00     0.087 N 
HETATM   30  C1  UNL     1      -0.865  10.629  23.181  1.00  0.00     0.310 C 
HETATM   31  C22 UNL     1      -2.021  11.024  25.224  1.00  0.00     0.292 C 
HETATM   32  C21 UNL     1      -2.997  12.080  25.600  1.00  0.00     0.166 C 
ENDBRANCH  23  26
ENDBRANCH   1  23
TORSDOF 8
ENDMDL
MODEL 5
REMARK VINA RESULT: -6.727792658      2.493      5.178
REMARK  8 active torsions:
REMARK  status: ('A' for Active; 'I' for Inactive)
REMARK    1  A    between atoms: N2_5  and  S1_6 
REMARK    2  A    between atoms: S1_6  and  N3_9 
REMARK    3  A    between atoms: C7_13  and  C8_14 
REMARK    4  A    between atoms: C7_13  and  C9_16 
REMARK    5  A    between atoms: C9_16  and  N4_17 
REMARK    6  A    between atoms: C12_20  and  C13_21 
REMARK    7  A    between atoms: C13_21  and  O3_22 
REMARK    8  A    between atoms: C13_21  and  C14_24 
ROOT
HETATM    1  N3  UNL     1      -3.362  12.137  24.034  1.00  0.00    -0.192 NA
HETATM    2  C4  UNL     1      -2.443  11.692  25.025  1.00  0.00     0.109 C 
HETATM    3  C5  UNL     1      -1.328  10.944  24.345  1.00  0.00     0.016 C 
HETATM    4  C6  UNL     1      -1.789  10.246  23.063  1.00  0.00     0.016 C 
HETATM    5  C7  UNL     1      -2.265  11.236  22.035  1.00  0.00     0.025 C 
HETATM    6  C20 UNL     1      -2.575  12.511  22.869  1.00  0.00     0.122 C 
ENDROOT
BRANCH   5   7
HETATM    7  C8  UNL     1      -1.168  11.714  21.108  1.00  0.00     0.234 C 
HETATM    8  F1  UNL     1      -0.429  10.628  20.619  1.00  0.00    -0.255 F 
ENDBRANCH   5   7
BRANCH   5   9
HETATM    9  C9  UNL     1      -3.520  10.915  21.367  1.00  0.00     0.285 C 
BRANCH   9  10
HETATM   10  N4  UNL     1      -3.607  10.630  19.996  1.00  0.00     0.089 N 
HETATM   11  C10 UNL     1      -4.276   9.332  19.948  1.00  0.00     0.273 C 
HETATM   12  C11 UNL     1      -4.533   8.830  18.593  1.00  0.00     0.037 C 
HETATM   13  C12 UNL     1      -5.375   9.935  17.858  1.00  0.00     0.018 C 
HETATM   14  C18 UNL     1      -4.399  11.017  17.716  1.00  0.00     0.037 C 
HETATM   15  C19 UNL     1      -4.176  11.600  19.141  1.00  0.00     0.273 C 
BRANCH  13  16
HETATM   16  C13 UNL     1      -6.030   9.329  16.689  1.00  0.00     0.129 C 
BRANCH  16  17
HETATM   17  O3  UNL     1      -5.279   8.172  16.282  1.00  0.00    -0.394 OA
ATOM     18  H3  UNL     1      -5.609   7.411  16.746  1.00  0.00     0.210 HD
ENDBRANCH  16  17
BRANCH  16  19
HETATM   19  C14 UNL     1      -7.442   8.947  16.786  1.00  0.00    -0.025 C 
HETATM   20  C15 UNL     1      -8.277   8.894  15.558  1.00  0.00     0.017 C 
HETATM   21  C16 UNL     1      -7.499   7.517  17.384  1.00  0.00     0.017 C 
HETATM   22  C17 UNL     1      -8.207   9.774  17.823  1.00  0.00     0.017 C 
ENDBRANCH  16  19
ENDBRANCH  13  16
ENDBRANCH   9  10
ENDBRANCH   5   9
BRANCH   1  23
HETATM   23  S1  UNL     1      -4.354  13.450  24.444  1.00  0.00     0.301 S 
HETATM   24  O1  UNL     1      -3.859  14.646  23.640  1.00  0.00    -0.188 OA
HETATM   25  O2  UNL     1      -4.020  13.814  25.889  1.00  0.00    -0.188 OA
BRANCH  23  26
HETATM   26  N2  UNL     1      -6.015  13.228  24.315  1.00  0.00    -0.295 N 
HETATM   27  C3  UNL     1      -6.470  12.467  23.215  1.00  0.00     0.166 C 
HETATM   28  C2  UNL     1      -7.510  13.173  22.373  1.00  0.00     0.292 C 
HETATM   29  N1  UNL     1      -8.612  13.517  23.215  1.00  0.00     0.087 N 
HETATM   30  C1  UNL     1      -9.497  12.438  23.526  1.00  0.00     0.310 C 
HETATM   31  C22 UNL     1      -8.232  14.273  24.358  1.00  0.00     0.292 C 
HETATM   32  C21 UNL     1      -6.771  14.421  24.591  1.00  0.00     0.166 C 
ENDBRANCH  23  26
ENDBRANCH   1  23
TORSDOF 8
ENDMDL
