MODEL 1
REMARK VINA RESULT: -6.651957423      0.000      0.000
REMARK  0 active torsions:
REMARK  status: ('A' for Active; 'I' for Inactive)
REMARK       I    between atoms: N6_16  and  C5_17 
ROOT
HETATM    1  N1  UNL     1      21.216  43.393  69.782  1.00  0.00    -0.385 N 
ATOM      2  H11 UNL     1      20.785  42.566  70.196  1.00  0.00     0.157 HD
ATOM      3  H12 UNL     1      20.428  43.937  69.427  1.00  0.00     0.157 HD
HETATM    4  C1  UNL     1      22.470  43.682  69.722  1.00  0.00     0.139 C 
HETATM    5  N2  UNL     1      23.070  44.835  69.145  1.00  0.00    -0.317 N 
ATOM      6  H2  UNL     1      22.630  45.451  68.462  1.00  0.00     0.170 HD
HETATM    7  C2  UNL     1      24.279  44.980  69.629  1.00  0.00     0.192 C 
HETATM    8  N3  UNL     1      25.221  46.021  69.304  1.00  0.00    -0.063 NA
HETATM    9  N4  UNL     1      24.559  43.936  70.558  1.00  0.00    -0.322 N 
ATOM     10  H4  UNL     1      25.271  43.924  71.288  1.00  0.00     0.165 HD
HETATM   11  C3  UNL     1      23.605  42.899  70.233  1.00  0.00     0.273 C 
HETATM   12  C4  UNL     1      24.104  41.831  69.360  1.00  0.00     0.295 C 
HETATM   13  O1  UNL     1      24.669  41.768  68.255  1.00  0.00    -0.266 OA
HETATM   14  N5  UNL     1      23.652  40.919  70.337  1.00  0.00    -0.257 N 
ATOM     15  H5  UNL     1      23.586  39.901  70.371  1.00  0.00     0.190 HD
HETATM   16  N6  UNL     1      23.331  41.936  71.241  1.00  0.00    -0.195 N 
HETATM   17  C5  UNL     1      22.911  41.892  72.598  1.00  0.00     0.352 C 
HETATM   18  N7  UNL     1      22.661  43.137  73.246  1.00  0.00    -0.038 NA
HETATM   19  O2  UNL     1      22.757  40.822  73.234  1.00  0.00    -0.249 OA
ENDROOT
TORSDOF 0
ENDMDL
MODEL 2
REMARK VINA RESULT: -6.576265967      1.945      4.231
REMARK  0 active torsions:
REMARK  status: ('A' for Active; 'I' for Inactive)
REMARK       I    between atoms: N6_16  and  C5_17 
ROOT
HETATM    1  N1  UNL     1      24.682  41.500  69.008  1.00  0.00    -0.385 N 
ATOM      2  H11 UNL     1      24.783  42.020  68.136  1.00  0.00     0.157 HD
ATOM      3  H12 UNL     1      25.382  40.760  68.943  1.00  0.00     0.157 HD
HETATM    4  C1  UNL     1      23.858  41.729  69.971  1.00  0.00     0.139 C 
HETATM    5  N2  UNL     1      23.717  41.004  71.187  1.00  0.00    -0.317 N 
ATOM      6  H2  UNL     1      24.046  40.052  71.349  1.00  0.00     0.170 HD
HETATM    7  C2  UNL     1      23.097  41.753  72.066  1.00  0.00     0.192 C 
HETATM    8  N3  UNL     1      22.758  41.394  73.419  1.00  0.00    -0.063 NA
HETATM    9  N4  UNL     1      22.788  43.020  71.493  1.00  0.00    -0.322 N 
ATOM     10  H4  UNL     1      22.572  43.890  71.980  1.00  0.00     0.165 HD
HETATM   11  C3  UNL     1      22.849  42.796  70.066  1.00  0.00     0.273 C 
HETATM   12  C4  UNL     1      21.563  42.534  69.410  1.00  0.00     0.295 C 
HETATM   13  O1  UNL     1      20.619  41.744  69.574  1.00  0.00    -0.266 OA
HETATM   14  N5  UNL     1      21.888  43.578  68.517  1.00  0.00    -0.257 N 
ATOM     15  H5  UNL     1      21.453  43.936  67.667  1.00  0.00     0.190 HD
HETATM   16  N6  UNL     1      23.030  43.938  69.240  1.00  0.00    -0.195 N 
HETATM   17  C5  UNL     1      23.925  45.033  69.103  1.00  0.00     0.352 C 
HETATM   18  N7  UNL     1      25.012  45.108  70.023  1.00  0.00    -0.038 NA
HETATM   19  O2  UNL     1      23.798  45.917  68.223  1.00  0.00    -0.249 OA
ENDROOT
TORSDOF 0
ENDMDL
MODEL 3
REMARK VINA RESULT: -6.268378988      2.010      4.080
REMARK  0 active torsions:
REMARK  status: ('A' for Active; 'I' for Inactive)
REMARK       I    between atoms: N6_16  and  C5_17 
ROOT
HETATM    1  N1  UNL     1      23.816  43.217  71.750  1.00  0.00    -0.385 N 
ATOM      2  H11 UNL     1      24.529  43.946  71.782  1.00  0.00     0.157 HD
ATOM      3  H12 UNL     1      23.745  42.893  72.715  1.00  0.00     0.157 HD
HETATM    4  C1  UNL     1      23.157  42.804  70.724  1.00  0.00     0.139 C 
HETATM    5  N2  UNL     1      22.163  41.788  70.680  1.00  0.00    -0.317 N 
ATOM      6  H2  UNL     1      22.028  41.061  71.383  1.00  0.00     0.170 HD
HETATM    7  C2  UNL     1      21.445  41.934  69.592  1.00  0.00     0.192 C 
HETATM    8  N3  UNL     1      20.339  41.112  69.171  1.00  0.00    -0.063 NA
HETATM    9  N4  UNL     1      21.915  43.053  68.846  1.00  0.00    -0.322 N 
ATOM     10  H4  UNL     1      21.416  43.581  68.131  1.00  0.00     0.165 HD
HETATM   11  C3  UNL     1      23.259  43.273  69.333  1.00  0.00     0.273 C 
HETATM   12  C4  UNL     1      24.330  42.680  68.524  1.00  0.00     0.295 C 
HETATM   13  O1  UNL     1      24.592  41.552  68.074  1.00  0.00    -0.266 OA
HETATM   14  N5  UNL     1      24.919  43.962  68.495  1.00  0.00    -0.257 N 
ATOM     15  H5  UNL     1      25.810  44.318  68.149  1.00  0.00     0.190 HD
HETATM   16  N6  UNL     1      23.820  44.560  69.119  1.00  0.00    -0.195 N 
HETATM   17  C5  UNL     1      23.509  45.923  69.374  1.00  0.00     0.352 C 
HETATM   18  N7  UNL     1      22.281  46.199  70.045  1.00  0.00    -0.038 NA
HETATM   19  O2  UNL     1      24.256  46.872  69.039  1.00  0.00    -0.249 OA
ENDROOT
TORSDOF 0
ENDMDL
MODEL 4
REMARK VINA RESULT: -6.236008393      1.808      3.966
REMARK  0 active torsions:
REMARK  status: ('A' for Active; 'I' for Inactive)
REMARK       I    between atoms: N6_16  and  C5_17 
ROOT
HETATM    1  N1  UNL     1      21.655  44.811  70.615  1.00  0.00    -0.385 N 
ATOM      2  H11 UNL     1      22.344  45.479  70.960  1.00  0.00     0.157 HD
ATOM      3  H12 UNL     1      20.809  45.367  70.485  1.00  0.00     0.157 HD
HETATM    4  C1  UNL     1      21.818  43.553  70.395  1.00  0.00     0.139 C 
HETATM    5  N2  UNL     1      20.856  42.621  69.915  1.00  0.00    -0.317 N 
ATOM      6  H2  UNL     1      19.845  42.750  69.940  1.00  0.00     0.170 HD
HETATM    7  C2  UNL     1      21.476  41.571  69.435  1.00  0.00     0.192 C 
HETATM    8  N3  UNL     1      20.868  40.401  68.853  1.00  0.00    -0.063 NA
HETATM    9  N4  UNL     1      22.885  41.736  69.563  1.00  0.00    -0.322 N 
ATOM     10  H4  UNL     1      23.620  41.249  69.052  1.00  0.00     0.165 HD
HETATM   11  C3  UNL     1      23.037  42.751  70.583  1.00  0.00     0.273 C 
HETATM   12  C4  UNL     1      23.286  42.253  71.940  1.00  0.00     0.295 C 
HETATM   13  O1  UNL     1      22.740  41.447  72.712  1.00  0.00    -0.266 OA
HETATM   14  N5  UNL     1      24.414  43.100  71.967  1.00  0.00    -0.257 N 
ATOM     15  H5  UNL     1      25.080  43.360  72.695  1.00  0.00     0.190 HD
HETATM   16  N6  UNL     1      24.275  43.447  70.619  1.00  0.00    -0.195 N 
HETATM   17  C5  UNL     1      25.110  44.200  69.750  1.00  0.00     0.352 C 
HETATM   18  N7  UNL     1      24.668  44.372  68.406  1.00  0.00    -0.038 NA
HETATM   19  O2  UNL     1      26.198  44.707  70.112  1.00  0.00    -0.249 OA
ENDROOT
TORSDOF 0
ENDMDL
MODEL 5
REMARK VINA RESULT: -6.105280113      2.083      4.090
REMARK  0 active torsions:
REMARK  status: ('A' for Active; 'I' for Inactive)
REMARK       I    between atoms: N6_16  and  C5_17 
ROOT
HETATM    1  N1  UNL     1      20.956  42.359  68.902  1.00  0.00    -0.385 N 
ATOM      2  H11 UNL     1      21.145  42.442  67.903  1.00  0.00     0.157 HD
ATOM      3  H12 UNL     1      20.061  41.870  68.949  1.00  0.00     0.157 HD
HETATM    4  C1  UNL     1      21.683  42.777  69.879  1.00  0.00     0.139 C 
HETATM    5  N2  UNL     1      21.419  42.661  71.272  1.00  0.00    -0.317 N 
ATOM      6  H2  UNL     1      20.504  42.485  71.687  1.00  0.00     0.170 HD
HETATM    7  C2  UNL     1      22.537  42.817  71.937  1.00  0.00     0.192 C 
HETATM    8  N3  UNL     1      22.704  42.772  73.368  1.00  0.00    -0.063 NA
HETATM    9  N4  UNL     1      23.614  43.044  71.033  1.00  0.00    -0.322 N 
ATOM     10  H4  UNL     1      24.611  42.925  71.206  1.00  0.00     0.165 HD
HETATM   11  C3  UNL     1      22.973  43.482  69.812  1.00  0.00     0.273 C 
HETATM   12  C4  UNL     1      22.911  44.934  69.615  1.00  0.00     0.295 C 
HETATM   13  O1  UNL     1      22.509  45.910  70.269  1.00  0.00    -0.266 OA
HETATM   14  N5  UNL     1      23.508  44.716  68.355  1.00  0.00    -0.257 N 
ATOM     15  H5  UNL     1      23.710  45.321  67.558  1.00  0.00     0.190 HD
HETATM   16  N6  UNL     1      23.721  43.357  68.611  1.00  0.00    -0.195 N 
HETATM   17  C5  UNL     1      24.423  42.360  67.881  1.00  0.00     0.352 C 
HETATM   18  N7  UNL     1      24.449  41.045  68.431  1.00  0.00    -0.038 NA
HETATM   19  O2  UNL     1      25.007  42.588  66.795  1.00  0.00    -0.249 OA
ENDROOT
TORSDOF 0
ENDMDL
