MODEL 1
REMARK VINA RESULT: -6.064263271      0.000      0.000
REMARK  3 active torsions:
REMARK  status: ('A' for Active; 'I' for Inactive)
REMARK    1  A    between atoms: C2_2  and  C3_3 
REMARK    2  A    between atoms: C3_3  and  C4_4 
REMARK       I    between atoms: C4_4  and  N1_6 
REMARK    3  A    between atoms: N1_6  and  N2_8 
REMARK       I    between atoms: N2_8  and  C5_10 
REMARK       I    between atoms: C5_10  and  N3_12 
ROOT
HETATM    1  N2  UNL     1     107.483  37.665  78.305  1.00  0.00    -0.247 N 
ATOM      2  H2  UNL     1     106.463  37.657  78.278  1.00  0.00     0.192 HD
HETATM    3  C5  UNL     1     108.152  37.360  79.514  1.00  0.00     0.358 C 
HETATM    4  O2  UNL     1     109.407  37.383  79.517  1.00  0.00    -0.243 OA
HETATM    5  N3  UNL     1     107.374  37.045  80.662  1.00  0.00    -0.204 N 
HETATM    6  C6  UNL     1     108.079  36.753  81.902  1.00  0.00     0.207 C 
HETATM    7  N4  UNL     1     107.269  37.049  83.014  1.00  0.00    -0.363 N 
ATOM      8  H4  UNL     1     107.613  37.632  83.778  1.00  0.00     0.165 HD
HETATM    9  C7  UNL     1     105.966  36.517  83.038  1.00  0.00     0.079 C 
HETATM   10  C8  UNL     1     105.423  36.193  81.667  1.00  0.00     0.180 C 
HETATM   11  N5  UNL     1     105.993  37.002  80.630  1.00  0.00    -0.124 NA
ENDROOT
BRANCH   1  12
HETATM   12  N1  UNL     1     108.202  37.977  77.146  1.00  0.00    -0.266 N 
HETATM   13  C4  UNL     1     107.793  39.066  76.345  1.00  0.00     0.236 C 
HETATM   14  O1  UNL     1     106.799  39.737  76.666  1.00  0.00    -0.272 OA
ATOM     15  H1  UNL     1     109.016  37.422  76.881  1.00  0.00     0.190 HD
BRANCH  13  16
HETATM   16  C3  UNL     1     108.559  39.392  75.133  1.00  0.00     0.104 C 
BRANCH  16  17
HETATM   17  C2  UNL     1     107.745  40.392  74.332  1.00  0.00     0.005 C 
HETATM   18  C1  UNL     1     107.333  39.746  73.024  1.00  0.00     0.005 C 
ENDBRANCH  16  17
ENDBRANCH  13  16
ENDBRANCH   1  12
TORSDOF 3
ENDMDL
MODEL 2
REMARK VINA RESULT: -5.980376900      1.632      1.800
REMARK  3 active torsions:
REMARK  status: ('A' for Active; 'I' for Inactive)
REMARK    1  A    between atoms: C2_2  and  C3_3 
REMARK    2  A    between atoms: C3_3  and  C4_4 
REMARK       I    between atoms: C4_4  and  N1_6 
REMARK    3  A    between atoms: N1_6  and  N2_8 
REMARK       I    between atoms: N2_8  and  C5_10 
REMARK       I    between atoms: C5_10  and  N3_12 
ROOT
HETATM    1  N2  UNL     1     108.118  37.756  78.154  1.00  0.00    -0.247 N 
ATOM      2  H2  UNL     1     108.048  38.428  78.918  1.00  0.00     0.192 HD
HETATM    3  C5  UNL     1     107.787  36.399  78.384  1.00  0.00     0.358 C 
HETATM    4  O2  UNL     1     107.887  35.596  77.426  1.00  0.00    -0.243 OA
HETATM    5  N3  UNL     1     107.359  36.015  79.685  1.00  0.00    -0.204 N 
HETATM    6  C6  UNL     1     107.042  34.612  79.909  1.00  0.00     0.207 C 
HETATM    7  N4  UNL     1     107.224  34.273  81.264  1.00  0.00    -0.363 N 
ATOM      8  H4  UNL     1     107.782  33.462  81.534  1.00  0.00     0.165 HD
HETATM    9  C7  UNL     1     106.611  35.089  82.232  1.00  0.00     0.079 C 
HETATM   10  C8  UNL     1     106.332  36.491  81.750  1.00  0.00     0.180 C 
HETATM   11  N5  UNL     1     107.233  36.922  80.720  1.00  0.00    -0.124 NA
ENDROOT
BRANCH   1  12
HETATM   12  N1  UNL     1     108.539  38.187  76.891  1.00  0.00    -0.266 N 
HETATM   13  C4  UNL     1     107.808  39.188  76.217  1.00  0.00     0.236 C 
HETATM   14  O1  UNL     1     106.794  39.679  76.740  1.00  0.00    -0.272 OA
ATOM     15  H1  UNL     1     109.370  37.780  76.461  1.00  0.00     0.190 HD
BRANCH  13  16
HETATM   16  C3  UNL     1     108.262  39.641  74.894  1.00  0.00     0.104 C 
BRANCH  16  17
HETATM   17  C2  UNL     1     108.393  41.152  74.946  1.00  0.00     0.005 C 
HETATM   18  C1  UNL     1     108.806  41.651  73.575  1.00  0.00     0.005 C 
ENDBRANCH  16  17
ENDBRANCH  13  16
ENDBRANCH   1  12
TORSDOF 3
ENDMDL
MODEL 3
REMARK VINA RESULT: -5.938921367      4.895      5.418
REMARK  3 active torsions:
REMARK  status: ('A' for Active; 'I' for Inactive)
REMARK    1  A    between atoms: C2_2  and  C3_3 
REMARK    2  A    between atoms: C3_3  and  C4_4 
REMARK       I    between atoms: C4_4  and  N1_6 
REMARK    3  A    between atoms: N1_6  and  N2_8 
REMARK       I    between atoms: N2_8  and  C5_10 
REMARK       I    between atoms: C5_10  and  N3_12 
ROOT
HETATM    1  N2  UNL     1     107.253  33.702  80.936  1.00  0.00    -0.247 N 
ATOM      2  H2  UNL     1     106.448  33.087  81.057  1.00  0.00     0.192 HD
HETATM    3  C5  UNL     1     107.284  34.952  81.598  1.00  0.00     0.358 C 
HETATM    4  O2  UNL     1     108.286  35.688  81.426  1.00  0.00    -0.243 OA
HETATM    5  N3  UNL     1     106.183  35.311  82.424  1.00  0.00    -0.204 N 
HETATM    6  C6  UNL     1     106.223  36.610  83.082  1.00  0.00     0.207 C 
HETATM    7  N4  UNL     1     104.919  37.076  83.337  1.00  0.00    -0.363 N 
ATOM      8  H4  UNL     1     104.630  38.013  83.057  1.00  0.00     0.165 HD
HETATM    9  C7  UNL     1     104.028  36.206  83.993  1.00  0.00     0.079 C 
HETATM   10  C8  UNL     1     104.379  34.748  83.828  1.00  0.00     0.180 C 
HETATM   11  N5  UNL     1     105.100  34.475  82.618  1.00  0.00    -0.124 NA
ENDROOT
BRANCH   1  12
HETATM   12  N1  UNL     1     108.313  33.298  80.116  1.00  0.00    -0.266 N 
HETATM   13  C4  UNL     1     108.207  33.446  78.717  1.00  0.00     0.236 C 
HETATM   14  O1  UNL     1     107.177  33.927  78.217  1.00  0.00    -0.272 OA
ATOM     15  H1  UNL     1     109.157  32.898  80.528  1.00  0.00     0.190 HD
BRANCH  13  16
HETATM   16  C3  UNL     1     109.328  33.026  77.863  1.00  0.00     0.104 C 
BRANCH  16  17
HETATM   17  C2  UNL     1     109.340  31.508  77.837  1.00  0.00     0.005 C 
HETATM   18  C1  UNL     1     110.780  31.035  77.794  1.00  0.00     0.005 C 
ENDBRANCH  16  17
ENDBRANCH  13  16
ENDBRANCH   1  12
TORSDOF 3
ENDMDL
MODEL 4
REMARK VINA RESULT: -5.829070211      4.915      5.699
REMARK  3 active torsions:
REMARK  status: ('A' for Active; 'I' for Inactive)
REMARK    1  A    between atoms: C2_2  and  C3_3 
REMARK    2  A    between atoms: C3_3  and  C4_4 
REMARK       I    between atoms: C4_4  and  N1_6 
REMARK    3  A    between atoms: N1_6  and  N2_8 
REMARK       I    between atoms: N2_8  and  C5_10 
REMARK       I    between atoms: C5_10  and  N3_12 
ROOT
HETATM    1  N2  UNL     1     107.631  34.714  79.857  1.00  0.00    -0.247 N 
ATOM      2  H2  UNL     1     107.541  35.600  79.360  1.00  0.00     0.192 HD
HETATM    3  C5  UNL     1     106.728  34.405  80.903  1.00  0.00     0.358 C 
HETATM    4  O2  UNL     1     106.867  33.310  81.499  1.00  0.00    -0.243 OA
HETATM    5  N3  UNL     1     105.713  35.348  81.225  1.00  0.00    -0.204 N 
HETATM    6  C6  UNL     1     104.806  35.023  82.317  1.00  0.00     0.207 C 
HETATM    7  N4  UNL     1     104.295  36.197  82.903  1.00  0.00    -0.363 N 
ATOM      8  H4  UNL     1     104.333  36.342  83.912  1.00  0.00     0.165 HD
HETATM    9  C7  UNL     1     103.731  37.164  82.050  1.00  0.00     0.079 C 
HETATM   10  C8  UNL     1     104.243  37.089  80.633  1.00  0.00     0.180 C 
HETATM   11  N5  UNL     1     105.565  36.538  80.539  1.00  0.00    -0.124 NA
ENDROOT
BRANCH   1  12
HETATM   12  N1  UNL     1     108.644  33.819  79.497  1.00  0.00    -0.266 N 
HETATM   13  C4  UNL     1     108.488  33.016  78.347  1.00  0.00     0.236 C 
HETATM   14  O1  UNL     1     107.455  33.101  77.663  1.00  0.00    -0.272 OA
ATOM     15  H1  UNL     1     109.491  33.747  80.062  1.00  0.00     0.190 HD
BRANCH  13  16
HETATM   16  C3  UNL     1     109.562  32.084  77.971  1.00  0.00     0.104 C 
BRANCH  16  17
HETATM   17  C2  UNL     1     108.934  30.966  77.158  1.00  0.00     0.005 C 
HETATM   18  C1  UNL     1     109.663  29.673  77.466  1.00  0.00     0.005 C 
ENDBRANCH  16  17
ENDBRANCH  13  16
ENDBRANCH   1  12
TORSDOF 3
ENDMDL
MODEL 5
REMARK VINA RESULT: -5.770534933      3.102      3.818
REMARK  3 active torsions:
REMARK  status: ('A' for Active; 'I' for Inactive)
REMARK    1  A    between atoms: C2_2  and  C3_3 
REMARK    2  A    between atoms: C3_3  and  C4_4 
REMARK       I    between atoms: C4_4  and  N1_6 
REMARK    3  A    between atoms: N1_6  and  N2_8 
REMARK       I    between atoms: N2_8  and  C5_10 
REMARK       I    between atoms: C5_10  and  N3_12 
ROOT
HETATM    1  N2  UNL     1     106.934  37.330  80.738  1.00  0.00    -0.247 N 
ATOM      2  H2  UNL     1     106.058  37.704  80.373  1.00  0.00     0.192 HD
HETATM    3  C5  UNL     1     106.931  36.601  81.950  1.00  0.00     0.358 C 
HETATM    4  O2  UNL     1     108.025  36.158  82.376  1.00  0.00    -0.243 OA
HETATM    5  N3  UNL     1     105.693  36.407  82.624  1.00  0.00    -0.204 N 
HETATM    6  C6  UNL     1     105.712  35.671  83.881  1.00  0.00     0.207 C 
HETATM    7  N4  UNL     1     104.629  36.054  84.695  1.00  0.00    -0.363 N 
ATOM      8  H4  UNL     1     104.772  36.330  85.667  1.00  0.00     0.165 HD
HETATM    9  C7  UNL     1     103.343  36.044  84.124  1.00  0.00     0.079 C 
HETATM   10  C8  UNL     1     103.350  36.179  82.621  1.00  0.00     0.180 C 
HETATM   11  N5  UNL     1     104.497  36.884  82.124  1.00  0.00    -0.124 NA
ENDROOT
BRANCH   1  12
HETATM   12  N1  UNL     1     108.124  37.545  80.033  1.00  0.00    -0.266 N 
HETATM   13  C4  UNL     1     108.413  36.758  78.898  1.00  0.00     0.236 C 
HETATM   14  O1  UNL     1     107.619  35.877  78.532  1.00  0.00    -0.272 OA
ATOM     15  H1  UNL     1     108.778  38.267  80.338  1.00  0.00     0.190 HD
BRANCH  13  16
HETATM   16  C3  UNL     1     109.662  36.996  78.159  1.00  0.00     0.104 C 
BRANCH  16  17
HETATM   17  C2  UNL     1     110.680  37.542  79.143  1.00  0.00     0.005 C 
HETATM   18  C1  UNL     1     111.766  38.262  78.368  1.00  0.00     0.005 C 
ENDBRANCH  16  17
ENDBRANCH  13  16
ENDBRANCH   1  12
TORSDOF 3
ENDMDL
