MODEL 1
REMARK VINA RESULT: -7.867512240      0.000      0.000
REMARK  16 active torsions:
REMARK  status: ('A' for Active; 'I' for Inactive)
REMARK    1  A    between atoms: O1_2  and  N1_3 
REMARK    2  A    between atoms: N1_3  and  N2_5 
REMARK    3  A    between atoms: N2_5  and  N3_7 
REMARK    4  A    between atoms: N3_7  and  O2_8 
REMARK    5  A    between atoms: N3_7  and  N4_10 
REMARK    6  A    between atoms: N4_10  and  C2_11 
REMARK    7  A    between atoms: N5_12  and  N6_13 
REMARK       I    between atoms: N6_13  and  C3_15 
REMARK    8  A    between atoms: C3_15  and  C4_17 
REMARK    9  A    between atoms: C4_17  and  N7_18 
REMARK   10  A    between atoms: C8_32  and  C9_33 
REMARK   11  A    between atoms: C11_35  and  O5_36 
REMARK   12  A    between atoms: C13_38  and  O6_39 
REMARK   13  A    between atoms: C15_42  and  S1_43 
REMARK   14  A    between atoms: S1_43  and  N12_46 
REMARK   15  A    between atoms: N14_51  and  O9_52 
REMARK   16  A    between atoms: O9_52  and  S2_53 
ROOT
HETATM    1  C2  UNL     1      51.401  32.090  -9.738  1.00  0.00     0.338 A 
HETATM    2  N5  UNL     1      50.018  31.733 -10.051  1.00  0.00    -0.168 N 
HETATM    3  C6  UNL     1      50.058  30.468 -10.671  1.00  0.00     0.299 A 
HETATM    4  O4  UNL     1      49.008  29.862 -11.070  1.00  0.00    -0.263 OA
HETATM    5  C7  UNL     1      51.435  29.972 -10.785  1.00  0.00     0.139 A 
HETATM    6  C8  UNL     1      51.700  28.803 -11.281  1.00  0.00     0.051 C 
HETATM    7  N14 UNL     1      52.239  31.012 -10.190  1.00  0.00    -0.149 N 
ENDROOT
BRANCH   6   8
HETATM    8  C9  UNL     1      52.957  28.136 -11.492  1.00  0.00    -0.007 A 
HETATM    9  C10 UNL     1      53.677  28.309 -12.673  1.00  0.00     0.052 A 
HETATM   10  C11 UNL     1      54.873  27.680 -12.903  1.00  0.00     0.102 A 
HETATM   11  C13 UNL     1      55.402  26.832 -11.916  1.00  0.00     0.100 A 
HETATM   12  C14 UNL     1      54.719  26.640 -10.741  1.00  0.00     0.065 A 
HETATM   13  C15 UNL     1      53.518  27.302 -10.571  1.00  0.00     0.094 A 
BRANCH  10  14
HETATM   14  O5  UNL     1      55.638  27.794 -14.039  1.00  0.00    -0.353 OA
HETATM   15  C12 UNL     1      56.061  28.933 -14.705  1.00  0.00     0.210 C 
ENDBRANCH  10  14
BRANCH  11  16
HETATM   16  O6  UNL     1      56.610  26.174 -12.101  1.00  0.00    -0.358 OA
ATOM     17  H6  UNL     1      56.936  25.973 -12.970  1.00  0.00     0.217 HD
ENDBRANCH  11  16
BRANCH  13  18
HETATM   18  S1  UNL     1      52.684  27.019  -9.054  1.00  0.00     0.283 S 
HETATM   19  O7  UNL     1      51.211  26.995  -9.275  1.00  0.00    -0.198 OA
HETATM   20  O8  UNL     1      53.200  25.724  -8.479  1.00  0.00    -0.198 OA
BRANCH  18  21
HETATM   21  N12 UNL     1      53.041  28.255  -7.912  1.00  0.00    -0.187 N 
HETATM   22  C16 UNL     1      52.522  28.697  -6.742  1.00  0.00     0.148 A 
HETATM   23  C17 UNL     1      53.488  29.642  -6.668  1.00  0.00     0.128 A 
HETATM   24  N13 UNL     1      53.954  29.170  -7.812  1.00  0.00    -0.295 N 
ATOM     25  H13 UNL     1      54.745  29.432  -8.402  1.00  0.00     0.187 HD
ENDBRANCH  18  21
ENDBRANCH  13  18
ENDBRANCH   6   8
BRANCH   7  26
HETATM   26  O9  UNL     1      53.547  30.910 -10.067  1.00  0.00    -0.120 OA
BRANCH  26  27
HETATM   27  S2  UNL     1      54.583  31.785 -10.962  1.00  0.00     0.274 S 
HETATM   28  O10 UNL     1      56.040  31.554 -10.545  1.00  0.00    -0.571 OA
HETATM   29  O11 UNL     1      54.621  31.322 -12.444  1.00  0.00    -0.571 OA
HETATM   30  O12 UNL     1      54.326  33.420 -11.039  1.00  0.00    -0.571 OA
ENDBRANCH  26  27
ENDBRANCH   7  26
BRANCH   2  31
HETATM   31  N6  UNL     1      48.873  32.499  -9.812  1.00  0.00    -0.255 N 
HETATM   32  C3  UNL     1      48.407  33.553 -10.620  1.00  0.00     0.257 C 
HETATM   33  O3  UNL     1      49.057  33.860 -11.649  1.00  0.00    -0.270 OA
ATOM     34  H6  UNL     1      48.327  32.273  -8.980  1.00  0.00     0.191 HD
BRANCH  32  35
HETATM   35  C4  UNL     1      47.173  34.299 -10.283  1.00  0.00     0.274 C 
BRANCH  35  36
HETATM   36  N7  UNL     1      46.556  34.857 -11.466  1.00  0.00    -0.098 N 
HETATM   37  N8  UNL     1      47.123  35.732 -12.273  1.00  0.00    -0.211 N 
HETATM   38  N9  UNL     1      46.246  35.994 -13.197  1.00  0.00    -0.213 N 
ATOM     39  H8  UNL     1      48.061  36.124 -12.190  1.00  0.00     0.210 HD
HETATM   40  N10 UNL     1      45.127  35.330 -13.033  1.00  0.00    -0.115 N 
ATOM     41  H9  UNL     1      46.411  36.645 -13.965  1.00  0.00     0.210 HD
HETATM   42  C5  UNL     1      45.306  34.581 -11.909  1.00  0.00     0.710 A 
ATOM     43  H10 UNL     1      44.296  35.367 -13.624  1.00  0.00     0.207 HD
HETATM   44  N11 UNL     1      44.436  33.796 -11.423  1.00  0.00    -0.232 N 
ATOM     45 2H11 UNL     1      44.571  33.235 -10.582  1.00  0.00     0.174 HD
ATOM     46 1H11 UNL     1      43.495  33.588 -11.757  1.00  0.00     0.174 HD
ENDBRANCH  35  36
ENDBRANCH  32  35
ENDBRANCH   2  31
BRANCH   1  47
HETATM   47  N4  UNL     1      51.654  33.143  -9.180  1.00  0.00    -0.237 NA
BRANCH  47  48
HETATM   48  N3  UNL     1      51.482  34.270  -8.575  1.00  0.00    -0.004 N 
BRANCH  48  49
HETATM   49  N2  UNL     1      51.061  35.421  -9.013  1.00  0.00    -0.170 N 
ATOM     50  H2  UNL     1      50.262  35.393  -9.648  1.00  0.00     0.215 HD
BRANCH  49  51
HETATM   51  N1  UNL     1      51.552  36.653  -8.731  1.00  0.00    -0.190 N 
ATOM     52  H1  UNL     1      50.895  37.425  -8.840  1.00  0.00     0.217 HD
BRANCH  51  53
HETATM   53  O1  UNL     1      52.776  36.989  -8.330  1.00  0.00    -0.269 OA
HETATM   54  C1  UNL     1      52.763  38.260  -7.758  1.00  0.00     0.239 C 
ENDBRANCH  51  53
ENDBRANCH  49  51
ENDBRANCH  48  49
BRANCH  48  55
HETATM   55  O2  UNL     1      51.806  34.407  -7.183  1.00  0.00    -0.242 OA
ATOM     56  H2  UNL     1      51.786  33.545  -6.784  1.00  0.00     0.249 HD
ENDBRANCH  48  55
ENDBRANCH  47  48
ENDBRANCH   1  47
TORSDOF 16
ENDMDL
MODEL 2
REMARK VINA RESULT: -7.506641563      2.024      3.575
REMARK  16 active torsions:
REMARK  status: ('A' for Active; 'I' for Inactive)
REMARK    1  A    between atoms: O1_2  and  N1_3 
REMARK    2  A    between atoms: N1_3  and  N2_5 
REMARK    3  A    between atoms: N2_5  and  N3_7 
REMARK    4  A    between atoms: N3_7  and  O2_8 
REMARK    5  A    between atoms: N3_7  and  N4_10 
REMARK    6  A    between atoms: N4_10  and  C2_11 
REMARK    7  A    between atoms: N5_12  and  N6_13 
REMARK       I    between atoms: N6_13  and  C3_15 
REMARK    8  A    between atoms: C3_15  and  C4_17 
REMARK    9  A    between atoms: C4_17  and  N7_18 
REMARK   10  A    between atoms: C8_32  and  C9_33 
REMARK   11  A    between atoms: C11_35  and  O5_36 
REMARK   12  A    between atoms: C13_38  and  O6_39 
REMARK   13  A    between atoms: C15_42  and  S1_43 
REMARK   14  A    between atoms: S1_43  and  N12_46 
REMARK   15  A    between atoms: N14_51  and  O9_52 
REMARK   16  A    between atoms: O9_52  and  S2_53 
ROOT
HETATM    1  C2  UNL     1      51.079  32.929  -9.783  1.00  0.00     0.338 A 
HETATM    2  N5  UNL     1      49.873  32.741 -10.589  1.00  0.00    -0.168 N 
HETATM    3  C6  UNL     1      49.695  31.349 -10.730  1.00  0.00     0.299 A 
HETATM    4  O4  UNL     1      48.721  30.842 -11.381  1.00  0.00    -0.263 OA
HETATM    5  C7  UNL     1      50.755  30.603 -10.043  1.00  0.00     0.139 A 
HETATM    6  C8  UNL     1      50.759  29.306 -10.004  1.00  0.00     0.051 C 
HETATM    7  N14 UNL     1      51.595  31.624  -9.466  1.00  0.00    -0.149 N 
ENDROOT
BRANCH   6   8
HETATM    8  C9  UNL     1      51.692  28.388  -9.405  1.00  0.00    -0.007 A 
HETATM    9  C10 UNL     1      52.045  28.494  -8.060  1.00  0.00     0.052 A 
HETATM   10  C11 UNL     1      52.937  27.638  -7.465  1.00  0.00     0.102 A 
HETATM   11  C13 UNL     1      53.517  26.613  -8.231  1.00  0.00     0.100 A 
HETATM   12  C14 UNL     1      53.190  26.482  -9.558  1.00  0.00     0.065 A 
HETATM   13  C15 UNL     1      52.287  27.376 -10.098  1.00  0.00     0.094 A 
BRANCH  10  14
HETATM   14  O5  UNL     1      53.338  27.679  -6.152  1.00  0.00    -0.353 OA
HETATM   15  C12 UNL     1      53.647  28.772  -5.359  1.00  0.00     0.210 C 
ENDBRANCH  10  14
BRANCH  11  16
HETATM   16  O6  UNL     1      54.423  25.722  -7.675  1.00  0.00    -0.358 OA
ATOM     17  H6  UNL     1      55.107  25.320  -8.198  1.00  0.00     0.217 HD
ENDBRANCH  11  16
BRANCH  13  18
HETATM   18  S1  UNL     1      51.907  27.167 -11.798  1.00  0.00     0.283 S 
HETATM   19  O7  UNL     1      51.856  25.717 -12.136  1.00  0.00    -0.198 OA
HETATM   20  O8  UNL     1      50.598  27.866 -12.066  1.00  0.00    -0.198 OA
BRANCH  18  21
HETATM   21  N12 UNL     1      53.093  27.916 -12.794  1.00  0.00    -0.187 N 
HETATM   22  C16 UNL     1      53.367  27.985 -14.118  1.00  0.00     0.148 A 
HETATM   23  C17 UNL     1      54.432  28.778 -13.857  1.00  0.00     0.128 A 
HETATM   24  N13 UNL     1      54.119  28.678 -12.576  1.00  0.00    -0.295 N 
ATOM     25  H13 UNL     1      54.534  29.060 -11.726  1.00  0.00     0.187 HD
ENDBRANCH  18  21
ENDBRANCH  13  18
ENDBRANCH   6   8
BRANCH   7  26
HETATM   26  O9  UNL     1      52.646  31.337  -8.724  1.00  0.00    -0.120 OA
BRANCH  26  27
HETATM   27  S2  UNL     1      54.147  31.229  -9.336  1.00  0.00     0.274 S 
HETATM   28  O10 UNL     1      55.214  31.182  -8.236  1.00  0.00    -0.571 OA
HETATM   29  O11 UNL     1      54.398  29.875 -10.052  1.00  0.00    -0.571 OA
HETATM   30  O12 UNL     1      54.601  32.379 -10.439  1.00  0.00    -0.571 OA
ENDBRANCH  26  27
ENDBRANCH   7  26
BRANCH   2  31
HETATM   31  N6  UNL     1      49.061  33.737 -11.140  1.00  0.00    -0.255 N 
HETATM   32  C3  UNL     1      48.101  34.493 -10.442  1.00  0.00     0.257 C 
HETATM   33  O3  UNL     1      47.933  34.275  -9.218  1.00  0.00    -0.270 OA
ATOM     34  H6  UNL     1      49.175  33.932 -12.135  1.00  0.00     0.191 HD
BRANCH  32  35
HETATM   35  C4  UNL     1      47.296  35.534 -11.120  1.00  0.00     0.274 C 
BRANCH  35  36
HETATM   36  N7  UNL     1      45.984  35.037 -11.474  1.00  0.00    -0.098 N 
HETATM   37  N8  UNL     1      45.389  34.006 -10.908  1.00  0.00    -0.211 N 
HETATM   38  N9  UNL     1      44.245  33.870 -11.512  1.00  0.00    -0.213 N 
ATOM     39  H8  UNL     1      45.752  33.429 -10.149  1.00  0.00     0.210 HD
HETATM   40  N10 UNL     1      44.062  34.769 -12.451  1.00  0.00    -0.115 N 
ATOM     41  H9  UNL     1      43.565  33.146 -11.282  1.00  0.00     0.210 HD
HETATM   42  C5  UNL     1      45.184  35.541 -12.444  1.00  0.00     0.710 A 
ATOM     43  H10 UNL     1      43.249  34.868 -13.059  1.00  0.00     0.207 HD
HETATM   44  N11 UNL     1      45.382  36.527 -13.217  1.00  0.00    -0.232 N 
ATOM     45 2H11 UNL     1      46.222  37.106 -13.212  1.00  0.00     0.174 HD
ATOM     46 1H11 UNL     1      44.780  36.906 -13.948  1.00  0.00     0.174 HD
ENDBRANCH  35  36
ENDBRANCH  32  35
ENDBRANCH   2  31
BRANCH   1  47
HETATM   47  N4  UNL     1      51.461  34.049  -9.498  1.00  0.00    -0.237 NA
BRANCH  47  48
HETATM   48  N3  UNL     1      51.462  35.247  -9.017  1.00  0.00    -0.004 N 
BRANCH  48  49
HETATM   49  N2  UNL     1      50.608  35.862  -8.251  1.00  0.00    -0.170 N 
ATOM     50  H2  UNL     1      50.336  35.371  -7.400  1.00  0.00     0.215 HD
BRANCH  49  51
HETATM   51  N1  UNL     1      50.036  37.077  -8.445  1.00  0.00    -0.190 N 
ATOM     52  H1  UNL     1      49.024  37.111  -8.328  1.00  0.00     0.217 HD
BRANCH  51  53
HETATM   53  O1  UNL     1      50.619  38.230  -8.767  1.00  0.00    -0.269 OA
HETATM   54  C1  UNL     1      50.509  39.135  -7.713  1.00  0.00     0.239 C 
ENDBRANCH  51  53
ENDBRANCH  49  51
ENDBRANCH  48  49
BRANCH  48  55
HETATM   55  O2  UNL     1      52.522  36.161  -9.338  1.00  0.00    -0.242 OA
ATOM     56  H2  UNL     1      52.143  36.925  -9.758  1.00  0.00     0.249 HD
ENDBRANCH  48  55
ENDBRANCH  47  48
ENDBRANCH   1  47
TORSDOF 16
ENDMDL
MODEL 3
REMARK VINA RESULT: -7.456375779      1.152      1.282
REMARK  16 active torsions:
REMARK  status: ('A' for Active; 'I' for Inactive)
REMARK    1  A    between atoms: O1_2  and  N1_3 
REMARK    2  A    between atoms: N1_3  and  N2_5 
REMARK    3  A    between atoms: N2_5  and  N3_7 
REMARK    4  A    between atoms: N3_7  and  O2_8 
REMARK    5  A    between atoms: N3_7  and  N4_10 
REMARK    6  A    between atoms: N4_10  and  C2_11 
REMARK    7  A    between atoms: N5_12  and  N6_13 
REMARK       I    between atoms: N6_13  and  C3_15 
REMARK    8  A    between atoms: C3_15  and  C4_17 
REMARK    9  A    between atoms: C4_17  and  N7_18 
REMARK   10  A    between atoms: C8_32  and  C9_33 
REMARK   11  A    between atoms: C11_35  and  O5_36 
REMARK   12  A    between atoms: C13_38  and  O6_39 
REMARK   13  A    between atoms: C15_42  and  S1_43 
REMARK   14  A    between atoms: S1_43  and  N12_46 
REMARK   15  A    between atoms: N14_51  and  O9_52 
REMARK   16  A    between atoms: O9_52  and  S2_53 
ROOT
HETATM    1  C2  UNL     1      51.408  32.549  -9.577  1.00  0.00     0.338 A 
HETATM    2  N5  UNL     1      50.027  32.111  -9.778  1.00  0.00    -0.168 N 
HETATM    3  C6  UNL     1      50.088  30.767 -10.200  1.00  0.00     0.299 A 
HETATM    4  O4  UNL     1      49.044  30.080 -10.462  1.00  0.00    -0.263 OA
HETATM    5  C7  UNL     1      51.475  30.298 -10.292  1.00  0.00     0.139 A 
HETATM    6  C8  UNL     1      51.761  29.074 -10.615  1.00  0.00     0.051 C 
HETATM    7  N14 UNL     1      52.264  31.438  -9.893  1.00  0.00    -0.149 N 
ENDROOT
BRANCH   6   8
HETATM    8  C9  UNL     1      53.031  28.417 -10.771  1.00  0.00    -0.007 A 
HETATM    9  C10 UNL     1      53.633  28.297 -12.023  1.00  0.00     0.052 A 
HETATM   10  C11 UNL     1      54.839  27.669 -12.201  1.00  0.00     0.102 A 
HETATM   11  C13 UNL     1      55.501  27.128 -11.087  1.00  0.00     0.100 A 
HETATM   12  C14 UNL     1      54.936  27.230  -9.839  1.00  0.00     0.065 A 
HETATM   13  C15 UNL     1      53.718  27.873  -9.727  1.00  0.00     0.094 A 
BRANCH  10  14
HETATM   14  O5  UNL     1      55.493  27.506 -13.398  1.00  0.00    -0.353 OA
HETATM   15  C12 UNL     1      55.558  28.357 -14.490  1.00  0.00     0.210 C 
ENDBRANCH  10  14
BRANCH  11  16
HETATM   16  O6  UNL     1      56.724  26.485 -11.215  1.00  0.00    -0.358 OA
ATOM     17  H6  UNL     1      56.826  25.567 -10.993  1.00  0.00     0.217 HD
ENDBRANCH  11  16
BRANCH  13  18
HETATM   18  S1  UNL     1      53.039  27.972  -8.112  1.00  0.00     0.283 S 
HETATM   19  O7  UNL     1      53.077  29.379  -7.626  1.00  0.00    -0.198 OA
HETATM   20  O8  UNL     1      51.636  27.422  -8.169  1.00  0.00    -0.198 OA
BRANCH  18  21
HETATM   21  N12 UNL     1      53.921  26.992  -7.008  1.00  0.00    -0.187 N 
HETATM   22  C16 UNL     1      54.826  27.188  -6.021  1.00  0.00     0.148 A 
HETATM   23  C17 UNL     1      54.873  25.854  -5.796  1.00  0.00     0.128 A 
HETATM   24  N13 UNL     1      53.987  25.719  -6.769  1.00  0.00    -0.295 N 
ATOM     25  H13 UNL     1      53.524  24.908  -7.181  1.00  0.00     0.187 HD
ENDBRANCH  18  21
ENDBRANCH  13  18
ENDBRANCH   6   8
BRANCH   7  26
HETATM   26  O9  UNL     1      53.579  31.391  -9.807  1.00  0.00    -0.120 OA
BRANCH  26  27
HETATM   27  S2  UNL     1      54.555  31.991 -10.959  1.00  0.00     0.274 S 
HETATM   28  O10 UNL     1      56.028  31.651 -10.699  1.00  0.00    -0.571 OA
HETATM   29  O11 UNL     1      54.332  31.311 -12.337  1.00  0.00    -0.571 OA
HETATM   30  O12 UNL     1      54.452  33.615 -11.269  1.00  0.00    -0.571 OA
ENDBRANCH  26  27
ENDBRANCH   7  26
BRANCH   2  31
HETATM   31  N6  UNL     1      48.866  32.873  -9.614  1.00  0.00    -0.255 N 
HETATM   32  C3  UNL     1      48.341  33.781 -10.552  1.00  0.00     0.257 C 
HETATM   33  O3  UNL     1      48.946  33.947 -11.639  1.00  0.00    -0.270 OA
ATOM     34  H6  UNL     1      48.355  32.760  -8.738  1.00  0.00     0.191 HD
BRANCH  32  35
HETATM   35  C4  UNL     1      47.096  34.536 -10.284  1.00  0.00     0.274 C 
BRANCH  35  36
HETATM   36  N7  UNL     1      46.479  34.986 -11.512  1.00  0.00    -0.098 N 
HETATM   37  N8  UNL     1      47.024  35.829 -12.367  1.00  0.00    -0.211 N 
HETATM   38  N9  UNL     1      46.156  35.991 -13.322  1.00  0.00    -0.213 N 
ATOM     39  H8  UNL     1      47.944  36.266 -12.295  1.00  0.00     0.210 HD
HETATM   40  N10 UNL     1      45.062  35.291 -13.132  1.00  0.00    -0.115 N 
ATOM     41  H9  UNL     1      46.309  36.595 -14.129  1.00  0.00     0.210 HD
HETATM   42  C5  UNL     1      45.251  34.628 -11.958  1.00  0.00     0.710 A 
ATOM     43  H10 UNL     1      44.243  35.252 -13.738  1.00  0.00     0.207 HD
HETATM   44  N11 UNL     1      44.406  33.839 -11.435  1.00  0.00    -0.232 N 
ATOM     45 2H11 UNL     1      44.546  33.341 -10.555  1.00  0.00     0.174 HD
ATOM     46 1H11 UNL     1      43.481  33.569 -11.770  1.00  0.00     0.174 HD
ENDBRANCH  35  36
ENDBRANCH  32  35
ENDBRANCH   2  31
BRANCH   1  47
HETATM   47  N4  UNL     1      51.645  33.681  -9.196  1.00  0.00    -0.237 NA
BRANCH  47  48
HETATM   48  N3  UNL     1      51.591  34.765  -8.497  1.00  0.00    -0.004 N 
BRANCH  48  49
HETATM   49  N2  UNL     1      51.445  36.007  -8.855  1.00  0.00    -0.170 N 
ATOM     50  H2  UNL     1      50.680  36.199  -9.501  1.00  0.00     0.215 HD
BRANCH  49  51
HETATM   51  N1  UNL     1      52.185  37.078  -8.474  1.00  0.00    -0.190 N 
ATOM     52  H1  UNL     1      51.758  37.990  -8.637  1.00  0.00     0.217 HD
BRANCH  51  53
HETATM   53  O1  UNL     1      53.394  37.100  -7.918  1.00  0.00    -0.269 OA
HETATM   54  C1  UNL     1      53.735  38.402  -7.558  1.00  0.00     0.239 C 
ENDBRANCH  51  53
ENDBRANCH  49  51
ENDBRANCH  48  49
BRANCH  48  55
HETATM   55  O2  UNL     1      51.735  34.719  -7.069  1.00  0.00    -0.242 OA
ATOM     56  H2  UNL     1      51.090  35.300  -6.684  1.00  0.00     0.249 HD
ENDBRANCH  48  55
ENDBRANCH  47  48
ENDBRANCH   1  47
TORSDOF 16
ENDMDL
MODEL 4
REMARK VINA RESULT: -7.374424746      2.098      3.356
REMARK  16 active torsions:
REMARK  status: ('A' for Active; 'I' for Inactive)
REMARK    1  A    between atoms: O1_2  and  N1_3 
REMARK    2  A    between atoms: N1_3  and  N2_5 
REMARK    3  A    between atoms: N2_5  and  N3_7 
REMARK    4  A    between atoms: N3_7  and  O2_8 
REMARK    5  A    between atoms: N3_7  and  N4_10 
REMARK    6  A    between atoms: N4_10  and  C2_11 
REMARK    7  A    between atoms: N5_12  and  N6_13 
REMARK       I    between atoms: N6_13  and  C3_15 
REMARK    8  A    between atoms: C3_15  and  C4_17 
REMARK    9  A    between atoms: C4_17  and  N7_18 
REMARK   10  A    between atoms: C8_32  and  C9_33 
REMARK   11  A    between atoms: C11_35  and  O5_36 
REMARK   12  A    between atoms: C13_38  and  O6_39 
REMARK   13  A    between atoms: C15_42  and  S1_43 
REMARK   14  A    between atoms: S1_43  and  N12_46 
REMARK   15  A    between atoms: N14_51  and  O9_52 
REMARK   16  A    between atoms: O9_52  and  S2_53 
ROOT
HETATM    1  C2  UNL     1      51.310  32.079  -9.584  1.00  0.00     0.338 A 
HETATM    2  N5  UNL     1      49.936  31.652  -9.848  1.00  0.00    -0.168 N 
HETATM    3  C6  UNL     1      50.008  30.320 -10.303  1.00  0.00     0.299 A 
HETATM    4  O4  UNL     1      48.972  29.643 -10.621  1.00  0.00    -0.263 OA
HETATM    5  C7  UNL     1      51.396  29.847 -10.356  1.00  0.00     0.139 A 
HETATM    6  C8  UNL     1      51.690  28.631 -10.701  1.00  0.00     0.051 C 
HETATM    7  N14 UNL     1      52.174  30.972  -9.898  1.00  0.00    -0.149 N 
ENDROOT
BRANCH   6   8
HETATM    8  C9  UNL     1      52.963  27.973 -10.827  1.00  0.00    -0.007 A 
HETATM    9  C10 UNL     1      53.875  27.958  -9.772  1.00  0.00     0.052 A 
HETATM   10  C11 UNL     1      55.098  27.346  -9.868  1.00  0.00     0.102 A 
HETATM   11  C13 UNL     1      55.451  26.704 -11.066  1.00  0.00     0.100 A 
HETATM   12  C14 UNL     1      54.575  26.699 -12.124  1.00  0.00     0.065 A 
HETATM   13  C15 UNL     1      53.359  27.336 -11.965  1.00  0.00     0.094 A 
BRANCH  10  14
HETATM   14  O5  UNL     1      56.051  27.291  -8.879  1.00  0.00    -0.353 OA
HETATM   15  C12 UNL     1      55.897  27.081  -7.519  1.00  0.00     0.210 C 
ENDBRANCH  10  14
BRANCH  11  16
HETATM   16  O6  UNL     1      56.676  26.069 -11.212  1.00  0.00    -0.358 OA
ATOM     17  H6  UNL     1      57.015  25.838 -12.068  1.00  0.00     0.217 HD
ENDBRANCH  11  16
BRANCH  13  18
HETATM   18  S1  UNL     1      52.280  27.304 -13.347  1.00  0.00     0.283 S 
HETATM   19  O7  UNL     1      51.175  26.334 -13.112  1.00  0.00    -0.198 OA
HETATM   20  O8  UNL     1      51.774  28.708 -13.568  1.00  0.00    -0.198 OA
BRANCH  18  21
HETATM   21  N12 UNL     1      53.117  26.839 -14.776  1.00  0.00    -0.187 N 
HETATM   22  C16 UNL     1      53.854  27.453 -15.731  1.00  0.00     0.148 A 
HETATM   23  C17 UNL     1      54.039  26.266 -16.354  1.00  0.00     0.128 A 
HETATM   24  N13 UNL     1      53.313  25.717 -15.395  1.00  0.00    -0.295 N 
ATOM     25  H13 UNL     1      53.015  24.759 -15.210  1.00  0.00     0.187 HD
ENDBRANCH  18  21
ENDBRANCH  13  18
ENDBRANCH   6   8
BRANCH   7  26
HETATM   26  O9  UNL     1      53.484  30.918  -9.765  1.00  0.00    -0.120 OA
BRANCH  26  27
HETATM   27  S2  UNL     1      54.505  31.506 -10.883  1.00  0.00     0.274 S 
HETATM   28  O10 UNL     1      54.380  33.027 -11.031  1.00  0.00    -0.571 OA
HETATM   29  O11 UNL     1      55.991  31.369 -10.457  1.00  0.00    -0.571 OA
HETATM   30  O12 UNL     1      54.438  30.837 -12.398  1.00  0.00    -0.571 OA
ENDBRANCH  26  27
ENDBRANCH   7  26
BRANCH   2  31
HETATM   31  N6  UNL     1      48.772  32.414  -9.706  1.00  0.00    -0.255 N 
HETATM   32  C3  UNL     1      48.422  33.529 -10.490  1.00  0.00     0.257 C 
HETATM   33  O3  UNL     1      49.202  33.900 -11.400  1.00  0.00    -0.270 OA
ATOM     34  H6  UNL     1      48.121  32.137  -8.972  1.00  0.00     0.191 HD
BRANCH  32  35
HETATM   35  C4  UNL     1      47.157  34.266 -10.263  1.00  0.00     0.274 C 
BRANCH  35  36
HETATM   36  N7  UNL     1      46.615  34.774 -11.504  1.00  0.00    -0.098 N 
HETATM   37  N8  UNL     1      47.273  35.527 -12.364  1.00  0.00    -0.211 N 
HETATM   38  N9  UNL     1      46.442  35.786 -13.330  1.00  0.00    -0.213 N 
ATOM     39  H8  UNL     1      48.240  35.843 -12.287  1.00  0.00     0.210 HD
HETATM   40  N10 UNL     1      45.265  35.236 -13.144  1.00  0.00    -0.115 N 
ATOM     41  H9  UNL     1      46.679  36.354 -14.144  1.00  0.00     0.210 HD
HETATM   42  C5  UNL     1      45.355  34.571 -11.958  1.00  0.00     0.710 A 
ATOM     43  H10 UNL     1      44.453  35.294 -13.758  1.00  0.00     0.207 HD
HETATM   44  N11 UNL     1      44.410  33.905 -11.435  1.00  0.00    -0.232 N 
ATOM     45 2H11 UNL     1      44.478  33.407 -10.547  1.00  0.00     0.174 HD
ATOM     46 1H11 UNL     1      43.462  33.752 -11.777  1.00  0.00     0.174 HD
ENDBRANCH  35  36
ENDBRANCH  32  35
ENDBRANCH   2  31
BRANCH   1  47
HETATM   47  N4  UNL     1      51.537  33.199  -9.164  1.00  0.00    -0.237 NA
BRANCH  47  48
HETATM   48  N3  UNL     1      51.376  34.322  -8.548  1.00  0.00    -0.004 N 
BRANCH  48  49
HETATM   49  N2  UNL     1      50.942  35.474  -8.970  1.00  0.00    -0.170 N 
ATOM     50  H2  UNL     1      50.106  35.451  -9.554  1.00  0.00     0.215 HD
BRANCH  49  51
HETATM   51  N1  UNL     1      51.463  36.703  -8.728  1.00  0.00    -0.190 N 
ATOM     52  H1  UNL     1      50.829  37.488  -8.874  1.00  0.00     0.217 HD
BRANCH  51  53
HETATM   53  O1  UNL     1      52.692  37.021  -8.326  1.00  0.00    -0.269 OA
HETATM   54  C1  UNL     1      52.636  37.999  -7.335  1.00  0.00     0.239 C 
ENDBRANCH  51  53
ENDBRANCH  49  51
ENDBRANCH  48  49
BRANCH  48  55
HETATM   55  O2  UNL     1      51.732  34.452  -7.164  1.00  0.00    -0.242 OA
ATOM     56  H2  UNL     1      52.621  34.137  -7.052  1.00  0.00     0.249 HD
ENDBRANCH  48  55
ENDBRANCH  47  48
ENDBRANCH   1  47
TORSDOF 16
ENDMDL
MODEL 5
REMARK VINA RESULT: -7.218350182      1.825      2.751
REMARK  16 active torsions:
REMARK  status: ('A' for Active; 'I' for Inactive)
REMARK    1  A    between atoms: O1_2  and  N1_3 
REMARK    2  A    between atoms: N1_3  and  N2_5 
REMARK    3  A    between atoms: N2_5  and  N3_7 
REMARK    4  A    between atoms: N3_7  and  O2_8 
REMARK    5  A    between atoms: N3_7  and  N4_10 
REMARK    6  A    between atoms: N4_10  and  C2_11 
REMARK    7  A    between atoms: N5_12  and  N6_13 
REMARK       I    between atoms: N6_13  and  C3_15 
REMARK    8  A    between atoms: C3_15  and  C4_17 
REMARK    9  A    between atoms: C4_17  and  N7_18 
REMARK   10  A    between atoms: C8_32  and  C9_33 
REMARK   11  A    between atoms: C11_35  and  O5_36 
REMARK   12  A    between atoms: C13_38  and  O6_39 
REMARK   13  A    between atoms: C15_42  and  S1_43 
REMARK   14  A    between atoms: S1_43  and  N12_46 
REMARK   15  A    between atoms: N14_51  and  O9_52 
REMARK   16  A    between atoms: O9_52  and  S2_53 
ROOT
HETATM    1  C2  UNL     1      51.634  32.522  -9.640  1.00  0.00     0.338 A 
HETATM    2  N5  UNL     1      50.334  31.876  -9.817  1.00  0.00    -0.168 N 
HETATM    3  C6  UNL     1      50.595  30.539 -10.182  1.00  0.00     0.299 A 
HETATM    4  O4  UNL     1      49.666  29.693 -10.411  1.00  0.00    -0.263 OA
HETATM    5  C7  UNL     1      52.037  30.278 -10.258  1.00  0.00     0.139 A 
HETATM    6  C8  UNL     1      52.502  29.097 -10.531  1.00  0.00     0.051 C 
HETATM    7  N14 UNL     1      52.647  31.538  -9.912  1.00  0.00    -0.149 N 
ENDROOT
BRANCH   6   8
HETATM    8  C9  UNL     1      53.857  28.631 -10.663  1.00  0.00    -0.007 A 
HETATM    9  C10 UNL     1      54.810  28.894  -9.680  1.00  0.00     0.052 A 
HETATM   10  C11 UNL     1      56.109  28.468  -9.784  1.00  0.00     0.102 A 
HETATM   11  C13 UNL     1      56.501  27.736 -10.916  1.00  0.00     0.100 A 
HETATM   12  C14 UNL     1      55.587  27.458 -11.902  1.00  0.00     0.065 A 
HETATM   13  C15 UNL     1      54.294  27.917 -11.739  1.00  0.00     0.094 A 
BRANCH  10  14
HETATM   14  O5  UNL     1      57.106  28.690  -8.864  1.00  0.00    -0.353 OA
HETATM   15  C12 UNL     1      57.366  28.034  -7.672  1.00  0.00     0.210 C 
ENDBRANCH  10  14
BRANCH  11  16
HETATM   16  O6  UNL     1      57.804  27.281 -11.067  1.00  0.00    -0.358 OA
ATOM     17  H6  UNL     1      58.233  26.775 -10.387  1.00  0.00     0.217 HD
ENDBRANCH  11  16
BRANCH  13  18
HETATM   18  S1  UNL     1      53.167  27.540 -13.029  1.00  0.00     0.283 S 
HETATM   19  O7  UNL     1      52.949  28.738 -13.886  1.00  0.00    -0.198 OA
HETATM   20  O8  UNL     1      53.729  26.374 -13.804  1.00  0.00    -0.198 OA
BRANCH  18  21
HETATM   21  N12 UNL     1      51.648  27.040 -12.397  1.00  0.00    -0.187 N 
HETATM   22  C16 UNL     1      51.198  26.081 -11.553  1.00  0.00     0.148 A 
HETATM   23  C17 UNL     1      49.931  26.529 -11.717  1.00  0.00     0.128 A 
HETATM   24  N13 UNL     1      50.424  27.446 -12.533  1.00  0.00    -0.295 N 
ATOM     25  H13 UNL     1      49.996  28.199 -13.072  1.00  0.00     0.187 HD
ENDBRANCH  18  21
ENDBRANCH  13  18
ENDBRANCH   6   8
BRANCH   7  26
HETATM   26  O9  UNL     1      53.954  31.691  -9.828  1.00  0.00    -0.120 OA
BRANCH  26  27
HETATM   27  S2  UNL     1      54.856  32.214 -11.073  1.00  0.00     0.274 S 
HETATM   28  O10 UNL     1      56.341  31.878 -10.889  1.00  0.00    -0.571 OA
HETATM   29  O11 UNL     1      54.542  31.457 -12.392  1.00  0.00    -0.571 OA
HETATM   30  O12 UNL     1      54.741  33.819 -11.472  1.00  0.00    -0.571 OA
ENDBRANCH  26  27
ENDBRANCH   7  26
BRANCH   2  31
HETATM   31  N6  UNL     1      49.072  32.462  -9.682  1.00  0.00    -0.255 N 
HETATM   32  C3  UNL     1      48.501  33.394 -10.568  1.00  0.00     0.257 C 
HETATM   33  O3  UNL     1      49.158  33.753 -11.576  1.00  0.00    -0.270 OA
ATOM     34  H6  UNL     1      48.517  32.191  -8.869  1.00  0.00     0.191 HD
BRANCH  32  35
HETATM   35  C4  UNL     1      47.149  33.952 -10.337  1.00  0.00     0.274 C 
BRANCH  35  36
HETATM   36  N7  UNL     1      46.648  34.621 -11.518  1.00  0.00    -0.098 N 
HETATM   37  N8  UNL     1      47.361  35.403 -12.304  1.00  0.00    -0.211 N 
HETATM   38  N9  UNL     1      46.552  35.819 -13.234  1.00  0.00    -0.213 N 
ATOM     39  H8  UNL     1      48.349  35.635 -12.204  1.00  0.00     0.210 HD
HETATM   40  N10 UNL     1      45.336  35.345 -13.093  1.00  0.00    -0.115 N 
ATOM     41  H9  UNL     1      46.831  36.444 -13.989  1.00  0.00     0.210 HD
HETATM   42  C5  UNL     1      45.375  34.560 -11.980  1.00  0.00     0.710 A 
ATOM     43  H10 UNL     1      44.531  35.525 -13.692  1.00  0.00     0.207 HD
HETATM   44  N11 UNL     1      44.382  33.921 -11.517  1.00  0.00    -0.232 N 
ATOM     45 2H11 UNL     1      44.411  33.333 -10.683  1.00  0.00     0.174 HD
ATOM     46 1H11 UNL     1      43.425  33.875 -11.864  1.00  0.00     0.174 HD
ENDBRANCH  35  36
ENDBRANCH  32  35
ENDBRANCH   2  31
BRANCH   1  47
HETATM   47  N4  UNL     1      51.699  33.692  -9.308  1.00  0.00    -0.237 NA
BRANCH  47  48
HETATM   48  N3  UNL     1      51.578  34.763  -8.597  1.00  0.00    -0.004 N 
BRANCH  48  49
HETATM   49  N2  UNL     1      51.280  35.984  -8.934  1.00  0.00    -0.170 N 
ATOM     50  H2  UNL     1      50.326  36.137  -9.262  1.00  0.00     0.215 HD
BRANCH  49  51
HETATM   51  N1  UNL     1      52.081  37.078  -8.903  1.00  0.00    -0.190 N 
ATOM     52  H1  UNL     1      51.808  37.842  -9.520  1.00  0.00     0.217 HD
BRANCH  51  53
HETATM   53  O1  UNL     1      53.175  37.288  -8.175  1.00  0.00    -0.269 OA
HETATM   54  C1  UNL     1      52.881  38.111  -7.090  1.00  0.00     0.239 C 
ENDBRANCH  51  53
ENDBRANCH  49  51
ENDBRANCH  48  49
BRANCH  48  55
HETATM   55  O2  UNL     1      51.818  34.730  -7.182  1.00  0.00    -0.242 OA
ATOM     56  H2  UNL     1      51.588  35.577  -6.819  1.00  0.00     0.249 HD
ENDBRANCH  48  55
ENDBRANCH  47  48
ENDBRANCH   1  47
TORSDOF 16
ENDMDL
