MODEL 1
REMARK VINA RESULT: -9.291782259      0.000      0.000
REMARK  17 active torsions:
REMARK  status: ('A' for Active; 'I' for Inactive)
REMARK    1  A    between atoms: C3_8  and  S1_9 
REMARK    2  A    between atoms: S1_9  and  C4_10 
REMARK    3  A    between atoms: C4_10  and  C5_11 
REMARK    4  A    between atoms: C6_12  and  C7_13 
REMARK    5  A    between atoms: C7_13  and  O2_15 
REMARK    6  A    between atoms: O2_15  and  C8_16 
REMARK    7  A    between atoms: C8_16  and  C9_17 
REMARK    8  A    between atoms: C9_17  and  N4_18 
REMARK    9  A    between atoms: N6_27  and  C15_28 
REMARK   10  A    between atoms: C15_28  and  C16_29 
REMARK       I    between atoms: C16_29  and  N7_31 
REMARK   11  A    between atoms: N7_31  and  C17_33 
REMARK   12  A    between atoms: C17_33  and  C18_34 
REMARK   13  A    between atoms: C18_34  and  O5_35 
REMARK   14  A    between atoms: C18_34  and  C19_37 
REMARK   15  A    between atoms: C19_37  and  O6_38 
REMARK   16  A    between atoms: C20_40  and  N8_41 
REMARK   17  A    between atoms: N11_55  and  N12_56 
ROOT
HETATM    1  N1  UNL     1      44.643  36.955 -12.892  1.00  0.00    -0.188 NA
HETATM    2  C1  UNL     1      45.333  36.164 -12.360  1.00  0.00     0.140 C 
HETATM    3  C2  UNL     1      46.183  35.197 -11.726  1.00  0.00     0.226 A 
HETATM    4  N2  UNL     1      46.071  34.797 -10.445  1.00  0.00    -0.273 N 
ATOM      5  H2  UNL     1      45.379  35.123  -9.770  1.00  0.00     0.189 HD
HETATM    6  N3  UNL     1      47.005  33.919 -10.228  1.00  0.00    -0.276 N 
ATOM      7  H3  UNL     1      47.151  33.448  -9.334  1.00  0.00     0.189 HD
HETATM    8  C3  UNL     1      47.767  33.703 -11.340  1.00  0.00     0.182 A 
HETATM    9  N11 UNL     1      47.223  34.521 -12.258  1.00  0.00    -0.212 N 
ENDROOT
BRANCH   9  10
HETATM   10  N12 UNL     1      47.657  34.715 -13.573  1.00  0.00    -0.334 N 
ATOM     11 2H12 UNL     1      47.121  35.116 -14.342  1.00  0.00     0.177 HD
ATOM     12 1H12 UNL     1      48.582  34.430 -13.895  1.00  0.00     0.177 HD
ENDBRANCH   9  10
BRANCH   8  13
HETATM   13  S1  UNL     1      49.151  32.634 -11.367  1.00  0.00    -0.086 SA
BRANCH  13  14
HETATM   14  C4  UNL     1      49.472  31.621  -9.950  1.00  0.00     0.118 C 
BRANCH  14  15
HETATM   15  C5  UNL     1      50.605  30.626 -10.092  1.00  0.00    -0.045 C 
HETATM   16  C6  UNL     1      51.897  30.833  -9.935  1.00  0.00     0.069 C 
HETATM   17  C21 UNL     1      52.795  29.665 -10.099  1.00  0.00     0.199 C 
HETATM   18  N9  UNL     1      53.241  29.471 -11.435  1.00  0.00    -0.312 N 
HETATM   19  C23 UNL     1      53.939  29.594  -9.210  1.00  0.00     0.270 C 
HETATM   20  S2  UNL     1      51.587  28.323  -9.631  1.00  0.00    -0.118 SA
HETATM   21  C22 UNL     1      54.506  28.846 -11.343  1.00  0.00     0.324 C 
ATOM     22  H9  UNL     1      52.747  29.731 -12.290  1.00  0.00     0.166 HD
HETATM   23  O7  UNL     1      55.128  28.324 -12.303  1.00  0.00    -0.247 OA
HETATM   24  N10 UNL     1      54.956  28.909  -9.984  1.00  0.00    -0.276 N 
ATOM     25  H10 UNL     1      55.835  28.538  -9.624  1.00  0.00     0.173 HD
HETATM   26  O8  UNL     1      54.061  30.005  -8.059  1.00  0.00    -0.269 OA
HETATM   27  C24 UNL     1      50.212  29.236 -10.455  1.00  0.00     0.113 C 
BRANCH  16  28
HETATM   28  C7  UNL     1      52.427  32.173  -9.582  1.00  0.00     0.298 C 
HETATM   29  O1  UNL     1      53.147  32.870 -10.308  1.00  0.00    -0.259 OA
BRANCH  28  30
HETATM   30  O2  UNL     1      52.135  32.771  -8.328  1.00  0.00    -0.286 OA
BRANCH  30  31
HETATM   31  C8  UNL     1      51.398  33.965  -8.329  1.00  0.00     0.164 C 
BRANCH  31  32
HETATM   32  C9  UNL     1      51.369  34.800  -7.153  1.00  0.00     0.143 C 
BRANCH  32  33
HETATM   33  N4  UNL     1      50.953  36.149  -7.194  1.00  0.00    -0.118 N 
HETATM   34  C10 UNL     1      51.789  37.158  -7.604  1.00  0.00     0.295 A 
HETATM   35  O3  UNL     1      52.953  36.867  -7.981  1.00  0.00    -0.265 OA
HETATM   36  C11 UNL     1      51.405  38.476  -7.619  1.00  0.00     0.129 A 
HETATM   37  N5  UNL     1      52.015  39.619  -7.967  1.00  0.00    -0.360 N 
HETATM   38  C14 UNL     1      50.131  38.828  -7.210  1.00  0.00     0.086 A 
HETATM   39  C12 UNL     1      51.195  40.665  -7.800  1.00  0.00     0.091 A 
ATOM     40  H5  UNL     1      52.972  39.683  -8.311  1.00  0.00     0.165 HD
HETATM   41  C13 UNL     1      49.989  40.212  -7.322  1.00  0.00     0.050 A 
HETATM   42  N6  UNL     1      49.326  37.830  -6.813  1.00  0.00    -0.172 N 
HETATM   43  C20 UNL     1      49.732  36.527  -6.807  1.00  0.00     0.688 A 
BRANCH  42  44
HETATM   44  C15 UNL     1      47.970  38.161  -6.372  1.00  0.00     0.250 C 
BRANCH  44  45
HETATM   45  C16 UNL     1      47.896  38.637  -4.986  1.00  0.00     0.236 C 
HETATM   46  O4  UNL     1      47.946  37.769  -4.078  1.00  0.00    -0.272 OA
HETATM   47  N7  UNL     1      47.773  39.989  -4.628  1.00  0.00    -0.357 N 
ATOM     48  H7  UNL     1      47.731  40.702  -5.356  1.00  0.00     0.162 HD
BRANCH  47  49
HETATM   49  C17 UNL     1      47.706  40.377  -3.249  1.00  0.00     0.156 C 
BRANCH  49  50
HETATM   50  C18 UNL     1      49.001  40.968  -2.746  1.00  0.00     0.159 C 
BRANCH  50  51
HETATM   51  O5  UNL     1      49.197  42.164  -3.419  1.00  0.00    -0.392 OA
ATOM     52  H5  UNL     1      49.695  42.733  -2.844  1.00  0.00     0.210 HD
ENDBRANCH  50  51
BRANCH  50  53
HETATM   53  C19 UNL     1      48.825  41.280  -1.269  1.00  0.00     0.197 C 
BRANCH  53  54
HETATM   54  O6  UNL     1      47.657  41.964  -1.011  1.00  0.00    -0.398 OA
ATOM     55  H6  UNL     1      47.791  42.903  -0.954  1.00  0.00     0.209 HD
ENDBRANCH  53  54
ENDBRANCH  50  53
ENDBRANCH  49  50
ENDBRANCH  47  49
ENDBRANCH  44  45
ENDBRANCH  42  44
BRANCH  43  56
HETATM   56  N8  UNL     1      48.838  35.711  -6.394  1.00  0.00    -0.234 N 
ATOM     57  H82 UNL     1      48.836  34.819  -6.890  1.00  0.00     0.174 HD
ATOM     58  H81 UNL     1      48.184  35.926  -5.642  1.00  0.00     0.174 HD
ENDBRANCH  43  56
ENDBRANCH  32  33
ENDBRANCH  31  32
ENDBRANCH  30  31
ENDBRANCH  28  30
ENDBRANCH  16  28
ENDBRANCH  14  15
ENDBRANCH  13  14
ENDBRANCH   8  13
TORSDOF 17
ENDMDL
MODEL 2
REMARK VINA RESULT: -9.165790635      1.082      1.321
REMARK  17 active torsions:
REMARK  status: ('A' for Active; 'I' for Inactive)
REMARK    1  A    between atoms: C3_8  and  S1_9 
REMARK    2  A    between atoms: S1_9  and  C4_10 
REMARK    3  A    between atoms: C4_10  and  C5_11 
REMARK    4  A    between atoms: C6_12  and  C7_13 
REMARK    5  A    between atoms: C7_13  and  O2_15 
REMARK    6  A    between atoms: O2_15  and  C8_16 
REMARK    7  A    between atoms: C8_16  and  C9_17 
REMARK    8  A    between atoms: C9_17  and  N4_18 
REMARK    9  A    between atoms: N6_27  and  C15_28 
REMARK   10  A    between atoms: C15_28  and  C16_29 
REMARK       I    between atoms: C16_29  and  N7_31 
REMARK   11  A    between atoms: N7_31  and  C17_33 
REMARK   12  A    between atoms: C17_33  and  C18_34 
REMARK   13  A    between atoms: C18_34  and  O5_35 
REMARK   14  A    between atoms: C18_34  and  C19_37 
REMARK   15  A    between atoms: C19_37  and  O6_38 
REMARK   16  A    between atoms: C20_40  and  N8_41 
REMARK   17  A    between atoms: N11_55  and  N12_56 
ROOT
HETATM    1  N1  UNL     1      43.040  36.229 -13.181  1.00  0.00    -0.188 NA
HETATM    2  C1  UNL     1      44.080  35.926 -12.723  1.00  0.00     0.140 C 
HETATM    3  C2  UNL     1      45.342  35.543 -12.156  1.00  0.00     0.226 A 
HETATM    4  N2  UNL     1      46.500  36.203 -12.339  1.00  0.00    -0.273 N 
ATOM      5  H2  UNL     1      46.631  37.048 -12.897  1.00  0.00     0.189 HD
HETATM    6  N3  UNL     1      47.421  35.568 -11.677  1.00  0.00    -0.276 N 
ATOM      7  H3  UNL     1      48.400  35.853 -11.641  1.00  0.00     0.189 HD
HETATM    8  C3  UNL     1      46.919  34.473 -11.035  1.00  0.00     0.182 A 
HETATM    9  N11 UNL     1      45.614  34.489 -11.358  1.00  0.00    -0.212 N 
ENDROOT
BRANCH   9  10
HETATM   10  N12 UNL     1      44.645  33.553 -10.986  1.00  0.00    -0.334 N 
ATOM     11 2H12 UNL     1      44.516  33.136 -10.064  1.00  0.00     0.177 HD
ATOM     12 1H12 UNL     1      43.971  33.166 -11.647  1.00  0.00     0.177 HD
ENDBRANCH   9  10
BRANCH   8  13
HETATM   13  S1  UNL     1      47.905  33.361 -10.112  1.00  0.00    -0.086 SA
BRANCH  13  14
HETATM   14  C4  UNL     1      49.589  33.108 -10.603  1.00  0.00     0.118 C 
BRANCH  14  15
HETATM   15  C5  UNL     1      50.085  31.678 -10.547  1.00  0.00    -0.045 C 
HETATM   16  C6  UNL     1      51.229  31.229 -10.070  1.00  0.00     0.069 C 
HETATM   17  C21 UNL     1      51.448  29.764 -10.105  1.00  0.00     0.199 C 
HETATM   18  N9  UNL     1      52.055  29.306 -11.307  1.00  0.00    -0.312 N 
HETATM   19  C23 UNL     1      52.152  29.185  -8.977  1.00  0.00     0.270 C 
HETATM   20  S2  UNL     1      49.666  29.218 -10.044  1.00  0.00    -0.118 SA
HETATM   21  C22 UNL     1      52.785  28.144 -10.964  1.00  0.00     0.324 C 
ATOM     22  H9  UNL     1      51.978  29.730 -12.232  1.00  0.00     0.166 HD
HETATM   23  O7  UNL     1      53.285  27.334 -11.785  1.00  0.00    -0.247 OA
HETATM   24  N10 UNL     1      52.858  28.048  -9.536  1.00  0.00    -0.276 N 
ATOM     25  H10 UNL     1      53.324  27.312  -9.006  1.00  0.00     0.173 HD
HETATM   26  O8  UNL     1      52.173  29.541  -7.801  1.00  0.00    -0.269 OA
HETATM   27  C24 UNL     1      49.165  30.646 -11.100  1.00  0.00     0.113 C 
BRANCH  16  28
HETATM   28  C7  UNL     1      52.241  32.150  -9.499  1.00  0.00     0.298 C 
HETATM   29  O1  UNL     1      53.341  32.405 -10.004  1.00  0.00    -0.259 OA
BRANCH  28  30
HETATM   30  O2  UNL     1      52.008  32.829  -8.274  1.00  0.00    -0.286 OA
BRANCH  30  31
HETATM   31  C8  UNL     1      51.455  34.118  -8.335  1.00  0.00     0.164 C 
BRANCH  31  32
HETATM   32  C9  UNL     1      51.343  34.915  -7.138  1.00  0.00     0.143 C 
BRANCH  32  33
HETATM   33  N4  UNL     1      50.914  36.261  -7.165  1.00  0.00    -0.118 N 
HETATM   34  C10 UNL     1      51.738  37.281  -7.571  1.00  0.00     0.295 A 
HETATM   35  O3  UNL     1      52.901  37.004  -7.958  1.00  0.00    -0.265 OA
HETATM   36  C11 UNL     1      51.341  38.596  -7.573  1.00  0.00     0.129 A 
HETATM   37  N5  UNL     1      51.938  39.747  -7.914  1.00  0.00    -0.360 N 
HETATM   38  C14 UNL     1      50.067  38.932  -7.153  1.00  0.00     0.086 A 
HETATM   39  C12 UNL     1      51.110  40.784  -7.733  1.00  0.00     0.091 A 
ATOM     40  H5  UNL     1      52.893  39.822  -8.265  1.00  0.00     0.165 HD
HETATM   41  C13 UNL     1      49.912  40.315  -7.252  1.00  0.00     0.050 A 
HETATM   42  N6  UNL     1      49.274  37.923  -6.759  1.00  0.00    -0.172 N 
HETATM   43  C20 UNL     1      49.692  36.624  -6.767  1.00  0.00     0.688 A 
BRANCH  42  44
HETATM   44  C15 UNL     1      47.918  38.238  -6.306  1.00  0.00     0.250 C 
BRANCH  44  45
HETATM   45  C16 UNL     1      47.843  38.660  -4.903  1.00  0.00     0.236 C 
HETATM   46  O4  UNL     1      47.743  37.754  -4.036  1.00  0.00    -0.272 OA
HETATM   47  N7  UNL     1      47.876  39.999  -4.485  1.00  0.00    -0.357 N 
ATOM     48  H7  UNL     1      47.956  40.742  -5.178  1.00  0.00     0.162 HD
BRANCH  47  49
HETATM   49  C17 UNL     1      47.797  40.333  -3.093  1.00  0.00     0.156 C 
BRANCH  49  50
HETATM   50  C18 UNL     1      49.064  40.970  -2.573  1.00  0.00     0.159 C 
BRANCH  50  51
HETATM   51  O5  UNL     1      49.262  42.139  -3.291  1.00  0.00    -0.392 OA
ATOM     52  H5  UNL     1      49.098  41.940  -4.205  1.00  0.00     0.210 HD
ENDBRANCH  50  51
BRANCH  50  53
HETATM   53  C19 UNL     1      48.833  41.342  -1.118  1.00  0.00     0.197 C 
BRANCH  53  54
HETATM   54  O6  UNL     1      47.640  42.003  -0.927  1.00  0.00    -0.398 OA
ATOM     55  H6  UNL     1      47.736  42.947  -0.973  1.00  0.00     0.209 HD
ENDBRANCH  53  54
ENDBRANCH  50  53
ENDBRANCH  49  50
ENDBRANCH  47  49
ENDBRANCH  44  45
ENDBRANCH  42  44
BRANCH  43  56
HETATM   56  N8  UNL     1      48.809  35.796  -6.355  1.00  0.00    -0.234 N 
ATOM     57  H82 UNL     1      48.236  35.401  -7.101  1.00  0.00     0.174 HD
ATOM     58  H81 UNL     1      48.681  35.551  -5.373  1.00  0.00     0.174 HD
ENDBRANCH  43  56
ENDBRANCH  32  33
ENDBRANCH  31  32
ENDBRANCH  30  31
ENDBRANCH  28  30
ENDBRANCH  16  28
ENDBRANCH  14  15
ENDBRANCH  13  14
ENDBRANCH   8  13
TORSDOF 17
ENDMDL
MODEL 3
REMARK VINA RESULT: -8.901663095      3.354      9.631
REMARK  17 active torsions:
REMARK  status: ('A' for Active; 'I' for Inactive)
REMARK    1  A    between atoms: C3_8  and  S1_9 
REMARK    2  A    between atoms: S1_9  and  C4_10 
REMARK    3  A    between atoms: C4_10  and  C5_11 
REMARK    4  A    between atoms: C6_12  and  C7_13 
REMARK    5  A    between atoms: C7_13  and  O2_15 
REMARK    6  A    between atoms: O2_15  and  C8_16 
REMARK    7  A    between atoms: C8_16  and  C9_17 
REMARK    8  A    between atoms: C9_17  and  N4_18 
REMARK    9  A    between atoms: N6_27  and  C15_28 
REMARK   10  A    between atoms: C15_28  and  C16_29 
REMARK       I    between atoms: C16_29  and  N7_31 
REMARK   11  A    between atoms: N7_31  and  C17_33 
REMARK   12  A    between atoms: C17_33  and  C18_34 
REMARK   13  A    between atoms: C18_34  and  O5_35 
REMARK   14  A    between atoms: C18_34  and  C19_37 
REMARK   15  A    between atoms: C19_37  and  O6_38 
REMARK   16  A    between atoms: C20_40  and  N8_41 
REMARK   17  A    between atoms: N11_55  and  N12_56 
ROOT
HETATM    1  N1  UNL     1      42.522  36.587 -13.552  1.00  0.00    -0.188 NA
HETATM    2  C1  UNL     1      43.361  35.981 -12.994  1.00  0.00     0.140 C 
HETATM    3  C2  UNL     1      44.398  35.249 -12.323  1.00  0.00     0.226 A 
HETATM    4  N2  UNL     1      44.195  34.360 -11.333  1.00  0.00    -0.273 N 
ATOM      5  H2  UNL     1      43.293  34.096 -10.936  1.00  0.00     0.189 HD
HETATM    6  N3  UNL     1      45.358  33.902 -10.975  1.00  0.00    -0.276 N 
ATOM      7  H3  UNL     1      45.498  33.209 -10.240  1.00  0.00     0.189 HD
HETATM    8  C3  UNL     1      46.368  34.460 -11.703  1.00  0.00     0.182 A 
HETATM    9  N11 UNL     1      45.730  35.299 -12.537  1.00  0.00    -0.212 N 
ENDROOT
BRANCH   9  10
HETATM   10  N12 UNL     1      46.312  36.154 -13.478  1.00  0.00    -0.334 N 
ATOM     11 2H12 UNL     1      45.865  36.938 -13.954  1.00  0.00     0.177 HD
ATOM     12 1H12 UNL     1      47.271  36.041 -13.805  1.00  0.00     0.177 HD
ENDBRANCH   9  10
BRANCH   8  13
HETATM   13  S1  UNL     1      48.060  34.114 -11.426  1.00  0.00    -0.086 SA
BRANCH  13  14
HETATM   14  C4  UNL     1      48.547  33.450  -9.858  1.00  0.00     0.118 C 
BRANCH  14  15
HETATM   15  C5  UNL     1      49.130  34.442  -8.873  1.00  0.00    -0.045 C 
HETATM   16  C6  UNL     1      50.395  34.632  -8.557  1.00  0.00     0.069 C 
HETATM   17  C21 UNL     1      50.696  35.705  -7.580  1.00  0.00     0.199 C 
HETATM   18  N9  UNL     1      50.683  35.266  -6.228  1.00  0.00    -0.312 N 
HETATM   19  C23 UNL     1      51.906  36.472  -7.810  1.00  0.00     0.270 C 
HETATM   20  S2  UNL     1      49.221  36.797  -7.910  1.00  0.00    -0.118 SA
HETATM   21  C22 UNL     1      51.585  36.104  -5.531  1.00  0.00     0.324 C 
ATOM     22  H9  UNL     1      50.132  34.500  -5.838  1.00  0.00     0.166 HD
HETATM   23  O7  UNL     1      51.693  36.170  -4.281  1.00  0.00    -0.247 OA
HETATM   24  N10 UNL     1      52.348  36.855  -6.484  1.00  0.00    -0.276 N 
ATOM     25  H10 UNL     1      53.074  37.539  -6.267  1.00  0.00     0.173 HD
HETATM   26  O8  UNL     1      52.461  36.759  -8.868  1.00  0.00    -0.269 OA
HETATM   27  C24 UNL     1      48.150  35.317  -8.171  1.00  0.00     0.113 C 
BRANCH  16  28
HETATM   28  C7  UNL     1      51.474  33.822  -9.175  1.00  0.00     0.298 C 
HETATM   29  O1  UNL     1      51.908  33.969 -10.325  1.00  0.00    -0.259 OA
BRANCH  28  30
HETATM   30  O2  UNL     1      52.106  32.772  -8.459  1.00  0.00    -0.286 OA
BRANCH  30  31
HETATM   31  C8  UNL     1      52.458  31.614  -9.170  1.00  0.00     0.164 C 
BRANCH  31  32
HETATM   32  C9  UNL     1      53.847  31.288  -9.382  1.00  0.00     0.143 C 
BRANCH  32  33
HETATM   33  N4  UNL     1      54.378  31.044 -10.668  1.00  0.00    -0.118 N 
HETATM   34  C10 UNL     1      54.916  32.046 -11.437  1.00  0.00     0.295 A 
HETATM   35  O3  UNL     1      54.963  33.212 -10.970  1.00  0.00    -0.265 OA
HETATM   36  C11 UNL     1      55.407  31.826 -12.700  1.00  0.00     0.129 A 
HETATM   37  N5  UNL     1      55.970  32.612 -13.630  1.00  0.00    -0.360 N 
HETATM   38  C14 UNL     1      55.370  30.553 -13.242  1.00  0.00     0.086 A 
HETATM   39  C12 UNL     1      56.288  31.904 -14.721  1.00  0.00     0.091 A 
ATOM     40  H5  UNL     1      56.134  33.612 -13.520  1.00  0.00     0.165 HD
HETATM   41  C13 UNL     1      55.926  30.594 -14.522  1.00  0.00     0.050 A 
HETATM   42  N6  UNL     1      54.841  29.585 -12.478  1.00  0.00    -0.172 N 
HETATM   43  C20 UNL     1      54.359  29.831 -11.225  1.00  0.00     0.688 A 
BRANCH  42  44
HETATM   44  C15 UNL     1      54.783  28.225 -13.016  1.00  0.00     0.250 C 
BRANCH  44  45
HETATM   45  C16 UNL     1      53.420  27.698 -13.151  1.00  0.00     0.236 C 
HETATM   46  O4  UNL     1      52.598  28.393 -13.800  1.00  0.00    -0.272 OA
HETATM   47  N7  UNL     1      52.994  26.478 -12.603  1.00  0.00    -0.357 N 
ATOM     48  H7  UNL     1      53.653  25.905 -12.075  1.00  0.00     0.162 HD
BRANCH  47  49
HETATM   49  C17 UNL     1      51.644  26.028 -12.778  1.00  0.00     0.156 C 
BRANCH  49  50
HETATM   50  C18 UNL     1      50.847  26.064 -11.496  1.00  0.00     0.159 C 
BRANCH  50  51
HETATM   51  O5  UNL     1      51.735  26.337 -10.467  1.00  0.00    -0.392 OA
ATOM     52  H5  UNL     1      52.195  25.530 -10.270  1.00  0.00     0.210 HD
ENDBRANCH  50  51
BRANCH  50  53
HETATM   53  C19 UNL     1      49.866  27.220 -11.593  1.00  0.00     0.197 C 
BRANCH  53  54
HETATM   54  O6  UNL     1      50.496  28.432 -11.769  1.00  0.00    -0.398 OA
ATOM     55  H6  UNL     1      50.837  28.540 -12.649  1.00  0.00     0.209 HD
ENDBRANCH  53  54
ENDBRANCH  50  53
ENDBRANCH  49  50
ENDBRANCH  47  49
ENDBRANCH  44  45
ENDBRANCH  42  44
BRANCH  43  56
HETATM   56  N8  UNL     1      53.888  28.794 -10.642  1.00  0.00    -0.234 N 
ATOM     57  H82 UNL     1      54.424  27.944 -10.819  1.00  0.00     0.174 HD
ATOM     58  H81 UNL     1      53.053  28.808 -10.056  1.00  0.00     0.174 HD
ENDBRANCH  43  56
ENDBRANCH  32  33
ENDBRANCH  31  32
ENDBRANCH  30  31
ENDBRANCH  28  30
ENDBRANCH  16  28
ENDBRANCH  14  15
ENDBRANCH  13  14
ENDBRANCH   8  13
TORSDOF 17
ENDMDL
MODEL 4
REMARK VINA RESULT: -8.763385946      1.195      1.301
REMARK  17 active torsions:
REMARK  status: ('A' for Active; 'I' for Inactive)
REMARK    1  A    between atoms: C3_8  and  S1_9 
REMARK    2  A    between atoms: S1_9  and  C4_10 
REMARK    3  A    between atoms: C4_10  and  C5_11 
REMARK    4  A    between atoms: C6_12  and  C7_13 
REMARK    5  A    between atoms: C7_13  and  O2_15 
REMARK    6  A    between atoms: O2_15  and  C8_16 
REMARK    7  A    between atoms: C8_16  and  C9_17 
REMARK    8  A    between atoms: C9_17  and  N4_18 
REMARK    9  A    between atoms: N6_27  and  C15_28 
REMARK   10  A    between atoms: C15_28  and  C16_29 
REMARK       I    between atoms: C16_29  and  N7_31 
REMARK   11  A    between atoms: N7_31  and  C17_33 
REMARK   12  A    between atoms: C17_33  and  C18_34 
REMARK   13  A    between atoms: C18_34  and  O5_35 
REMARK   14  A    between atoms: C18_34  and  C19_37 
REMARK   15  A    between atoms: C19_37  and  O6_38 
REMARK   16  A    between atoms: C20_40  and  N8_41 
REMARK   17  A    between atoms: N11_55  and  N12_56 
ROOT
HETATM    1  N1  UNL     1      44.411  36.958 -12.925  1.00  0.00    -0.188 NA
HETATM    2  C1  UNL     1      45.124  36.186 -12.397  1.00  0.00     0.140 C 
HETATM    3  C2  UNL     1      46.004  35.244 -11.766  1.00  0.00     0.226 A 
HETATM    4  N2  UNL     1      45.856  34.771 -10.515  1.00  0.00    -0.273 N 
ATOM      5  H2  UNL     1      45.112  35.017  -9.861  1.00  0.00     0.189 HD
HETATM    6  N3  UNL     1      46.834  33.944 -10.291  1.00  0.00    -0.276 N 
ATOM      7  H3  UNL     1      46.967  33.438  -9.415  1.00  0.00     0.189 HD
HETATM    8  C3  UNL     1      47.662  33.836 -11.371  1.00  0.00     0.182 A 
HETATM    9  N11 UNL     1      47.112  34.664 -12.275  1.00  0.00    -0.212 N 
ENDROOT
BRANCH   9  10
HETATM   10  N12 UNL     1      47.596  34.954 -13.554  1.00  0.00    -0.334 N 
ATOM     11 2H12 UNL     1      47.757  35.878 -13.954  1.00  0.00     0.177 HD
ATOM     12 1H12 UNL     1      47.811  34.229 -14.239  1.00  0.00     0.177 HD
ENDBRANCH   9  10
BRANCH   8  13
HETATM   13  S1  UNL     1      49.115  32.860 -11.377  1.00  0.00    -0.086 SA
BRANCH  13  14
HETATM   14  C4  UNL     1      49.356  31.686 -10.072  1.00  0.00     0.118 C 
BRANCH  14  15
HETATM   15  C5  UNL     1      50.669  30.930 -10.099  1.00  0.00    -0.045 C 
HETATM   16  C6  UNL     1      51.878  31.384  -9.840  1.00  0.00     0.069 C 
HETATM   17  C21 UNL     1      52.995  30.413  -9.905  1.00  0.00     0.199 C 
HETATM   18  N9  UNL     1      53.583  30.303 -11.195  1.00  0.00    -0.312 N 
HETATM   19  C23 UNL     1      54.051  30.570  -8.923  1.00  0.00     0.270 C 
HETATM   20  S2  UNL     1      52.034  28.864  -9.510  1.00  0.00    -0.118 SA
HETATM   21  C22 UNL     1      54.933  29.937 -10.985  1.00  0.00     0.324 C 
ATOM     22  H9  UNL     1      53.123  30.458 -12.093  1.00  0.00     0.166 HD
HETATM   23  O7  UNL     1      55.723  29.541 -11.879  1.00  0.00    -0.247 OA
HETATM   24  N10 UNL     1      55.244  30.092  -9.595  1.00  0.00    -0.276 N 
ATOM     25  H10 UNL     1      56.144  29.901  -9.156  1.00  0.00     0.173 HD
HETATM   26  O8  UNL     1      53.993  31.001  -7.774  1.00  0.00    -0.269 OA
HETATM   27  C24 UNL     1      50.584  29.489 -10.464  1.00  0.00     0.113 C 
BRANCH  16  28
HETATM   28  C7  UNL     1      52.107  32.804  -9.473  1.00  0.00     0.298 C 
HETATM   29  O1  UNL     1      52.577  33.668 -10.222  1.00  0.00    -0.259 OA
BRANCH  28  30
HETATM   30  O2  UNL     1      51.793  33.285  -8.175  1.00  0.00    -0.286 OA
BRANCH  30  31
HETATM   31  C8  UNL     1      51.098  34.502  -8.079  1.00  0.00     0.164 C 
BRANCH  31  32
HETATM   32  C9  UNL     1      51.153  35.273  -6.862  1.00  0.00     0.143 C 
BRANCH  32  33
HETATM   33  N4  UNL     1      50.659  36.595  -6.783  1.00  0.00    -0.118 N 
HETATM   34  C10 UNL     1      51.245  37.634  -7.462  1.00  0.00     0.295 A 
HETATM   35  O3  UNL     1      52.235  37.396  -8.200  1.00  0.00    -0.265 OA
HETATM   36  C11 UNL     1      50.793  38.927  -7.369  1.00  0.00     0.129 A 
HETATM   37  N5  UNL     1      51.177  40.089  -7.916  1.00  0.00    -0.360 N 
HETATM   38  C14 UNL     1      49.706  39.220  -6.565  1.00  0.00     0.086 A 
HETATM   39  C12 UNL     1      50.392  41.092  -7.502  1.00  0.00     0.091 A 
ATOM     40  H5  UNL     1      51.960  40.194  -8.561  1.00  0.00     0.165 HD
HETATM   41  C13 UNL     1      49.445  40.589  -6.644  1.00  0.00     0.050 A 
HETATM   42  N6  UNL     1      49.144  38.193  -5.907  1.00  0.00    -0.172 N 
HETATM   43  C20 UNL     1      49.613  36.917  -6.018  1.00  0.00     0.688 A 
BRANCH  42  44
HETATM   44  C15 UNL     1      47.992  38.463  -5.046  1.00  0.00     0.250 C 
BRANCH  44  45
HETATM   45  C16 UNL     1      48.154  39.644  -4.190  1.00  0.00     0.236 C 
HETATM   46  O4  UNL     1      47.257  40.523  -4.251  1.00  0.00    -0.272 OA
HETATM   47  N7  UNL     1      49.239  39.839  -3.321  1.00  0.00    -0.357 N 
ATOM     48  H7  UNL     1      49.972  39.133  -3.264  1.00  0.00     0.162 HD
BRANCH  47  49
HETATM   49  C17 UNL     1      49.328  41.021  -2.515  1.00  0.00     0.156 C 
BRANCH  49  50
HETATM   50  C18 UNL     1      50.027  40.779  -1.199  1.00  0.00     0.159 C 
BRANCH  50  51
HETATM   51  O5  UNL     1      51.168  40.040  -1.469  1.00  0.00    -0.392 OA
ATOM     52  H5  UNL     1      51.913  40.618  -1.353  1.00  0.00     0.210 HD
ENDBRANCH  50  51
BRANCH  50  53
HETATM   53  C19 UNL     1      50.456  42.128  -0.648  1.00  0.00     0.197 C 
BRANCH  53  54
HETATM   54  O6  UNL     1      51.790  42.389  -0.874  1.00  0.00    -0.398 OA
ATOM     55  H6  UNL     1      52.260  42.597  -0.075  1.00  0.00     0.209 HD
ENDBRANCH  53  54
ENDBRANCH  50  53
ENDBRANCH  49  50
ENDBRANCH  47  49
ENDBRANCH  44  45
ENDBRANCH  42  44
BRANCH  43  56
HETATM   56  N8  UNL     1      48.962  36.066  -5.319  1.00  0.00    -0.234 N 
ATOM     57  H82 UNL     1      48.875  35.152  -5.761  1.00  0.00     0.174 HD
ATOM     58  H81 UNL     1      48.562  36.278  -4.404  1.00  0.00     0.174 HD
ENDBRANCH  43  56
ENDBRANCH  32  33
ENDBRANCH  31  32
ENDBRANCH  30  31
ENDBRANCH  28  30
ENDBRANCH  16  28
ENDBRANCH  14  15
ENDBRANCH  13  14
ENDBRANCH   8  13
TORSDOF 17
ENDMDL
MODEL 5
REMARK VINA RESULT: -8.580593034      3.307     10.203
REMARK  17 active torsions:
REMARK  status: ('A' for Active; 'I' for Inactive)
REMARK    1  A    between atoms: C3_8  and  S1_9 
REMARK    2  A    between atoms: S1_9  and  C4_10 
REMARK    3  A    between atoms: C4_10  and  C5_11 
REMARK    4  A    between atoms: C6_12  and  C7_13 
REMARK    5  A    between atoms: C7_13  and  O2_15 
REMARK    6  A    between atoms: O2_15  and  C8_16 
REMARK    7  A    between atoms: C8_16  and  C9_17 
REMARK    8  A    between atoms: C9_17  and  N4_18 
REMARK    9  A    between atoms: N6_27  and  C15_28 
REMARK   10  A    between atoms: C15_28  and  C16_29 
REMARK       I    between atoms: C16_29  and  N7_31 
REMARK   11  A    between atoms: N7_31  and  C17_33 
REMARK   12  A    between atoms: C17_33  and  C18_34 
REMARK   13  A    between atoms: C18_34  and  O5_35 
REMARK   14  A    between atoms: C18_34  and  C19_37 
REMARK   15  A    between atoms: C19_37  and  O6_38 
REMARK   16  A    between atoms: C20_40  and  N8_41 
REMARK   17  A    between atoms: N11_55  and  N12_56 
ROOT
HETATM    1  N1  UNL     1      43.115  36.081 -14.561  1.00  0.00    -0.188 NA
HETATM    2  C1  UNL     1      44.014  35.871 -13.832  1.00  0.00     0.140 C 
HETATM    3  C2  UNL     1      45.100  35.605 -12.932  1.00  0.00     0.226 A 
HETATM    4  N2  UNL     1      46.353  36.075 -13.079  1.00  0.00    -0.273 N 
ATOM      5  H2  UNL     1      46.689  36.670 -13.836  1.00  0.00     0.189 HD
HETATM    6  N3  UNL     1      47.056  35.631 -12.079  1.00  0.00    -0.276 N 
ATOM      7  H3  UNL     1      48.046  35.835 -11.939  1.00  0.00     0.189 HD
HETATM    8  C3  UNL     1      46.309  34.857 -11.238  1.00  0.00     0.182 A 
HETATM    9  N11 UNL     1      45.089  34.863 -11.804  1.00  0.00    -0.212 N 
ENDROOT
BRANCH   9  10
HETATM   10  N12 UNL     1      43.952  34.184 -11.358  1.00  0.00    -0.334 N 
ATOM     11 2H12 UNL     1      43.418  34.372 -10.509  1.00  0.00     0.177 HD
ATOM     12 1H12 UNL     1      43.559  33.383 -11.853  1.00  0.00     0.177 HD
ENDBRANCH   9  10
BRANCH   8  13
HETATM   13  S1  UNL     1      46.967  34.048  -9.834  1.00  0.00    -0.086 SA
BRANCH  13  14
HETATM   14  C4  UNL     1      48.726  33.936  -9.663  1.00  0.00     0.118 C 
BRANCH  14  15
HETATM   15  C5  UNL     1      49.354  34.886  -8.663  1.00  0.00    -0.045 C 
HETATM   16  C6  UNL     1      50.623  34.994  -8.326  1.00  0.00     0.069 C 
HETATM   17  C21 UNL     1      50.975  36.042  -7.339  1.00  0.00     0.199 C 
HETATM   18  N9  UNL     1      50.912  35.599  -5.989  1.00  0.00    -0.312 N 
HETATM   19  C23 UNL     1      52.233  36.733  -7.545  1.00  0.00     0.270 C 
HETATM   20  S2  UNL     1      49.576  37.226  -7.686  1.00  0.00    -0.118 SA
HETATM   21  C22 UNL     1      51.853  36.375  -5.273  1.00  0.00     0.324 C 
ATOM     22  H9  UNL     1      50.308  34.867  -5.612  1.00  0.00     0.166 HD
HETATM   23  O7  UNL     1      51.945  36.428  -4.021  1.00  0.00    -0.247 OA
HETATM   24  N10 UNL     1      52.677  37.082  -6.209  1.00  0.00    -0.276 N 
ATOM     25  H10 UNL     1      53.440  37.717  -5.977  1.00  0.00     0.173 HD
HETATM   26  O8  UNL     1      52.823  36.989  -8.592  1.00  0.00    -0.269 OA
HETATM   27  C24 UNL     1      48.419  35.817  -7.972  1.00  0.00     0.113 C 
BRANCH  16  28
HETATM   28  C7  UNL     1      51.659  34.122  -8.932  1.00  0.00     0.298 C 
HETATM   29  O1  UNL     1      52.129  34.254 -10.069  1.00  0.00    -0.259 OA
BRANCH  28  30
HETATM   30  O2  UNL     1      52.202  33.022  -8.216  1.00  0.00    -0.286 OA
BRANCH  30  31
HETATM   31  C8  UNL     1      52.586  31.889  -8.951  1.00  0.00     0.164 C 
BRANCH  31  32
HETATM   32  C9  UNL     1      52.778  30.625  -8.284  1.00  0.00     0.143 C 
BRANCH  32  33
HETATM   33  N4  UNL     1      53.165  29.456  -8.978  1.00  0.00    -0.118 N 
HETATM   34  C10 UNL     1      54.478  29.181  -9.267  1.00  0.00     0.295 A 
HETATM   35  O3  UNL     1      55.367  29.981  -8.878  1.00  0.00    -0.265 OA
HETATM   36  C11 UNL     1      54.863  28.064  -9.967  1.00  0.00     0.129 A 
HETATM   37  N5  UNL     1      56.047  27.579 -10.366  1.00  0.00    -0.360 N 
HETATM   38  C14 UNL     1      53.909  27.165 -10.409  1.00  0.00     0.086 A 
HETATM   39  C12 UNL     1      55.889  26.427 -11.032  1.00  0.00     0.091 A 
ATOM     40  H5  UNL     1      56.946  28.025 -10.187  1.00  0.00     0.165 HD
HETATM   41  C13 UNL     1      54.550  26.125 -11.083  1.00  0.00     0.050 A 
HETATM   42  N6  UNL     1      52.629  27.448 -10.117  1.00  0.00    -0.172 N 
HETATM   43  C20 UNL     1      52.274  28.566  -9.420  1.00  0.00     0.688 A 
BRANCH  42  44
HETATM   44  C15 UNL     1      51.590  26.522 -10.569  1.00  0.00     0.250 C 
BRANCH  44  45
HETATM   45  C16 UNL     1      51.032  26.851 -11.886  1.00  0.00     0.236 C 
HETATM   46  O4  UNL     1      49.928  27.453 -11.906  1.00  0.00    -0.272 OA
HETATM   47  N7  UNL     1      51.656  26.533 -13.102  1.00  0.00    -0.357 N 
ATOM     48  H7  UNL     1      52.551  26.045 -13.097  1.00  0.00     0.162 HD
BRANCH  47  49
HETATM   49  C17 UNL     1      51.048  26.888 -14.351  1.00  0.00     0.156 C 
BRANCH  49  50
HETATM   50  C18 UNL     1      52.033  27.472 -15.335  1.00  0.00     0.159 C 
BRANCH  50  51
HETATM   51  O5  UNL     1      51.602  28.755 -15.636  1.00  0.00    -0.392 OA
ATOM     52  H5  UNL     1      52.158  29.083 -16.333  1.00  0.00     0.210 HD
ENDBRANCH  50  51
BRANCH  50  53
HETATM   53  C19 UNL     1      53.378  27.576 -14.637  1.00  0.00     0.197 C 
BRANCH  53  54
HETATM   54  O6  UNL     1      53.542  28.780 -13.988  1.00  0.00    -0.398 OA
ATOM     55  H6  UNL     1      53.511  28.690 -13.042  1.00  0.00     0.209 HD
ENDBRANCH  53  54
ENDBRANCH  50  53
ENDBRANCH  49  50
ENDBRANCH  47  49
ENDBRANCH  44  45
ENDBRANCH  42  44
BRANCH  43  56
HETATM   56  N8  UNL     1      51.012  28.679  -9.237  1.00  0.00    -0.234 N 
ATOM     57  H82 UNL     1      50.452  28.333 -10.016  1.00  0.00     0.174 HD
ATOM     58  H81 UNL     1      50.599  29.081  -8.395  1.00  0.00     0.174 HD
ENDBRANCH  43  56
ENDBRANCH  32  33
ENDBRANCH  31  32
ENDBRANCH  30  31
ENDBRANCH  28  30
ENDBRANCH  16  28
ENDBRANCH  14  15
ENDBRANCH  13  14
ENDBRANCH   8  13
TORSDOF 17
ENDMDL
