MODEL 1
REMARK VINA RESULT: -9.671698440      0.000      0.000
REMARK  16 active torsions:
REMARK  status: ('A' for Active; 'I' for Inactive)
REMARK       I    between atoms: C2_2  and  N1_4 
REMARK    1  A    between atoms: N1_4  and  C3_6 
REMARK    2  A    between atoms: C3_6  and  C4_7 
REMARK    3  A    between atoms: C3_6  and  C25_54 
REMARK    4  A    between atoms: C4_7  and  N2_8 
REMARK    5  A    between atoms: C5_13  and  C6_14 
REMARK    6  A    between atoms: C6_14  and  C7_16 
REMARK    7  A    between atoms: C11_24  and  O5_25 
REMARK    8  A    between atoms: N7_31  and  C14_32 
REMARK    9  A    between atoms: C14_32  and  C15_33 
REMARK   10  A    between atoms: C15_33  and  C16_35 
REMARK   11  A    between atoms: C16_35  and  N8_36 
REMARK   12  A    between atoms: C16_35  and  C22_45 
REMARK       I    between atoms: N8_36  and  C17_38 
REMARK   13  A    between atoms: C17_38  and  O8_40 
REMARK   14  A    between atoms: O8_40  and  C18_41 
REMARK   15  A    between atoms: C23_48  and  O11_49 
REMARK   16  A    between atoms: C24_51  and  O12_52 
ROOT
HETATM    1  C7  UNL     1      47.824  34.724  -9.864  1.00  0.00     0.135 C 
HETATM    2  N5  UNL     1      47.177  35.364  -8.963  1.00  0.00    -0.259 N 
ATOM      3  H5  UNL     1      46.220  35.632  -9.189  1.00  0.00     0.194 HD
HETATM    4  O3  UNL     1      47.633  35.714  -7.755  1.00  0.00    -0.258 OA
HETATM    5  C8  UNL     1      48.966  35.516  -7.361  1.00  0.00     0.171 C 
HETATM    6  C9  UNL     1      48.924  34.861  -6.006  1.00  0.00     0.216 C 
HETATM    7  O4  UNL     1      49.749  35.519  -5.145  1.00  0.00    -0.385 OA
HETATM    8  C10 UNL     1      50.017  36.763  -5.626  1.00  0.00     0.203 C 
HETATM    9  C11 UNL     1      49.634  36.849  -7.052  1.00  0.00     0.186 C 
HETATM   10  C12 UNL     1      49.756  34.732  -8.316  1.00  0.00     0.066 A 
HETATM   11  C13 UNL     1      49.237  34.366  -9.527  1.00  0.00     0.095 A 
HETATM   12  N6  UNL     1      50.144  33.682 -10.239  1.00  0.00    -0.293 N 
ATOM     13  H6  UNL     1      50.006  33.299 -11.174  1.00  0.00     0.187 HD
HETATM   14  N7  UNL     1      51.260  33.589  -9.508  1.00  0.00    -0.263 N 
HETATM   15  C23 UNL     1      51.057  34.222  -8.323  1.00  0.00     0.169 A 
ENDROOT
BRANCH   1  16
HETATM   16  C6  UNL     1      47.341  34.342 -11.168  1.00  0.00     0.235 C 
HETATM   17  O2  UNL     1      48.157  33.691 -11.941  1.00  0.00    -0.283 OA
BRANCH  16  18
HETATM   18  C5  UNL     1      46.021  34.626 -11.677  1.00  0.00     0.154 A 
HETATM   19  N4  UNL     1      44.880  34.009 -11.156  1.00  0.00    -0.278 N 
HETATM   20  N3  UNL     1      43.829  34.438 -11.803  1.00  0.00    -0.238 N 
ATOM     21  H4  UNL     1      44.870  33.332 -10.393  1.00  0.00     0.189 HD
HETATM   22  N2  UNL     1      44.144  35.300 -12.726  1.00  0.00    -0.252 N 
ATOM     23  H3  UNL     1      42.875  34.135 -11.608  1.00  0.00     0.208 HD
HETATM   24  C24 UNL     1      45.514  35.419 -12.649  1.00  0.00     0.191 A 
BRANCH  22  25
HETATM   25  C4  UNL     1      43.347  36.032 -13.665  1.00  0.00     0.187 C 
BRANCH  25  26
HETATM   26  C3  UNL     1      42.142  35.317 -14.165  1.00  0.00     0.193 C 
BRANCH  26  27
HETATM   27  N1  UNL     1      42.028  35.189 -15.581  1.00  0.00    -0.347 N 
HETATM   28  C2  UNL     1      41.455  34.038 -16.193  1.00  0.00     0.214 C 
HETATM   29  C1  UNL     1      41.337  33.905 -17.650  1.00  0.00     0.117 C 
HETATM   30  O1  UNL     1      41.031  33.091 -15.477  1.00  0.00    -0.274 OA
ATOM     31  H1  UNL     1      42.368  35.947 -16.173  1.00  0.00     0.163 HD
ENDBRANCH  26  27
BRANCH  26  32
HETATM   32  C25 UNL     1      40.911  35.916 -13.550  1.00  0.00     0.255 C 
HETATM   33  N9  UNL     1      40.530  35.508 -12.245  1.00  0.00    -0.060 NA
HETATM   34  O13 UNL     1      40.211  36.763 -14.152  1.00  0.00    -0.275 OA
ENDBRANCH  26  32
ENDBRANCH  25  26
ENDBRANCH  22  25
BRANCH  24  35
HETATM   35  O12 UNL     1      46.213  36.273 -13.506  1.00  0.00    -0.343 OA
ATOM     36  H12 UNL     1      47.070  36.608 -13.271  1.00  0.00     0.219 HD
ENDBRANCH  24  35
ENDBRANCH  16  18
ENDBRANCH   1  16
BRANCH  15  37
HETATM   37  O11 UNL     1      51.914  34.390  -7.251  1.00  0.00    -0.344 OA
ATOM     38  H11 UNL     1      52.825  34.122  -7.289  1.00  0.00     0.219 HD
ENDBRANCH  15  37
BRANCH  14  39
HETATM   39  C14 UNL     1      52.475  32.946  -9.872  1.00  0.00     0.232 C 
BRANCH  39  40
HETATM   40  C15 UNL     1      52.715  31.666  -9.210  1.00  0.00     0.179 C 
HETATM   41  O6  UNL     1      52.971  31.695  -7.984  1.00  0.00    -0.293 OA
BRANCH  40  42
HETATM   42  C16 UNL     1      52.685  30.345  -9.889  1.00  0.00     0.259 C 
BRANCH  42  43
HETATM   43  N8  UNL     1      53.481  29.409  -9.075  1.00  0.00    -0.316 N 
HETATM   44  C17 UNL     1      54.844  29.186  -9.335  1.00  0.00     0.362 C 
HETATM   45  O7  UNL     1      55.459  29.784 -10.283  1.00  0.00    -0.238 OA
ATOM     46  H8  UNL     1      53.032  28.911  -8.307  1.00  0.00     0.166 HD
BRANCH  44  47
HETATM   47  O8  UNL     1      55.570  28.310  -8.571  1.00  0.00    -0.294 OA
BRANCH  47  48
HETATM   48  C18 UNL     1      56.101  28.609  -7.301  1.00  0.00     0.061 C 
HETATM   49  C19 UNL     1      56.270  30.107  -7.104  1.00  0.00     0.046 C 
HETATM   50  C20 UNL     1      55.242  28.112  -6.161  1.00  0.00     0.046 C 
HETATM   51  C21 UNL     1      57.474  27.986  -7.211  1.00  0.00     0.046 C 
ENDBRANCH  47  48
ENDBRANCH  44  47
ENDBRANCH  42  43
BRANCH  42  52
HETATM   52  C22 UNL     1      51.302  29.777  -9.845  1.00  0.00     0.204 C 
HETATM   53  O9  UNL     1      51.071  28.584  -9.438  1.00  0.00    -0.646 OA
HETATM   54  O10 UNL     1      50.194  30.482 -10.230  1.00  0.00    -0.646 OA
ENDBRANCH  42  52
ENDBRANCH  40  42
ENDBRANCH  39  40
ENDBRANCH  14  39
BRANCH   9  55
HETATM   55  O5  UNL     1      48.712  37.861  -7.303  1.00  0.00    -0.390 OA
ATOM     56  H5  UNL     1      49.156  38.549  -7.785  1.00  0.00     0.210 HD
ENDBRANCH   9  55
TORSDOF 16
ENDMDL
MODEL 2
REMARK VINA RESULT: -9.661245699      0.988      1.137
REMARK  16 active torsions:
REMARK  status: ('A' for Active; 'I' for Inactive)
REMARK       I    between atoms: C2_2  and  N1_4 
REMARK    1  A    between atoms: N1_4  and  C3_6 
REMARK    2  A    between atoms: C3_6  and  C4_7 
REMARK    3  A    between atoms: C3_6  and  C25_54 
REMARK    4  A    between atoms: C4_7  and  N2_8 
REMARK    5  A    between atoms: C5_13  and  C6_14 
REMARK    6  A    between atoms: C6_14  and  C7_16 
REMARK    7  A    between atoms: C11_24  and  O5_25 
REMARK    8  A    between atoms: N7_31  and  C14_32 
REMARK    9  A    between atoms: C14_32  and  C15_33 
REMARK   10  A    between atoms: C15_33  and  C16_35 
REMARK   11  A    between atoms: C16_35  and  N8_36 
REMARK   12  A    between atoms: C16_35  and  C22_45 
REMARK       I    between atoms: N8_36  and  C17_38 
REMARK   13  A    between atoms: C17_38  and  O8_40 
REMARK   14  A    between atoms: O8_40  and  C18_41 
REMARK   15  A    between atoms: C23_48  and  O11_49 
REMARK   16  A    between atoms: C24_51  and  O12_52 
ROOT
HETATM    1  C7  UNL     1      48.009  34.922  -9.907  1.00  0.00     0.135 C 
HETATM    2  N5  UNL     1      47.385  35.591  -9.011  1.00  0.00    -0.259 N 
ATOM      3  H5  UNL     1      46.455  35.930  -9.255  1.00  0.00     0.194 HD
HETATM    4  O3  UNL     1      47.834  35.889  -7.787  1.00  0.00    -0.258 OA
HETATM    5  C8  UNL     1      49.139  35.592  -7.364  1.00  0.00     0.171 C 
HETATM    6  C9  UNL     1      49.017  34.920  -6.023  1.00  0.00     0.216 C 
HETATM    7  O4  UNL     1      49.863  35.505  -5.130  1.00  0.00    -0.385 OA
HETATM    8  C10 UNL     1      50.229  36.735  -5.582  1.00  0.00     0.203 C 
HETATM    9  C11 UNL     1      49.890  36.870  -7.014  1.00  0.00     0.186 C 
HETATM   10  C12 UNL     1      49.897  34.771  -8.314  1.00  0.00     0.066 A 
HETATM   11  C13 UNL     1      49.385  34.461  -9.543  1.00  0.00     0.095 A 
HETATM   12  N6  UNL     1      50.259  33.727 -10.244  1.00  0.00    -0.293 N 
ATOM     13  H6  UNL     1      50.120  33.370 -11.189  1.00  0.00     0.187 HD
HETATM   14  N7  UNL     1      51.348  33.545  -9.489  1.00  0.00    -0.263 N 
HETATM   15  C23 UNL     1      51.159  34.171  -8.298  1.00  0.00     0.169 A 
ENDROOT
BRANCH   1  16
HETATM   16  C6  UNL     1      47.534  34.596 -11.229  1.00  0.00     0.235 C 
HETATM   17  O2  UNL     1      48.423  34.291 -12.126  1.00  0.00    -0.283 OA
BRANCH  16  18
HETATM   18  C5  UNL     1      46.147  34.580 -11.630  1.00  0.00     0.154 A 
HETATM   19  N4  UNL     1      45.206  33.763 -10.998  1.00  0.00    -0.278 N 
HETATM   20  N3  UNL     1      44.040  33.940 -11.562  1.00  0.00    -0.238 N 
ATOM     21  H4  UNL     1      45.398  33.130 -10.221  1.00  0.00     0.189 HD
HETATM   22  N2  UNL     1      44.093  34.809 -12.529  1.00  0.00    -0.252 N 
ATOM     23  H3  UNL     1      43.189  33.454 -11.279  1.00  0.00     0.208 HD
HETATM   24  C24 UNL     1      45.410  35.211 -12.573  1.00  0.00     0.191 A 
BRANCH  22  25
HETATM   25  C4  UNL     1      43.089  35.322 -13.413  1.00  0.00     0.187 C 
BRANCH  25  26
HETATM   26  C3  UNL     1      41.757  34.667 -13.304  1.00  0.00     0.193 C 
BRANCH  26  27
HETATM   27  N1  UNL     1      41.389  33.808 -14.381  1.00  0.00    -0.347 N 
HETATM   28  C2  UNL     1      40.633  32.619 -14.175  1.00  0.00     0.214 C 
HETATM   29  C1  UNL     1      40.252  31.733 -15.281  1.00  0.00     0.117 C 
HETATM   30  O1  UNL     1      40.269  32.299 -13.010  1.00  0.00    -0.274 OA
ATOM     31  H1  UNL     1      41.677  34.053 -15.328  1.00  0.00     0.163 HD
ENDBRANCH  26  27
BRANCH  26  32
HETATM   32  C25 UNL     1      40.710  35.706 -13.025  1.00  0.00     0.255 C 
HETATM   33  N9  UNL     1      40.363  36.623 -14.051  1.00  0.00    -0.060 NA
HETATM   34  O13 UNL     1      40.135  35.788 -11.914  1.00  0.00    -0.275 OA
ENDBRANCH  26  32
ENDBRANCH  25  26
ENDBRANCH  22  25
BRANCH  24  35
HETATM   35  O12 UNL     1      45.846  36.155 -13.507  1.00  0.00    -0.343 OA
ATOM     36  H12 UNL     1      46.517  35.941 -14.143  1.00  0.00     0.219 HD
ENDBRANCH  24  35
ENDBRANCH  16  18
ENDBRANCH   1  16
BRANCH  15  37
HETATM   37  O11 UNL     1      51.998  34.261  -7.202  1.00  0.00    -0.344 OA
ATOM     38  H11 UNL     1      52.852  33.846  -7.188  1.00  0.00     0.219 HD
ENDBRANCH  15  37
BRANCH  14  39
HETATM   39  C14 UNL     1      52.524  32.824  -9.834  1.00  0.00     0.232 C 
BRANCH  39  40
HETATM   40  C15 UNL     1      52.652  31.515  -9.199  1.00  0.00     0.179 C 
HETATM   41  O6  UNL     1      52.813  31.496  -7.957  1.00  0.00    -0.293 OA
BRANCH  40  42
HETATM   42  C16 UNL     1      52.613  30.218  -9.922  1.00  0.00     0.259 C 
BRANCH  42  43
HETATM   43  N8  UNL     1      53.326  29.227  -9.096  1.00  0.00    -0.316 N 
HETATM   44  C17 UNL     1      54.697  28.973  -9.274  1.00  0.00     0.362 C 
HETATM   45  O7  UNL     1      55.391  29.588 -10.155  1.00  0.00    -0.238 OA
ATOM     46  H8  UNL     1      52.813  28.714  -8.379  1.00  0.00     0.166 HD
BRANCH  44  47
HETATM   47  O8  UNL     1      55.346  28.047  -8.500  1.00  0.00    -0.294 OA
BRANCH  47  48
HETATM   48  C18 UNL     1      55.967  28.331  -7.268  1.00  0.00     0.061 C 
HETATM   49  C19 UNL     1      57.443  27.969  -7.290  1.00  0.00     0.046 C 
HETATM   50  C20 UNL     1      55.880  29.788  -6.876  1.00  0.00     0.046 C 
HETATM   51  C21 UNL     1      55.310  27.479  -6.207  1.00  0.00     0.046 C 
ENDBRANCH  47  48
ENDBRANCH  44  47
ENDBRANCH  42  43
BRANCH  42  52
HETATM   52  C22 UNL     1      51.210  29.702  -9.975  1.00  0.00     0.204 C 
HETATM   53  O9  UNL     1      50.933  28.468  -9.768  1.00  0.00    -0.646 OA
HETATM   54  O10 UNL     1      50.132  30.500 -10.244  1.00  0.00    -0.646 OA
ENDBRANCH  42  52
ENDBRANCH  40  42
ENDBRANCH  39  40
ENDBRANCH  14  39
BRANCH   9  55
HETATM   55  O5  UNL     1      49.047  37.948  -7.270  1.00  0.00    -0.390 OA
ATOM     56  H5  UNL     1      48.207  37.766  -6.866  1.00  0.00     0.210 HD
ENDBRANCH   9  55
TORSDOF 16
ENDMDL
MODEL 3
REMARK VINA RESULT: -9.588658094      1.750      2.934
REMARK  16 active torsions:
REMARK  status: ('A' for Active; 'I' for Inactive)
REMARK       I    between atoms: C2_2  and  N1_4 
REMARK    1  A    between atoms: N1_4  and  C3_6 
REMARK    2  A    between atoms: C3_6  and  C4_7 
REMARK    3  A    between atoms: C3_6  and  C25_54 
REMARK    4  A    between atoms: C4_7  and  N2_8 
REMARK    5  A    between atoms: C5_13  and  C6_14 
REMARK    6  A    between atoms: C6_14  and  C7_16 
REMARK    7  A    between atoms: C11_24  and  O5_25 
REMARK    8  A    between atoms: N7_31  and  C14_32 
REMARK    9  A    between atoms: C14_32  and  C15_33 
REMARK   10  A    between atoms: C15_33  and  C16_35 
REMARK   11  A    between atoms: C16_35  and  N8_36 
REMARK   12  A    between atoms: C16_35  and  C22_45 
REMARK       I    between atoms: N8_36  and  C17_38 
REMARK   13  A    between atoms: C17_38  and  O8_40 
REMARK   14  A    between atoms: O8_40  and  C18_41 
REMARK   15  A    between atoms: C23_48  and  O11_49 
REMARK   16  A    between atoms: C24_51  and  O12_52 
ROOT
HETATM    1  C7  UNL     1      48.092  34.906  -9.978  1.00  0.00     0.135 C 
HETATM    2  N5  UNL     1      47.542  35.653  -9.097  1.00  0.00    -0.259 N 
ATOM      3  H5  UNL     1      46.638  36.060  -9.338  1.00  0.00     0.194 HD
HETATM    4  O3  UNL     1      48.035  35.954  -7.890  1.00  0.00    -0.258 OA
HETATM    5  C8  UNL     1      49.319  35.565  -7.477  1.00  0.00     0.171 C 
HETATM    6  C9  UNL     1      49.166  34.950  -6.112  1.00  0.00     0.216 C 
HETATM    7  O4  UNL     1      50.074  35.494  -5.253  1.00  0.00    -0.385 OA
HETATM    8  C10 UNL     1      50.531  36.673  -5.753  1.00  0.00     0.203 C 
HETATM    9  C11 UNL     1      50.178  36.788  -7.184  1.00  0.00     0.186 C 
HETATM   10  C12 UNL     1      49.989  34.652  -8.409  1.00  0.00     0.066 A 
HETATM   11  C13 UNL     1      49.431  34.346  -9.619  1.00  0.00     0.095 A 
HETATM   12  N6  UNL     1      50.230  33.518 -10.308  1.00  0.00    -0.293 N 
ATOM     13  H6  UNL     1      50.045  33.143 -11.237  1.00  0.00     0.187 HD
HETATM   14  N7  UNL     1      51.313  33.272  -9.562  1.00  0.00    -0.263 N 
HETATM   15  C23 UNL     1      51.198  33.952  -8.391  1.00  0.00     0.169 A 
ENDROOT
BRANCH   1  16
HETATM   16  C6  UNL     1      47.568  34.576 -11.280  1.00  0.00     0.235 C 
HETATM   17  O2  UNL     1      48.418  34.214 -12.193  1.00  0.00    -0.283 OA
BRANCH  16  18
HETATM   18  C5  UNL     1      46.172  34.616 -11.645  1.00  0.00     0.154 A 
HETATM   19  N4  UNL     1      45.215  33.838 -10.986  1.00  0.00    -0.278 N 
HETATM   20  N3  UNL     1      44.043  34.061 -11.521  1.00  0.00    -0.238 N 
ATOM     21  H4  UNL     1      45.401  33.201 -10.213  1.00  0.00     0.189 HD
HETATM   22  N2  UNL     1      44.106  34.925 -12.492  1.00  0.00    -0.252 N 
ATOM     23  H3  UNL     1      43.180  33.611 -11.214  1.00  0.00     0.208 HD
HETATM   24  C24 UNL     1      45.437  35.273 -12.571  1.00  0.00     0.191 A 
BRANCH  22  25
HETATM   25  C4  UNL     1      43.101  35.476 -13.351  1.00  0.00     0.187 C 
BRANCH  25  26
HETATM   26  C3  UNL     1      41.797  34.759 -13.340  1.00  0.00     0.193 C 
BRANCH  26  27
HETATM   27  N1  UNL     1      41.490  33.994 -14.503  1.00  0.00    -0.347 N 
HETATM   28  C2  UNL     1      40.750  32.779 -14.436  1.00  0.00     0.214 C 
HETATM   29  C1  UNL     1      40.432  31.991 -15.632  1.00  0.00     0.117 C 
HETATM   30  O1  UNL     1      40.346  32.350 -13.321  1.00  0.00    -0.274 OA
ATOM     31  H1  UNL     1      41.811  34.328 -15.413  1.00  0.00     0.163 HD
ENDBRANCH  26  27
BRANCH  26  32
HETATM   32  C25 UNL     1      40.699  35.721 -12.988  1.00  0.00     0.255 C 
HETATM   33  N9  UNL     1      40.175  35.707 -11.669  1.00  0.00    -0.060 NA
HETATM   34  O13 UNL     1      40.233  36.531 -13.822  1.00  0.00    -0.275 OA
ENDBRANCH  26  32
ENDBRANCH  25  26
ENDBRANCH  22  25
BRANCH  24  35
HETATM   35  O12 UNL     1      45.885  36.197 -13.520  1.00  0.00    -0.343 OA
ATOM     36  H12 UNL     1      45.505  36.229 -14.389  1.00  0.00     0.219 HD
ENDBRANCH  24  35
ENDBRANCH  16  18
ENDBRANCH   1  16
BRANCH  15  37
HETATM   37  O11 UNL     1      52.061  34.009  -7.312  1.00  0.00    -0.344 OA
ATOM     38  H11 UNL     1      52.215  34.815  -6.834  1.00  0.00     0.219 HD
ENDBRANCH  15  37
BRANCH  14  39
HETATM   39  C14 UNL     1      52.419  32.446  -9.901  1.00  0.00     0.232 C 
BRANCH  39  40
HETATM   40  C15 UNL     1      52.570  31.252  -9.073  1.00  0.00     0.179 C 
HETATM   41  O6  UNL     1      53.447  31.282  -8.179  1.00  0.00    -0.293 OA
BRANCH  40  42
HETATM   42  C16 UNL     1      51.767  30.011  -9.226  1.00  0.00     0.259 C 
BRANCH  42  43
HETATM   43  N8  UNL     1      52.011  29.488 -10.582  1.00  0.00    -0.316 N 
HETATM   44  C17 UNL     1      50.954  29.065 -11.407  1.00  0.00     0.362 C 
HETATM   45  O7  UNL     1      49.735  29.115 -11.025  1.00  0.00    -0.238 OA
ATOM     46  H8  UNL     1      52.968  29.431 -10.931  1.00  0.00     0.166 HD
BRANCH  44  47
HETATM   47  O8  UNL     1      51.197  28.578 -12.665  1.00  0.00    -0.294 OA
BRANCH  47  48
HETATM   48  C18 UNL     1      51.625  27.265 -12.944  1.00  0.00     0.061 C 
HETATM   49  C19 UNL     1      53.142  27.162 -12.956  1.00  0.00     0.046 C 
HETATM   50  C20 UNL     1      51.126  26.248 -11.943  1.00  0.00     0.046 C 
HETATM   51  C21 UNL     1      51.138  26.899 -14.326  1.00  0.00     0.046 C 
ENDBRANCH  47  48
ENDBRANCH  44  47
ENDBRANCH  42  43
BRANCH  42  52
HETATM   52  C22 UNL     1      52.299  28.942  -8.326  1.00  0.00     0.204 C 
HETATM   53  O9  UNL     1      51.810  28.731  -7.160  1.00  0.00    -0.646 OA
HETATM   54  O10 UNL     1      53.335  28.119  -8.677  1.00  0.00    -0.646 OA
ENDBRANCH  42  52
ENDBRANCH  40  42
ENDBRANCH  39  40
ENDBRANCH  14  39
BRANCH   9  55
HETATM   55  O5  UNL     1      49.422  37.923  -7.464  1.00  0.00    -0.390 OA
ATOM     56  H5  UNL     1      49.847  38.390  -8.174  1.00  0.00     0.210 HD
ENDBRANCH   9  55
TORSDOF 16
ENDMDL
MODEL 4
REMARK VINA RESULT: -9.575509375      1.745      2.630
REMARK  16 active torsions:
REMARK  status: ('A' for Active; 'I' for Inactive)
REMARK       I    between atoms: C2_2  and  N1_4 
REMARK    1  A    between atoms: N1_4  and  C3_6 
REMARK    2  A    between atoms: C3_6  and  C4_7 
REMARK    3  A    between atoms: C3_6  and  C25_54 
REMARK    4  A    between atoms: C4_7  and  N2_8 
REMARK    5  A    between atoms: C5_13  and  C6_14 
REMARK    6  A    between atoms: C6_14  and  C7_16 
REMARK    7  A    between atoms: C11_24  and  O5_25 
REMARK    8  A    between atoms: N7_31  and  C14_32 
REMARK    9  A    between atoms: C14_32  and  C15_33 
REMARK   10  A    between atoms: C15_33  and  C16_35 
REMARK   11  A    between atoms: C16_35  and  N8_36 
REMARK   12  A    between atoms: C16_35  and  C22_45 
REMARK       I    between atoms: N8_36  and  C17_38 
REMARK   13  A    between atoms: C17_38  and  O8_40 
REMARK   14  A    between atoms: O8_40  and  C18_41 
REMARK   15  A    between atoms: C23_48  and  O11_49 
REMARK   16  A    between atoms: C24_51  and  O12_52 
ROOT
HETATM    1  C7  UNL     1      47.838  34.759  -9.866  1.00  0.00     0.135 C 
HETATM    2  N5  UNL     1      47.188  35.398  -8.968  1.00  0.00    -0.259 N 
ATOM      3  H5  UNL     1      46.237  35.682  -9.204  1.00  0.00     0.194 HD
HETATM    4  O3  UNL     1      47.632  35.730  -7.750  1.00  0.00    -0.258 OA
HETATM    5  C8  UNL     1      48.957  35.511  -7.340  1.00  0.00     0.171 C 
HETATM    6  C9  UNL     1      48.887  34.843  -5.993  1.00  0.00     0.216 C 
HETATM    7  O4  UNL     1      49.709  35.483  -5.114  1.00  0.00    -0.385 OA
HETATM    8  C10 UNL     1      50.000  36.728  -5.579  1.00  0.00     0.203 C 
HETATM    9  C11 UNL     1      49.638  36.832  -7.009  1.00  0.00     0.186 C 
HETATM   10  C12 UNL     1      49.749  34.726  -8.293  1.00  0.00     0.066 A 
HETATM   11  C13 UNL     1      49.242  34.379  -9.514  1.00  0.00     0.095 A 
HETATM   12  N6  UNL     1      50.149  33.690 -10.220  1.00  0.00    -0.293 N 
ATOM     13  H6  UNL     1      50.020  33.319 -11.161  1.00  0.00     0.187 HD
HETATM   14  N7  UNL     1      51.254  33.575  -9.475  1.00  0.00    -0.263 N 
HETATM   15  C23 UNL     1      51.043  34.199  -8.287  1.00  0.00     0.169 A 
ENDROOT
BRANCH   1  16
HETATM   16  C6  UNL     1      47.368  34.396 -11.180  1.00  0.00     0.235 C 
HETATM   17  O2  UNL     1      48.199  33.776 -11.962  1.00  0.00    -0.283 OA
BRANCH  16  18
HETATM   18  C5  UNL     1      46.046  34.668 -11.690  1.00  0.00     0.154 A 
HETATM   19  N4  UNL     1      44.908  34.058 -11.153  1.00  0.00    -0.278 N 
HETATM   20  N3  UNL     1      43.854  34.474 -11.805  1.00  0.00    -0.238 N 
ATOM     21  H4  UNL     1      44.902  33.396 -10.378  1.00  0.00     0.189 HD
HETATM   22  N2  UNL     1      44.163  35.318 -12.745  1.00  0.00    -0.252 N 
ATOM     23  H3  UNL     1      42.901  34.172 -11.601  1.00  0.00     0.208 HD
HETATM   24  C24 UNL     1      45.534  35.441 -12.675  1.00  0.00     0.191 A 
BRANCH  22  25
HETATM   25  C4  UNL     1      43.362  36.031 -13.695  1.00  0.00     0.187 C 
BRANCH  25  26
HETATM   26  C3  UNL     1      42.155  35.305 -14.175  1.00  0.00     0.193 C 
BRANCH  26  27
HETATM   27  N1  UNL     1      42.029  35.157 -15.587  1.00  0.00    -0.347 N 
HETATM   28  C2  UNL     1      41.462  33.992 -16.178  1.00  0.00     0.214 C 
HETATM   29  C1  UNL     1      41.331  33.838 -17.632  1.00  0.00     0.117 C 
HETATM   30  O1  UNL     1      41.052  33.051 -15.446  1.00  0.00    -0.274 OA
ATOM     31  H1  UNL     1      42.357  35.909 -16.193  1.00  0.00     0.163 HD
ENDBRANCH  26  27
BRANCH  26  32
HETATM   32  C25 UNL     1      40.927  35.910 -13.557  1.00  0.00     0.255 C 
HETATM   33  N9  UNL     1      40.543  35.499 -12.254  1.00  0.00    -0.060 NA
HETATM   34  O13 UNL     1      40.233  36.763 -14.157  1.00  0.00    -0.275 OA
ENDBRANCH  26  32
ENDBRANCH  25  26
ENDBRANCH  22  25
BRANCH  24  35
HETATM   35  O12 UNL     1      46.228  36.280 -13.551  1.00  0.00    -0.343 OA
ATOM     36  H12 UNL     1      46.800  36.964 -13.223  1.00  0.00     0.219 HD
ENDBRANCH  24  35
ENDBRANCH  16  18
ENDBRANCH   1  16
BRANCH  15  37
HETATM   37  O11 UNL     1      51.887  34.345  -7.201  1.00  0.00    -0.344 OA
ATOM     38  H11 UNL     1      52.496  33.662  -6.943  1.00  0.00     0.219 HD
ENDBRANCH  15  37
BRANCH  14  39
HETATM   39  C14 UNL     1      52.465  32.920  -9.829  1.00  0.00     0.232 C 
BRANCH  39  40
HETATM   40  C15 UNL     1      52.413  31.461  -9.771  1.00  0.00     0.179 C 
HETATM   41  O6  UNL     1      51.284  30.925  -9.846  1.00  0.00    -0.293 OA
BRANCH  40  42
HETATM   42  C16 UNL     1      53.600  30.580  -9.621  1.00  0.00     0.259 C 
BRANCH  42  43
HETATM   43  N8  UNL     1      54.785  31.356 -10.030  1.00  0.00    -0.316 N 
HETATM   44  C17 UNL     1      55.395  31.161 -11.281  1.00  0.00     0.362 C 
HETATM   45  O7  UNL     1      54.953  30.306 -12.124  1.00  0.00    -0.238 OA
ATOM     46  H8  UNL     1      55.171  32.050  -9.390  1.00  0.00     0.166 HD
BRANCH  44  47
HETATM   47  O8  UNL     1      56.498  31.888 -11.645  1.00  0.00    -0.294 OA
BRANCH  47  48
HETATM   48  C18 UNL     1      56.461  33.042 -12.452  1.00  0.00     0.061 C 
HETATM   49  C19 UNL     1      56.198  32.698 -13.909  1.00  0.00     0.046 C 
HETATM   50  C20 UNL     1      55.394  34.029 -12.036  1.00  0.00     0.046 C 
HETATM   51  C21 UNL     1      57.818  33.703 -12.383  1.00  0.00     0.046 C 
ENDBRANCH  47  48
ENDBRANCH  44  47
ENDBRANCH  42  43
BRANCH  42  52
HETATM   52  C22 UNL     1      53.841  30.287  -8.174  1.00  0.00     0.204 C 
HETATM   53  O9  UNL     1      55.020  30.277  -7.671  1.00  0.00    -0.646 OA
HETATM   54  O10 UNL     1      52.833  30.013  -7.291  1.00  0.00    -0.646 OA
ENDBRANCH  42  52
ENDBRANCH  40  42
ENDBRANCH  39  40
ENDBRANCH  14  39
BRANCH   9  55
HETATM   55  O5  UNL     1      48.733  37.859  -7.262  1.00  0.00    -0.390 OA
ATOM     56  H5  UNL     1      48.744  38.450  -6.519  1.00  0.00     0.210 HD
ENDBRANCH   9  55
TORSDOF 16
ENDMDL
MODEL 5
REMARK VINA RESULT: -9.501705320      1.207      1.482
REMARK  16 active torsions:
REMARK  status: ('A' for Active; 'I' for Inactive)
REMARK       I    between atoms: C2_2  and  N1_4 
REMARK    1  A    between atoms: N1_4  and  C3_6 
REMARK    2  A    between atoms: C3_6  and  C4_7 
REMARK    3  A    between atoms: C3_6  and  C25_54 
REMARK    4  A    between atoms: C4_7  and  N2_8 
REMARK    5  A    between atoms: C5_13  and  C6_14 
REMARK    6  A    between atoms: C6_14  and  C7_16 
REMARK    7  A    between atoms: C11_24  and  O5_25 
REMARK    8  A    between atoms: N7_31  and  C14_32 
REMARK    9  A    between atoms: C14_32  and  C15_33 
REMARK   10  A    between atoms: C15_33  and  C16_35 
REMARK   11  A    between atoms: C16_35  and  N8_36 
REMARK   12  A    between atoms: C16_35  and  C22_45 
REMARK       I    between atoms: N8_36  and  C17_38 
REMARK   13  A    between atoms: C17_38  and  O8_40 
REMARK   14  A    between atoms: O8_40  and  C18_41 
REMARK   15  A    between atoms: C23_48  and  O11_49 
REMARK   16  A    between atoms: C24_51  and  O12_52 
ROOT
HETATM    1  C7  UNL     1      48.130  34.920  -9.983  1.00  0.00     0.135 C 
HETATM    2  N5  UNL     1      47.586  35.688  -9.116  1.00  0.00    -0.259 N 
ATOM      3  H5  UNL     1      46.688  36.101  -9.368  1.00  0.00     0.194 HD
HETATM    4  O3  UNL     1      48.078  36.002  -7.912  1.00  0.00    -0.258 OA
HETATM    5  C8  UNL     1      49.355  35.605  -7.487  1.00  0.00     0.171 C 
HETATM    6  C9  UNL     1      49.189  35.014  -6.113  1.00  0.00     0.216 C 
HETATM    7  O4  UNL     1      50.100  35.561  -5.259  1.00  0.00    -0.385 OA
HETATM    8  C10 UNL     1      50.574  36.726  -5.777  1.00  0.00     0.203 C 
HETATM    9  C11 UNL     1      50.228  36.821  -7.211  1.00  0.00     0.186 C 
HETATM   10  C12 UNL     1      50.018  34.669  -8.402  1.00  0.00     0.066 A 
HETATM   11  C13 UNL     1      49.462  34.349  -9.609  1.00  0.00     0.095 A 
HETATM   12  N6  UNL     1      50.253  33.501 -10.280  1.00  0.00    -0.293 N 
ATOM     13  H6  UNL     1      50.067  33.112 -11.205  1.00  0.00     0.187 HD
HETATM   14  N7  UNL     1      51.330  33.254  -9.527  1.00  0.00    -0.263 N 
HETATM   15  C23 UNL     1      51.219  33.954  -8.368  1.00  0.00     0.169 A 
ENDROOT
BRANCH   1  16
HETATM   16  C6  UNL     1      47.607  34.574 -11.281  1.00  0.00     0.235 C 
HETATM   17  O2  UNL     1      48.457  34.184 -12.183  1.00  0.00    -0.283 OA
BRANCH  16  18
HETATM   18  C5  UNL     1      46.214  34.628 -11.654  1.00  0.00     0.154 A 
HETATM   19  N4  UNL     1      45.244  33.868 -10.994  1.00  0.00    -0.278 N 
HETATM   20  N3  UNL     1      44.078  34.101 -11.536  1.00  0.00    -0.238 N 
ATOM     21  H4  UNL     1      45.419  33.234 -10.215  1.00  0.00     0.189 HD
HETATM   22  N2  UNL     1      44.157  34.957 -12.513  1.00  0.00    -0.252 N 
ATOM     23  H3  UNL     1      43.208  33.664 -11.231  1.00  0.00     0.208 HD
HETATM   24  C24 UNL     1      45.492  35.288 -12.589  1.00  0.00     0.191 A 
BRANCH  22  25
HETATM   25  C4  UNL     1      43.163  35.514 -13.382  1.00  0.00     0.187 C 
BRANCH  25  26
HETATM   26  C3  UNL     1      41.865  34.786 -13.407  1.00  0.00     0.193 C 
BRANCH  26  27
HETATM   27  N1  UNL     1      41.563  34.079 -14.607  1.00  0.00    -0.347 N 
HETATM   28  C2  UNL     1      40.804  32.873 -14.605  1.00  0.00     0.214 C 
HETATM   29  C1  UNL     1      40.490  32.145 -15.839  1.00  0.00     0.117 C 
HETATM   30  O1  UNL     1      40.379  32.401 -13.516  1.00  0.00    -0.274 OA
ATOM     31  H1  UNL     1      41.900  34.448 -15.496  1.00  0.00     0.163 HD
ENDBRANCH  26  27
BRANCH  26  32
HETATM   32  C25 UNL     1      40.760  35.719 -13.004  1.00  0.00     0.255 C 
HETATM   33  N9  UNL     1      40.166  36.545 -13.994  1.00  0.00    -0.060 NA
HETATM   34  O13 UNL     1      40.348  35.791 -11.823  1.00  0.00    -0.275 OA
ENDBRANCH  26  32
ENDBRANCH  25  26
ENDBRANCH  22  25
BRANCH  24  35
HETATM   35  O12 UNL     1      45.957  36.199 -13.541  1.00  0.00    -0.343 OA
ATOM     36  H12 UNL     1      46.876  36.234 -13.778  1.00  0.00     0.219 HD
ENDBRANCH  24  35
ENDBRANCH  16  18
ENDBRANCH   1  16
BRANCH  15  37
HETATM   37  O11 UNL     1      52.078  34.018  -7.286  1.00  0.00    -0.344 OA
ATOM     38  H11 UNL     1      51.764  33.958  -6.391  1.00  0.00     0.219 HD
ENDBRANCH  15  37
BRANCH  14  39
HETATM   39  C14 UNL     1      52.428  32.409  -9.847  1.00  0.00     0.232 C 
BRANCH  39  40
HETATM   40  C15 UNL     1      52.097  30.991  -9.967  1.00  0.00     0.179 C 
HETATM   41  O6  UNL     1      50.884  30.682  -9.935  1.00  0.00    -0.293 OA
BRANCH  40  42
HETATM   42  C16 UNL     1      53.096  29.901 -10.113  1.00  0.00     0.259 C 
BRANCH  42  43
HETATM   43  N8  UNL     1      53.122  29.149  -8.846  1.00  0.00    -0.316 N 
HETATM   44  C17 UNL     1      54.257  28.422  -8.447  1.00  0.00     0.362 C 
HETATM   45  O7  UNL     1      55.319  28.380  -9.159  1.00  0.00    -0.238 OA
ATOM     46  H8  UNL     1      52.299  29.156  -8.244  1.00  0.00     0.166 HD
BRANCH  44  47
HETATM   47  O8  UNL     1      54.266  27.726  -7.266  1.00  0.00    -0.294 OA
BRANCH  47  48
HETATM   48  C18 UNL     1      54.533  28.296  -6.005  1.00  0.00     0.061 C 
HETATM   49  C19 UNL     1      55.507  29.457  -6.112  1.00  0.00     0.046 C 
HETATM   50  C20 UNL     1      53.297  28.823  -5.314  1.00  0.00     0.046 C 
HETATM   51  C21 UNL     1      55.184  27.238  -5.145  1.00  0.00     0.046 C 
ENDBRANCH  47  48
ENDBRANCH  44  47
ENDBRANCH  42  43
BRANCH  42  52
HETATM   52  C22 UNL     1      52.618  28.900 -11.117  1.00  0.00     0.204 C 
HETATM   53  O9  UNL     1      52.879  29.013 -12.366  1.00  0.00    -0.646 OA
HETATM   54  O10 UNL     1      51.875  27.801 -10.778  1.00  0.00    -0.646 OA
ENDBRANCH  42  52
ENDBRANCH  40  42
ENDBRANCH  39  40
ENDBRANCH  14  39
BRANCH   9  55
HETATM   55  O5  UNL     1      49.487  37.961  -7.513  1.00  0.00    -0.390 OA
ATOM     56  H5  UNL     1      49.430  38.490  -6.726  1.00  0.00     0.210 HD
ENDBRANCH   9  55
TORSDOF 16
ENDMDL
