MODEL 1
REMARK VINA RESULT: -5.311932260      0.000      0.000
REMARK  6 active torsions:
REMARK  status: ('A' for Active; 'I' for Inactive)
REMARK    1  A    between atoms: N1_2  and  C2_5 
REMARK    2  A    between atoms: C2_5  and  C3_6 
REMARK    3  A    between atoms: C3_6  and  N2_7 
REMARK    4  A    between atoms: C3_6  and  C9_17 
REMARK    5  A    between atoms: N2_7  and  C4_9 
REMARK    6  A    between atoms: C4_9  and  N3_11 
ROOT
HETATM    1  N2  UNL     1     -18.433   1.629 -17.703  1.00  0.00    -0.361 N 
ATOM      2  H2  UNL     1     -17.714   2.279 -17.387  1.00  0.00     0.162 HD
ENDROOT
BRANCH   1   3
HETATM    3  C3  UNL     1     -19.380   1.202 -16.711  1.00  0.00     0.113 C 
BRANCH   3   4
HETATM    4  C2  UNL     1     -18.672   0.758 -15.483  1.00  0.00     0.257 C 
BRANCH   4   5
HETATM    5  N1  UNL     1     -18.923  -0.669 -15.212  1.00  0.00    -0.077 N 
HETATM    6  C1  UNL     1     -19.239  -0.734 -13.777  1.00  0.00     0.267 C 
ATOM      7  H12 UNL     1     -18.161  -1.284 -15.496  1.00  0.00     0.276 HD
ATOM      8  H11 UNL     1     -19.637  -1.084 -15.812  1.00  0.00     0.276 HD
ENDBRANCH   4   5
ENDBRANCH   3   4
BRANCH   3   9
HETATM    9  C9  UNL     1     -20.435   2.249 -16.462  1.00  0.00     0.002 C 
HETATM   10  C10 UNL     1     -21.778   1.610 -16.832  1.00  0.00     0.011 C 
HETATM   11  C11 UNL     1     -20.530   2.684 -15.044  1.00  0.00     0.011 C 
ENDBRANCH   3   9
ENDBRANCH   1   3
BRANCH   1  12
HETATM   12  C4  UNL     1     -18.380   1.257 -19.058  1.00  0.00     0.170 C 
HETATM   13  S1  UNL     1     -19.358   1.954 -20.160  1.00  0.00    -0.041 SA
BRANCH  12  14
HETATM   14  N3  UNL     1     -17.459   0.283 -19.490  1.00  0.00    -0.354 N 
HETATM   15  C5  UNL     1     -17.239   0.123 -20.910  1.00  0.00     0.151 C 
HETATM   16  C6  UNL     1     -16.395  -1.093 -21.230  1.00  0.00     0.187 C 
HETATM   17  O1  UNL     1     -15.333  -1.109 -20.334  1.00  0.00    -0.388 OA
HETATM   18  C7  UNL     1     -15.825  -1.506 -19.107  1.00  0.00     0.187 C 
HETATM   19  C8  UNL     1     -16.768  -0.518 -18.510  1.00  0.00     0.151 C 
ENDBRANCH  12  14
ENDBRANCH   1  12
TORSDOF 6
ENDMDL
MODEL 2
REMARK VINA RESULT: -5.292501282      1.611      1.814
REMARK  6 active torsions:
REMARK  status: ('A' for Active; 'I' for Inactive)
REMARK    1  A    between atoms: N1_2  and  C2_5 
REMARK    2  A    between atoms: C2_5  and  C3_6 
REMARK    3  A    between atoms: C3_6  and  N2_7 
REMARK    4  A    between atoms: C3_6  and  C9_17 
REMARK    5  A    between atoms: N2_7  and  C4_9 
REMARK    6  A    between atoms: C4_9  and  N3_11 
ROOT
HETATM    1  N2  UNL     1     -18.751  -0.362 -16.825  1.00  0.00    -0.361 N 
ATOM      2  H2  UNL     1     -18.878  -1.357 -17.009  1.00  0.00     0.162 HD
ENDROOT
BRANCH   1   3
HETATM    3  C3  UNL     1     -19.819   0.294 -16.124  1.00  0.00     0.113 C 
BRANCH   3   4
HETATM    4  C2  UNL     1     -19.636   0.149 -14.658  1.00  0.00     0.257 C 
BRANCH   4   5
HETATM    5  N1  UNL     1     -19.151  -1.201 -14.315  1.00  0.00    -0.077 N 
HETATM    6  C1  UNL     1     -18.457  -1.040 -13.027  1.00  0.00     0.267 C 
ATOM      7  H12 UNL     1     -18.580  -1.631 -15.042  1.00  0.00     0.276 HD
ATOM      8  H11 UNL     1     -19.882  -1.912 -14.304  1.00  0.00     0.276 HD
ENDBRANCH   4   5
ENDBRANCH   3   4
BRANCH   3   9
HETATM    9  C9  UNL     1     -19.988   1.721 -16.580  1.00  0.00     0.002 C 
HETATM   10  C10 UNL     1     -21.367   1.805 -17.244  1.00  0.00     0.011 C 
HETATM   11  C11 UNL     1     -19.971   2.713 -15.473  1.00  0.00     0.011 C 
ENDBRANCH   3   9
ENDBRANCH   1   3
BRANCH   1  12
HETATM   12  C4  UNL     1     -17.549   0.204 -17.288  1.00  0.00     0.170 C 
HETATM   13  S1  UNL     1     -16.582   1.055 -16.292  1.00  0.00    -0.041 SA
BRANCH  12  14
HETATM   14  N3  UNL     1     -17.152   0.024 -18.628  1.00  0.00    -0.354 N 
HETATM   15  C5  UNL     1     -17.332   1.119 -19.554  1.00  0.00     0.151 C 
HETATM   16  C6  UNL     1     -17.064   0.713 -20.988  1.00  0.00     0.187 C 
HETATM   17  O1  UNL     1     -15.901  -0.047 -20.994  1.00  0.00    -0.388 OA
HETATM   18  C7  UNL     1     -16.207  -1.288 -20.473  1.00  0.00     0.187 C 
HETATM   19  C8  UNL     1     -16.581  -1.238 -19.031  1.00  0.00     0.151 C 
ENDBRANCH  12  14
ENDBRANCH   1  12
TORSDOF 6
ENDMDL
MODEL 3
REMARK VINA RESULT: -5.244047458      1.782      1.962
REMARK  6 active torsions:
REMARK  status: ('A' for Active; 'I' for Inactive)
REMARK    1  A    between atoms: N1_2  and  C2_5 
REMARK    2  A    between atoms: C2_5  and  C3_6 
REMARK    3  A    between atoms: C3_6  and  N2_7 
REMARK    4  A    between atoms: C3_6  and  C9_17 
REMARK    5  A    between atoms: N2_7  and  C4_9 
REMARK    6  A    between atoms: C4_9  and  N3_11 
ROOT
HETATM    1  N2  UNL     1     -18.843   1.397 -17.590  1.00  0.00    -0.361 N 
ATOM      2  H2  UNL     1     -19.044   1.990 -18.395  1.00  0.00     0.162 HD
ENDROOT
BRANCH   1   3
HETATM    3  C3  UNL     1     -19.320   1.870 -16.320  1.00  0.00     0.113 C 
BRANCH   3   4
HETATM    4  C2  UNL     1     -18.397   2.897 -15.775  1.00  0.00     0.257 C 
BRANCH   4   5
HETATM    5  N1  UNL     1     -17.283   2.273 -15.040  1.00  0.00    -0.077 N 
HETATM    6  C1  UNL     1     -17.918   1.552 -13.925  1.00  0.00     0.267 C 
ATOM      7  H12 UNL     1     -16.560   2.931 -14.748  1.00  0.00     0.276 HD
ATOM      8  H11 UNL     1     -16.681   1.688 -15.620  1.00  0.00     0.276 HD
ENDBRANCH   4   5
ENDBRANCH   3   4
BRANCH   3   9
HETATM    9  C9  UNL     1     -20.756   2.319 -16.399  1.00  0.00     0.002 C 
HETATM   10  C10 UNL     1     -21.558   1.123 -16.924  1.00  0.00     0.011 C 
HETATM   11  C11 UNL     1     -21.341   2.700 -15.087  1.00  0.00     0.011 C 
ENDBRANCH   3   9
ENDBRANCH   1   3
BRANCH   1  12
HETATM   12  C4  UNL     1     -18.131   0.213 -17.855  1.00  0.00     0.170 C 
HETATM   13  S1  UNL     1     -18.108  -1.013 -16.783  1.00  0.00    -0.041 SA
BRANCH  12  14
HETATM   14  N3  UNL     1     -17.437   0.062 -19.072  1.00  0.00    -0.354 N 
HETATM   15  C5  UNL     1     -17.315   1.209 -19.943  1.00  0.00     0.151 C 
HETATM   16  C6  UNL     1     -16.739   0.847 -21.297  1.00  0.00     0.187 C 
HETATM   17  O1  UNL     1     -15.664  -0.005 -21.077  1.00  0.00    -0.388 OA
HETATM   18  C7  UNL     1     -16.171  -1.239 -20.722  1.00  0.00     0.187 C 
HETATM   19  C8  UNL     1     -16.875  -1.224 -19.408  1.00  0.00     0.151 C 
ENDBRANCH  12  14
ENDBRANCH   1  12
TORSDOF 6
ENDMDL
MODEL 4
REMARK VINA RESULT: -5.229607379      1.340      1.886
REMARK  6 active torsions:
REMARK  status: ('A' for Active; 'I' for Inactive)
REMARK    1  A    between atoms: N1_2  and  C2_5 
REMARK    2  A    between atoms: C2_5  and  C3_6 
REMARK    3  A    between atoms: C3_6  and  N2_7 
REMARK    4  A    between atoms: C3_6  and  C9_17 
REMARK    5  A    between atoms: N2_7  and  C4_9 
REMARK    6  A    between atoms: C4_9  and  N3_11 
ROOT
HETATM    1  N2  UNL     1     -17.955   2.069 -17.773  1.00  0.00    -0.361 N 
ATOM      2  H2  UNL     1     -17.038   2.497 -17.643  1.00  0.00     0.162 HD
ENDROOT
BRANCH   1   3
HETATM    3  C3  UNL     1     -18.866   2.176 -16.668  1.00  0.00     0.113 C 
BRANCH   3   4
HETATM    4  C2  UNL     1     -19.659   0.928 -16.535  1.00  0.00     0.257 C 
BRANCH   4   5
HETATM    5  N1  UNL     1     -21.098   1.194 -16.713  1.00  0.00    -0.077 N 
HETATM    6  C1  UNL     1     -21.724   0.759 -15.454  1.00  0.00     0.267 C 
ATOM      7  H12 UNL     1     -21.499   0.760 -17.545  1.00  0.00     0.276 HD
ATOM      8  H11 UNL     1     -21.312   2.157 -16.970  1.00  0.00     0.276 HD
ENDBRANCH   4   5
ENDBRANCH   3   4
BRANCH   3   9
HETATM    9  C9  UNL     1     -18.158   2.587 -15.403  1.00  0.00     0.002 C 
HETATM   10  C10 UNL     1     -19.133   3.484 -14.631  1.00  0.00     0.011 C 
HETATM   11  C11 UNL     1     -17.806   1.451 -14.512  1.00  0.00     0.011 C 
ENDBRANCH   3   9
ENDBRANCH   1   3
BRANCH   1  12
HETATM   12  C4  UNL     1     -18.176   1.446 -19.015  1.00  0.00     0.170 C 
HETATM   13  S1  UNL     1     -19.376   1.937 -20.000  1.00  0.00    -0.041 SA
BRANCH  12  14
HETATM   14  N3  UNL     1     -17.342   0.391 -19.436  1.00  0.00    -0.354 N 
HETATM   15  C5  UNL     1     -16.942   0.340 -20.824  1.00  0.00     0.151 C 
HETATM   16  C6  UNL     1     -16.234  -0.952 -21.174  1.00  0.00     0.187 C 
HETATM   17  O1  UNL     1     -15.326  -1.216 -20.156  1.00  0.00    -0.388 OA
HETATM   18  C7  UNL     1     -16.040  -1.653 -19.059  1.00  0.00     0.187 C 
HETATM   19  C8  UNL     1     -16.916  -0.598 -18.476  1.00  0.00     0.151 C 
ENDBRANCH  12  14
ENDBRANCH   1  12
TORSDOF 6
ENDMDL
MODEL 5
REMARK VINA RESULT: -5.224306409      1.337      1.645
REMARK  6 active torsions:
REMARK  status: ('A' for Active; 'I' for Inactive)
REMARK    1  A    between atoms: N1_2  and  C2_5 
REMARK    2  A    between atoms: C2_5  and  C3_6 
REMARK    3  A    between atoms: C3_6  and  N2_7 
REMARK    4  A    between atoms: C3_6  and  C9_17 
REMARK    5  A    between atoms: N2_7  and  C4_9 
REMARK    6  A    between atoms: C4_9  and  N3_11 
ROOT
HETATM    1  N2  UNL     1     -18.046   2.143 -17.873  1.00  0.00    -0.361 N 
ATOM      2  H2  UNL     1     -17.468   2.983 -17.907  1.00  0.00     0.162 HD
ENDROOT
BRANCH   1   3
HETATM    3  C3  UNL     1     -18.559   1.779 -16.582  1.00  0.00     0.113 C 
BRANCH   3   4
HETATM    4  C2  UNL     1     -18.444   2.923 -15.643  1.00  0.00     0.257 C 
BRANCH   4   5
HETATM    5  N1  UNL     1     -17.717   2.536 -14.421  1.00  0.00    -0.077 N 
HETATM    6  C1  UNL     1     -18.621   2.885 -13.313  1.00  0.00     0.267 C 
ATOM      7  H12 UNL     1     -16.789   2.951 -14.343  1.00  0.00     0.276 HD
ATOM      8  H11 UNL     1     -17.411   1.563 -14.413  1.00  0.00     0.276 HD
ENDBRANCH   4   5
ENDBRANCH   3   4
BRANCH   3   9
HETATM    9  C9  UNL     1     -19.949   1.205 -16.678  1.00  0.00     0.002 C 
HETATM   10  C10 UNL     1     -20.044   0.111 -15.609  1.00  0.00     0.011 C 
HETATM   11  C11 UNL     1     -21.028   2.189 -16.398  1.00  0.00     0.011 C 
ENDBRANCH   3   9
ENDBRANCH   1   3
BRANCH   1  12
HETATM   12  C4  UNL     1     -18.245   1.479 -19.097  1.00  0.00     0.170 C 
HETATM   13  S1  UNL     1     -19.435   1.930 -20.114  1.00  0.00    -0.041 SA
BRANCH  12  14
HETATM   14  N3  UNL     1     -17.399   0.417 -19.473  1.00  0.00    -0.354 N 
HETATM   15  C5  UNL     1     -16.929   0.361 -20.839  1.00  0.00     0.151 C 
HETATM   16  C6  UNL     1     -16.212  -0.937 -21.150  1.00  0.00     0.187 C 
HETATM   17  O1  UNL     1     -15.359  -1.205 -20.087  1.00  0.00    -0.388 OA
HETATM   18  C7  UNL     1     -16.131  -1.635 -19.027  1.00  0.00     0.187 C 
HETATM   19  C8  UNL     1     -17.029  -0.572 -18.491  1.00  0.00     0.151 C 
ENDBRANCH  12  14
ENDBRANCH   1  12
TORSDOF 6
ENDMDL
