MODEL 1
REMARK VINA RESULT: -5.836929124      0.000      0.000
REMARK  8 active torsions:
REMARK  status: ('A' for Active; 'I' for Inactive)
REMARK    1  A    between atoms: C2_2  and  C3_3 
REMARK    2  A    between atoms: C3_3  and  C4_4 
REMARK    3  A    between atoms: C5_5  and  C6_6 
REMARK    4  A    between atoms: C6_6  and  N1_7 
REMARK    5  A    between atoms: N2_11  and  C10_12 
REMARK    6  A    between atoms: C10_12  and  C11_13 
REMARK    7  A    between atoms: C11_13  and  O1_14 
REMARK    8  A    between atoms: N3_16  and  O2_18 
ROOT
HETATM    1  N1  UNL     1     -18.561   0.858 -15.711  1.00  0.00    -0.041 N 
HETATM    2  C7  UNL     1     -18.141   0.164 -14.521  1.00  0.00     0.276 C 
HETATM    3  C8  UNL     1     -17.460   1.731 -16.149  1.00  0.00     0.284 C 
HETATM    4  C9  UNL     1     -16.561   0.707 -16.839  1.00  0.00     0.093 C 
HETATM    5  N2  UNL     1     -17.499  -0.129 -17.455  1.00  0.00    -0.340 N 
HETATM    6  C12 UNL     1     -18.743  -0.096 -16.815  1.00  0.00     0.367 C 
ENDROOT
BRANCH   5   7
HETATM    7  C10 UNL     1     -17.070  -1.264 -18.145  1.00  0.00     0.149 C 
BRANCH   7   8
HETATM    8  C11 UNL     1     -16.072  -1.082 -19.192  1.00  0.00     0.175 C 
HETATM    9  N3  UNL     1     -16.397  -0.472 -20.281  1.00  0.00    -0.246 N 
ATOM     10  H3  UNL     1     -17.354  -0.133 -20.376  1.00  0.00     0.196 HD
BRANCH   8  11
HETATM   11  O1  UNL     1     -14.776  -1.527 -19.090  1.00  0.00    -0.344 OA
ATOM     12  H1  UNL     1     -14.120  -1.393 -19.765  1.00  0.00     0.219 HD
ENDBRANCH   8  11
BRANCH   9  13
HETATM   13  O2  UNL     1     -15.531  -0.255 -21.314  1.00  0.00    -0.288 OA
ATOM     14  H2  UNL     1     -15.646   0.429 -21.963  1.00  0.00     0.244 HD
ENDBRANCH   9  13
ENDBRANCH   7   8
ENDBRANCH   5   7
BRANCH   1  15
HETATM   15  C6  UNL     1     -19.727   1.665 -15.552  1.00  0.00     0.332 C 
BRANCH  15  16
HETATM   16  C5  UNL     1     -20.937   0.913 -15.221  1.00  0.00    -0.079 C 
HETATM   17  C4  UNL     1     -21.920   0.275 -14.936  1.00  0.00    -0.105 C 
BRANCH  17  18
HETATM   18  C3  UNL     1     -23.092  -0.519 -14.572  1.00  0.00     0.093 C 
BRANCH  18  19
HETATM   19  C2  UNL     1     -23.259  -0.530 -13.073  1.00  0.00     0.007 C 
HETATM   20  C1  UNL     1     -24.702  -0.164 -12.789  1.00  0.00     0.006 C 
ENDBRANCH  18  19
ENDBRANCH  17  18
ENDBRANCH  15  16
ENDBRANCH   1  15
TORSDOF 8
ENDMDL
MODEL 2
REMARK VINA RESULT: -5.723241992      1.402      1.553
REMARK  8 active torsions:
REMARK  status: ('A' for Active; 'I' for Inactive)
REMARK    1  A    between atoms: C2_2  and  C3_3 
REMARK    2  A    between atoms: C3_3  and  C4_4 
REMARK    3  A    between atoms: C5_5  and  C6_6 
REMARK    4  A    between atoms: C6_6  and  N1_7 
REMARK    5  A    between atoms: N2_11  and  C10_12 
REMARK    6  A    between atoms: C10_12  and  C11_13 
REMARK    7  A    between atoms: C11_13  and  O1_14 
REMARK    8  A    between atoms: N3_16  and  O2_18 
ROOT
HETATM    1  N1  UNL     1     -19.185   1.714 -17.240  1.00  0.00    -0.041 N 
HETATM    2  C7  UNL     1     -18.510   2.574 -16.302  1.00  0.00     0.276 C 
HETATM    3  C8  UNL     1     -18.866   2.174 -18.600  1.00  0.00     0.284 C 
HETATM    4  C9  UNL     1     -17.472   1.573 -18.769  1.00  0.00     0.093 C 
HETATM    5  N2  UNL     1     -17.611   0.341 -18.122  1.00  0.00    -0.340 N 
HETATM    6  C12 UNL     1     -18.633   0.353 -17.166  1.00  0.00     0.367 C 
ENDROOT
BRANCH   5   7
HETATM    7  C10 UNL     1     -16.506  -0.502 -17.988  1.00  0.00     0.149 C 
BRANCH   7   8
HETATM    8  C11 UNL     1     -16.021  -1.175 -19.188  1.00  0.00     0.175 C 
HETATM    9  N3  UNL     1     -16.847  -1.455 -20.139  1.00  0.00    -0.246 N 
ATOM     10  H3  UNL     1     -17.825  -1.193 -20.019  1.00  0.00     0.196 HD
BRANCH   8  11
HETATM   11  O1  UNL     1     -14.709  -1.538 -19.375  1.00  0.00    -0.344 OA
ATOM     12  H1  UNL     1     -14.443  -2.304 -19.871  1.00  0.00     0.219 HD
ENDBRANCH   8  11
BRANCH   9  13
HETATM   13  O2  UNL     1     -16.484  -2.082 -21.295  1.00  0.00    -0.288 OA
ATOM     14  H2  UNL     1     -16.361  -1.631 -22.122  1.00  0.00     0.244 HD
ENDBRANCH   9  13
ENDBRANCH   7   8
ENDBRANCH   5   7
BRANCH   1  15
HETATM   15  C6  UNL     1     -20.606   1.684 -17.106  1.00  0.00     0.332 C 
BRANCH  15  16
HETATM   16  C5  UNL     1     -21.082   0.977 -15.917  1.00  0.00    -0.079 C 
HETATM   17  C4  UNL     1     -21.484   0.375 -14.952  1.00  0.00    -0.105 C 
BRANCH  17  18
HETATM   18  C3  UNL     1     -21.976  -0.382 -13.803  1.00  0.00     0.093 C 
BRANCH  18  19
HETATM   19  C2  UNL     1     -23.485  -0.421 -13.822  1.00  0.00     0.007 C 
HETATM   20  C1  UNL     1     -23.933  -0.785 -12.421  1.00  0.00     0.006 C 
ENDBRANCH  18  19
ENDBRANCH  17  18
ENDBRANCH  15  16
ENDBRANCH   1  15
TORSDOF 8
ENDMDL
MODEL 3
REMARK VINA RESULT: -5.661235431      1.633      2.092
REMARK  8 active torsions:
REMARK  status: ('A' for Active; 'I' for Inactive)
REMARK    1  A    between atoms: C2_2  and  C3_3 
REMARK    2  A    between atoms: C3_3  and  C4_4 
REMARK    3  A    between atoms: C5_5  and  C6_6 
REMARK    4  A    between atoms: C6_6  and  N1_7 
REMARK    5  A    between atoms: N2_11  and  C10_12 
REMARK    6  A    between atoms: C10_12  and  C11_13 
REMARK    7  A    between atoms: C11_13  and  O1_14 
REMARK    8  A    between atoms: N3_16  and  O2_18 
ROOT
HETATM    1  N1  UNL     1     -18.538   1.444 -16.733  1.00  0.00    -0.041 N 
HETATM    2  C7  UNL     1     -19.193   0.182 -16.497  1.00  0.00     0.276 C 
HETATM    3  C8  UNL     1     -17.084   1.231 -16.658  1.00  0.00     0.284 C 
HETATM    4  C9  UNL     1     -16.828   0.628 -18.038  1.00  0.00     0.093 C 
HETATM    5  N2  UNL     1     -17.705   1.366 -18.840  1.00  0.00    -0.340 N 
HETATM    6  C12 UNL     1     -18.780   1.888 -18.114  1.00  0.00     0.367 C 
ENDROOT
BRANCH   5   7
HETATM    7  C10 UNL     1     -17.829   1.061 -20.197  1.00  0.00     0.149 C 
BRANCH   7   8
HETATM    8  C11 UNL     1     -16.899   0.087 -20.757  1.00  0.00     0.175 C 
HETATM    9  N3  UNL     1     -17.204  -1.166 -20.743  1.00  0.00    -0.246 N 
ATOM     10  H3  UNL     1     -18.097  -1.439 -20.335  1.00  0.00     0.196 HD
BRANCH   8  11
HETATM   11  O1  UNL     1     -15.689   0.428 -21.314  1.00  0.00    -0.344 OA
ATOM     12  H1  UNL     1     -14.885  -0.054 -21.157  1.00  0.00     0.219 HD
ENDBRANCH   8  11
BRANCH   9  13
HETATM   13  O2  UNL     1     -16.397  -2.146 -21.244  1.00  0.00    -0.288 OA
ATOM     14  H2  UNL     1     -16.458  -3.060 -20.989  1.00  0.00     0.244 HD
ENDBRANCH   9  13
ENDBRANCH   7   8
ENDBRANCH   5   7
BRANCH   1  15
HETATM   15  C6  UNL     1     -18.881   2.476 -15.809  1.00  0.00     0.332 C 
BRANCH  15  16
HETATM   16  C5  UNL     1     -20.261   2.417 -15.327  1.00  0.00    -0.079 C 
HETATM   17  C4  UNL     1     -21.394   2.345 -14.920  1.00  0.00    -0.105 C 
BRANCH  17  18
HETATM   18  C3  UNL     1     -22.758   2.228 -14.408  1.00  0.00     0.093 C 
BRANCH  18  19
HETATM   19  C2  UNL     1     -22.907   0.946 -13.627  1.00  0.00     0.007 C 
HETATM   20  C1  UNL     1     -22.789  -0.191 -14.621  1.00  0.00     0.006 C 
ENDBRANCH  18  19
ENDBRANCH  17  18
ENDBRANCH  15  16
ENDBRANCH   1  15
TORSDOF 8
ENDMDL
MODEL 4
REMARK VINA RESULT: -5.654075987      1.604      2.212
REMARK  8 active torsions:
REMARK  status: ('A' for Active; 'I' for Inactive)
REMARK    1  A    between atoms: C2_2  and  C3_3 
REMARK    2  A    between atoms: C3_3  and  C4_4 
REMARK    3  A    between atoms: C5_5  and  C6_6 
REMARK    4  A    between atoms: C6_6  and  N1_7 
REMARK    5  A    between atoms: N2_11  and  C10_12 
REMARK    6  A    between atoms: C10_12  and  C11_13 
REMARK    7  A    between atoms: C11_13  and  O1_14 
REMARK    8  A    between atoms: N3_16  and  O2_18 
ROOT
HETATM    1  N1  UNL     1     -17.592   0.741 -16.828  1.00  0.00    -0.041 N 
HETATM    2  C7  UNL     1     -16.200   0.962 -16.532  1.00  0.00     0.276 C 
HETATM    3  C8  UNL     1     -18.265   2.048 -16.884  1.00  0.00     0.284 C 
HETATM    4  C9  UNL     1     -17.850   2.506 -18.280  1.00  0.00     0.093 C 
HETATM    5  N2  UNL     1     -17.900   1.309 -19.002  1.00  0.00    -0.340 N 
HETATM    6  C12 UNL     1     -17.740   0.186 -18.182  1.00  0.00     0.367 C 
ENDROOT
BRANCH   5   7
HETATM    7  C10 UNL     1     -17.507   1.288 -20.341  1.00  0.00     0.149 C 
BRANCH   7   8
HETATM    8  C11 UNL     1     -17.177  -0.005 -20.928  1.00  0.00     0.175 C 
HETATM    9  N3  UNL     1     -15.966  -0.445 -20.862  1.00  0.00    -0.246 N 
ATOM     10  H3  UNL     1     -15.269   0.135 -20.394  1.00  0.00     0.196 HD
BRANCH   8  11
HETATM   11  O1  UNL     1     -18.096  -0.806 -21.563  1.00  0.00    -0.344 OA
ATOM     12  H1  UNL     1     -18.908  -0.480 -21.935  1.00  0.00     0.219 HD
ENDBRANCH   8  11
BRANCH   9  13
HETATM   13  O2  UNL     1     -15.566  -1.641 -21.382  1.00  0.00    -0.288 OA
ATOM     14  H2  UNL     1     -16.120  -2.412 -21.416  1.00  0.00     0.244 HD
ENDBRANCH   9  13
ENDBRANCH   7   8
ENDBRANCH   5   7
BRANCH   1  15
HETATM   15  C6  UNL     1     -18.283  -0.070 -15.878  1.00  0.00     0.332 C 
BRANCH  15  16
HETATM   16  C5  UNL     1     -19.707   0.238 -15.748  1.00  0.00    -0.079 C 
HETATM   17  C4  UNL     1     -20.883   0.474 -15.623  1.00  0.00    -0.105 C 
BRANCH  17  18
HETATM   18  C3  UNL     1     -22.310   0.737 -15.444  1.00  0.00     0.093 C 
BRANCH  18  19
HETATM   19  C2  UNL     1     -22.965  -0.431 -14.749  1.00  0.00     0.007 C 
HETATM   20  C1  UNL     1     -22.588  -0.340 -13.285  1.00  0.00     0.006 C 
ENDBRANCH  18  19
ENDBRANCH  17  18
ENDBRANCH  15  16
ENDBRANCH   1  15
TORSDOF 8
ENDMDL
MODEL 5
REMARK VINA RESULT: -5.587845732      1.946      2.141
REMARK  8 active torsions:
REMARK  status: ('A' for Active; 'I' for Inactive)
REMARK    1  A    between atoms: C2_2  and  C3_3 
REMARK    2  A    between atoms: C3_3  and  C4_4 
REMARK    3  A    between atoms: C5_5  and  C6_6 
REMARK    4  A    between atoms: C6_6  and  N1_7 
REMARK    5  A    between atoms: N2_11  and  C10_12 
REMARK    6  A    between atoms: C10_12  and  C11_13 
REMARK    7  A    between atoms: C11_13  and  O1_14 
REMARK    8  A    between atoms: N3_16  and  O2_18 
ROOT
HETATM    1  N1  UNL     1     -19.292   1.737 -17.298  1.00  0.00    -0.041 N 
HETATM    2  C7  UNL     1     -18.660   2.605 -16.338  1.00  0.00     0.276 C 
HETATM    3  C8  UNL     1     -18.895   2.174 -18.646  1.00  0.00     0.284 C 
HETATM    4  C9  UNL     1     -17.500   1.558 -18.730  1.00  0.00     0.093 C 
HETATM    5  N2  UNL     1     -17.686   0.337 -18.074  1.00  0.00    -0.340 N 
HETATM    6  C12 UNL     1     -18.757   0.373 -17.175  1.00  0.00     0.367 C 
ENDROOT
BRANCH   5   7
HETATM    7  C10 UNL     1     -16.598  -0.513 -17.869  1.00  0.00     0.149 C 
BRANCH   7   8
HETATM    8  C11 UNL     1     -16.024  -1.171 -19.037  1.00  0.00     0.175 C 
HETATM    9  N3  UNL     1     -16.778  -1.443 -20.048  1.00  0.00    -0.246 N 
ATOM     10  H3  UNL     1     -17.764  -1.187 -19.996  1.00  0.00     0.196 HD
BRANCH   8  11
HETATM   11  O1  UNL     1     -14.700  -1.526 -19.134  1.00  0.00    -0.344 OA
ATOM     12  H1  UNL     1     -14.129  -1.234 -19.834  1.00  0.00     0.219 HD
ENDBRANCH   8  11
BRANCH   9  13
HETATM   13  O2  UNL     1     -16.330  -2.056 -21.182  1.00  0.00    -0.288 OA
ATOM     14  H2  UNL     1     -15.567  -1.768 -21.670  1.00  0.00     0.244 HD
ENDBRANCH   9  13
ENDBRANCH   7   8
ENDBRANCH   5   7
BRANCH   1  15
HETATM   15  C6  UNL     1     -20.718   1.721 -17.241  1.00  0.00     0.332 C 
BRANCH  15  16
HETATM   16  C5  UNL     1     -21.269   2.008 -15.917  1.00  0.00    -0.079 C 
HETATM   17  C4  UNL     1     -21.715   2.221 -14.816  1.00  0.00    -0.105 C 
BRANCH  17  18
HETATM   18  C3  UNL     1     -22.240   2.450 -13.472  1.00  0.00     0.093 C 
BRANCH  18  19
HETATM   19  C2  UNL     1     -23.745   2.548 -13.517  1.00  0.00     0.007 C 
HETATM   20  C1  UNL     1     -24.158   3.493 -12.409  1.00  0.00     0.006 C 
ENDBRANCH  18  19
ENDBRANCH  17  18
ENDBRANCH  15  16
ENDBRANCH   1  15
TORSDOF 8
ENDMDL
