MODEL 1
REMARK VINA RESULT: -5.484945156      0.000      0.000
REMARK  7 active torsions:
REMARK  status: ('A' for Active; 'I' for Inactive)
REMARK    1  A    between atoms: C2_2  and  C4_4 
REMARK    2  A    between atoms: N1_7  and  C7_8 
REMARK    3  A    between atoms: C7_8  and  C9_15 
REMARK    4  A    between atoms: N2_9  and  N3_11 
REMARK    5  A    between atoms: N3_11  and  C8_13 
REMARK    6  A    between atoms: C9_15  and  N4_16 
REMARK    7  A    between atoms: C9_15  and  C10_20 
ROOT
HETATM    1  C7  UNL     1     -18.681   1.578 -16.727  1.00  0.00     0.125 C 
HETATM    2  N2  UNL     1     -18.068   2.570 -16.181  1.00  0.00    -0.285 N 
ATOM      3  H2  UNL     1     -17.164   2.856 -16.556  1.00  0.00     0.188 HD
ENDROOT
BRANCH   1   4
HETATM    4  N1  UNL     1     -19.942   1.188 -16.197  1.00  0.00    -0.367 N 
HETATM    5  C6  UNL     1     -21.200   1.627 -16.770  1.00  0.00     0.124 C 
HETATM    6  C5  UNL     1     -22.249   0.746 -16.073  1.00  0.00     0.026 C 
HETATM    7  C4  UNL     1     -21.639   0.637 -14.705  1.00  0.00     0.008 C 
HETATM    8  C13 UNL     1     -20.205   0.322 -15.041  1.00  0.00     0.129 C 
BRANCH   7   9
HETATM    9  C2  UNL     1     -22.279  -0.413 -13.846  1.00  0.00    -0.017 C 
HETATM   10  C1  UNL     1     -23.752  -0.191 -13.647  1.00  0.00     0.010 C 
HETATM   11  C3  UNL     1     -21.622  -0.480 -12.491  1.00  0.00     0.010 C 
ENDBRANCH   7   9
ENDBRANCH   1   4
BRANCH   1  12
HETATM   12  C9  UNL     1     -18.062   0.890 -17.870  1.00  0.00     0.255 C 
BRANCH  12  13
HETATM   13  N4  UNL     1     -16.800   0.264 -17.539  1.00  0.00    -0.068 N 
ATOM     14  H43 UNL     1     -16.570   0.405 -16.555  1.00  0.00     0.275 HD
ATOM     15  H42 UNL     1     -16.885  -0.753 -17.545  1.00  0.00     0.275 HD
ATOM     16  H41 UNL     1     -16.034   0.568 -18.138  1.00  0.00     0.275 HD
ENDBRANCH  12  13
BRANCH  12  17
HETATM   17  C10 UNL     1     -17.873   1.850 -19.016  1.00  0.00     0.024 A 
HETATM   18  C11 UNL     1     -18.916   1.662 -20.140  1.00  0.00     0.007 A 
HETATM   19  C12 UNL     1     -17.451   1.292 -20.342  1.00  0.00     0.007 A 
ENDBRANCH  12  17
ENDBRANCH   1  12
BRANCH   2  20
HETATM   20  N3  UNL     1     -18.590   3.260 -15.108  1.00  0.00    -0.276 N 
ATOM     21  H3  UNL     1     -19.440   3.805 -15.252  1.00  0.00     0.189 HD
BRANCH  20  22
HETATM   22  C8  UNL     1     -18.073   3.253 -13.956  1.00  0.00     0.368 C 
HETATM   23  O1  UNL     1     -17.338   3.506 -12.990  1.00  0.00    -0.282 OA
ENDBRANCH  20  22
ENDBRANCH   2  20
TORSDOF 7
ENDMDL
MODEL 2
REMARK VINA RESULT: -5.432492614      1.758      2.242
REMARK  7 active torsions:
REMARK  status: ('A' for Active; 'I' for Inactive)
REMARK    1  A    between atoms: C2_2  and  C4_4 
REMARK    2  A    between atoms: N1_7  and  C7_8 
REMARK    3  A    between atoms: C7_8  and  C9_15 
REMARK    4  A    between atoms: N2_9  and  N3_11 
REMARK    5  A    between atoms: N3_11  and  C8_13 
REMARK    6  A    between atoms: C9_15  and  N4_16 
REMARK    7  A    between atoms: C9_15  and  C10_20 
ROOT
HETATM    1  C7  UNL     1     -17.540   0.409 -17.735  1.00  0.00     0.125 C 
HETATM    2  N2  UNL     1     -16.558   0.775 -16.987  1.00  0.00    -0.285 N 
ATOM      3  H2  UNL     1     -15.617   0.459 -17.222  1.00  0.00     0.188 HD
ENDROOT
BRANCH   1   4
HETATM    4  N1  UNL     1     -18.848   0.854 -17.399  1.00  0.00    -0.367 N 
HETATM    5  C6  UNL     1     -19.500   1.953 -18.086  1.00  0.00     0.124 C 
HETATM    6  C5  UNL     1     -20.956   1.880 -17.599  1.00  0.00     0.026 C 
HETATM    7  C4  UNL     1     -20.739   1.441 -16.179  1.00  0.00     0.008 C 
HETATM    8  C13 UNL     1     -19.740   0.328 -16.359  1.00  0.00     0.129 C 
BRANCH   7   9
HETATM    9  C2  UNL     1     -21.996   0.989 -15.494  1.00  0.00    -0.017 C 
HETATM   10  C1  UNL     1     -22.638   2.071 -14.673  1.00  0.00     0.010 C 
HETATM   11  C3  UNL     1     -21.729  -0.192 -14.597  1.00  0.00     0.010 C 
ENDBRANCH   7   9
ENDBRANCH   1   4
BRANCH   1  12
HETATM   12  C9  UNL     1     -17.277  -0.448 -18.902  1.00  0.00     0.255 C 
BRANCH  12  13
HETATM   13  N4  UNL     1     -16.041  -1.192 -18.790  1.00  0.00    -0.068 N 
ATOM     14  H43 UNL     1     -15.588  -1.015 -17.893  1.00  0.00     0.275 HD
ATOM     15  H42 UNL     1     -16.225  -2.191 -18.691  1.00  0.00     0.275 HD
ATOM     16  H41 UNL     1     -15.398  -1.016 -19.562  1.00  0.00     0.275 HD
ENDBRANCH  12  13
BRANCH  12  17
HETATM   17  C10 UNL     1     -17.266   0.378 -20.162  1.00  0.00     0.024 A 
HETATM   18  C11 UNL     1     -17.827  -0.380 -21.386  1.00  0.00     0.007 A 
HETATM   19  C12 UNL     1     -16.346  -0.038 -21.270  1.00  0.00     0.007 A 
ENDBRANCH  12  17
ENDBRANCH   1  12
BRANCH   2  20
HETATM   20  N3  UNL     1     -16.732   1.577 -15.880  1.00  0.00    -0.276 N 
ATOM     21  H3  UNL     1     -16.729   2.588 -16.011  1.00  0.00     0.189 HD
BRANCH  20  22
HETATM   22  C8  UNL     1     -16.896   1.126 -14.711  1.00  0.00     0.368 C 
HETATM   23  O1  UNL     1     -17.293   0.449 -13.751  1.00  0.00    -0.282 OA
ENDBRANCH  20  22
ENDBRANCH   2  20
TORSDOF 7
ENDMDL
MODEL 3
REMARK VINA RESULT: -5.272880530      2.631      5.443
REMARK  7 active torsions:
REMARK  status: ('A' for Active; 'I' for Inactive)
REMARK    1  A    between atoms: C2_2  and  C4_4 
REMARK    2  A    between atoms: N1_7  and  C7_8 
REMARK    3  A    between atoms: C7_8  and  C9_15 
REMARK    4  A    between atoms: N2_9  and  N3_11 
REMARK    5  A    between atoms: N3_11  and  C8_13 
REMARK    6  A    between atoms: C9_15  and  N4_16 
REMARK    7  A    between atoms: C9_15  and  C10_20 
ROOT
HETATM    1  C7  UNL     1     -19.812  -0.141 -14.527  1.00  0.00     0.125 C 
HETATM    2  N2  UNL     1     -19.600  -0.871 -13.488  1.00  0.00    -0.285 N 
ATOM      3  H2  UNL     1     -20.362  -1.017 -12.826  1.00  0.00     0.188 HD
ENDROOT
BRANCH   1   4
HETATM    4  N1  UNL     1     -18.743   0.057 -15.444  1.00  0.00    -0.367 N 
HETATM    5  C6  UNL     1     -17.758   1.109 -15.281  1.00  0.00     0.124 C 
HETATM    6  C5  UNL     1     -16.670   0.758 -16.308  1.00  0.00     0.026 C 
HETATM    7  C4  UNL     1     -17.520   0.205 -17.416  1.00  0.00     0.008 C 
HETATM    8  C13 UNL     1     -18.442  -0.713 -16.657  1.00  0.00     0.129 C 
BRANCH   7   9
HETATM    9  C2  UNL     1     -16.731  -0.509 -18.475  1.00  0.00    -0.017 C 
HETATM   10  C1  UNL     1     -17.009   0.005 -19.860  1.00  0.00     0.010 C 
HETATM   11  C3  UNL     1     -17.011  -1.989 -18.453  1.00  0.00     0.010 C 
ENDBRANCH   7   9
ENDBRANCH   1   4
BRANCH   1  12
HETATM   12  C9  UNL     1     -21.141   0.458 -14.728  1.00  0.00     0.255 C 
BRANCH  12  13
HETATM   13  N4  UNL     1     -22.224  -0.456 -14.432  1.00  0.00    -0.068 N 
ATOM     14  H43 UNL     1     -22.379  -1.101 -15.206  1.00  0.00     0.275 HD
ATOM     15  H42 UNL     1     -21.950  -1.124 -13.711  1.00  0.00     0.275 HD
ATOM     16  H41 UNL     1     -23.089   0.020 -14.176  1.00  0.00     0.275 HD
ENDBRANCH  12  13
BRANCH  12  17
HETATM   17  C10 UNL     1     -21.273   0.969 -16.140  1.00  0.00     0.024 A 
HETATM   18  C11 UNL     1     -21.254   2.511 -16.228  1.00  0.00     0.007 A 
HETATM   19  C12 UNL     1     -22.522   1.713 -16.506  1.00  0.00     0.007 A 
ENDBRANCH  12  17
ENDBRANCH   1  12
BRANCH   2  20
HETATM   20  N3  UNL     1     -18.380  -1.462 -13.238  1.00  0.00    -0.276 N 
ATOM     21  H3  UNL     1     -17.839  -1.804 -14.031  1.00  0.00     0.189 HD
BRANCH  20  22
HETATM   22  C8  UNL     1     -17.898  -1.602 -12.079  1.00  0.00     0.368 C 
HETATM   23  O1  UNL     1     -17.133  -1.881 -11.144  1.00  0.00    -0.282 OA
ENDBRANCH  20  22
ENDBRANCH   2  20
TORSDOF 7
ENDMDL
MODEL 4
REMARK VINA RESULT: -5.196819593      0.812      1.314
REMARK  7 active torsions:
REMARK  status: ('A' for Active; 'I' for Inactive)
REMARK    1  A    between atoms: C2_2  and  C4_4 
REMARK    2  A    between atoms: N1_7  and  C7_8 
REMARK    3  A    between atoms: C7_8  and  C9_15 
REMARK    4  A    between atoms: N2_9  and  N3_11 
REMARK    5  A    between atoms: N3_11  and  C8_13 
REMARK    6  A    between atoms: C9_15  and  N4_16 
REMARK    7  A    between atoms: C9_15  and  C10_20 
ROOT
HETATM    1  C7  UNL     1     -18.671   1.503 -16.430  1.00  0.00     0.125 C 
HETATM    2  N2  UNL     1     -18.212   2.653 -16.076  1.00  0.00    -0.285 N 
ATOM      3  H2  UNL     1     -17.504   3.100 -16.659  1.00  0.00     0.188 HD
ENDROOT
BRANCH   1   4
HETATM    4  N1  UNL     1     -19.657   0.888 -15.610  1.00  0.00    -0.367 N 
HETATM    5  C6  UNL     1     -19.361  -0.236 -14.742  1.00  0.00     0.124 C 
HETATM    6  C5  UNL     1     -20.616  -0.363 -13.863  1.00  0.00     0.026 C 
HETATM    7  C4  UNL     1     -21.676   0.012 -14.859  1.00  0.00     0.008 C 
HETATM    8  C13 UNL     1     -21.076   1.243 -15.486  1.00  0.00     0.129 C 
BRANCH   7   9
HETATM    9  C2  UNL     1     -23.016   0.272 -14.236  1.00  0.00    -0.017 C 
HETATM   10  C1  UNL     1     -23.203   1.704 -13.821  1.00  0.00     0.010 C 
HETATM   11  C3  UNL     1     -23.229  -0.603 -13.027  1.00  0.00     0.010 C 
ENDBRANCH   7   9
ENDBRANCH   1   4
BRANCH   1  12
HETATM   12  C9  UNL     1     -18.165   0.872 -17.658  1.00  0.00     0.255 C 
BRANCH  12  13
HETATM   13  N4  UNL     1     -16.921   0.159 -17.458  1.00  0.00    -0.068 N 
ATOM     14  H43 UNL     1     -16.154   0.620 -17.947  1.00  0.00     0.275 HD
ATOM     15  H42 UNL     1     -16.594   0.263 -16.497  1.00  0.00     0.275 HD
ATOM     16  H41 UNL     1     -16.979  -0.825 -17.718  1.00  0.00     0.275 HD
ENDBRANCH  12  13
BRANCH  12  17
HETATM   17  C10 UNL     1     -17.995   1.906 -18.742  1.00  0.00     0.024 A 
HETATM   18  C11 UNL     1     -19.081   1.816 -19.837  1.00  0.00     0.007 A 
HETATM   19  C12 UNL     1     -17.633   1.432 -20.117  1.00  0.00     0.007 A 
ENDBRANCH  12  17
ENDBRANCH   1  12
BRANCH   2  20
HETATM   20  N3  UNL     1     -18.641   3.301 -14.937  1.00  0.00    -0.276 N 
ATOM     21  H3  UNL     1     -19.520   3.816 -14.978  1.00  0.00     0.189 HD
BRANCH  20  22
HETATM   22  C8  UNL     1     -18.004   3.291 -13.847  1.00  0.00     0.368 C 
HETATM   23  O1  UNL     1     -17.292   3.635 -12.892  1.00  0.00    -0.282 OA
ENDBRANCH  20  22
ENDBRANCH   2  20
TORSDOF 7
ENDMDL
MODEL 5
REMARK VINA RESULT: -5.193469167      1.481      1.741
REMARK  7 active torsions:
REMARK  status: ('A' for Active; 'I' for Inactive)
REMARK    1  A    between atoms: C2_2  and  C4_4 
REMARK    2  A    between atoms: N1_7  and  C7_8 
REMARK    3  A    between atoms: C7_8  and  C9_15 
REMARK    4  A    between atoms: N2_9  and  N3_11 
REMARK    5  A    between atoms: N3_11  and  C8_13 
REMARK    6  A    between atoms: C9_15  and  N4_16 
REMARK    7  A    between atoms: C9_15  and  C10_20 
ROOT
HETATM    1  C7  UNL     1     -18.578   0.703 -16.847  1.00  0.00     0.125 C 
HETATM    2  N2  UNL     1     -17.649   1.528 -16.507  1.00  0.00    -0.285 N 
ATOM      3  H2  UNL     1     -16.684   1.310 -16.756  1.00  0.00     0.188 HD
ENDROOT
BRANCH   1   4
HETATM    4  N1  UNL     1     -19.920   1.016 -16.496  1.00  0.00    -0.367 N 
HETATM    5  C6  UNL     1     -20.794   1.787 -17.360  1.00  0.00     0.124 C 
HETATM    6  C5  UNL     1     -22.182   1.622 -16.722  1.00  0.00     0.026 C 
HETATM    7  C4  UNL     1     -21.806   1.604 -15.268  1.00  0.00     0.008 C 
HETATM    8  C13 UNL     1     -20.642   0.648 -15.272  1.00  0.00     0.129 C 
BRANCH   7   9
HETATM    9  C2  UNL     1     -22.920   1.159 -14.367  1.00  0.00    -0.017 C 
HETATM   10  C1  UNL     1     -22.936   1.883 -13.051  1.00  0.00     0.010 C 
HETATM   11  C3  UNL     1     -22.837  -0.321 -14.093  1.00  0.00     0.010 C 
ENDBRANCH   7   9
ENDBRANCH   1   4
BRANCH   1  12
HETATM   12  C9  UNL     1     -18.222  -0.522 -17.579  1.00  0.00     0.255 C 
BRANCH  12  13
HETATM   13  N4  UNL     1     -18.193  -1.698 -16.734  1.00  0.00    -0.068 N 
ATOM     14  H43 UNL     1     -17.285  -2.159 -16.783  1.00  0.00     0.275 HD
ATOM     15  H42 UNL     1     -18.197  -1.437 -15.748  1.00  0.00     0.275 HD
ATOM     16  H41 UNL     1     -18.946  -2.354 -16.940  1.00  0.00     0.275 HD
ENDBRANCH  12  13
BRANCH  12  17
HETATM   17  C10 UNL     1     -16.891  -0.350 -18.264  1.00  0.00     0.024 A 
HETATM   18  C11 UNL     1     -16.991  -0.425 -19.804  1.00  0.00     0.007 A 
HETATM   19  C12 UNL     1     -16.318  -1.527 -18.995  1.00  0.00     0.007 A 
ENDBRANCH  12  17
ENDBRANCH   1  12
BRANCH   2  20
HETATM   20  N3  UNL     1     -17.911   2.694 -15.821  1.00  0.00    -0.276 N 
ATOM     21  H3  UNL     1     -18.236   3.503 -16.351  1.00  0.00     0.189 HD
BRANCH  20  22
HETATM   22  C8  UNL     1     -17.771   2.815 -14.572  1.00  0.00     0.368 C 
HETATM   23  O1  UNL     1     -17.491   3.270 -13.454  1.00  0.00    -0.282 OA
ENDBRANCH  20  22
ENDBRANCH   2  20
TORSDOF 7
ENDMDL
