MODEL 1
REMARK VINA RESULT: -6.795970157      0.000      0.000
REMARK  14 active torsions:
REMARK  status: ('A' for Active; 'I' for Inactive)
REMARK    1  A    between atoms: C6_6  and  O1_7 
REMARK    2  A    between atoms: C7_11  and  C8_12 
REMARK    3  A    between atoms: C8_12  and  C9_13 
REMARK    4  A    between atoms: C13_20  and  C14_21 
REMARK    5  A    between atoms: C14_21  and  C15_22 
REMARK    6  A    between atoms: C15_22  and  C16_23 
REMARK    7  A    between atoms: C16_23  and  C17_24 
REMARK    8  A    between atoms: C17_24  and  N3_25 
REMARK    9  A    between atoms: C19_33  and  C20_34 
REMARK   10  A    between atoms: C24_41  and  C25_42 
REMARK   11  A    between atoms: C25_42  and  C26_43 
REMARK   12  A    between atoms: C30_50  and  C31_51 
REMARK   13  A    between atoms: C31_51  and  C32_52 
REMARK   14  A    between atoms: C35_55  and  O6_56 
ROOT
HETATM    1  C1  UNL     1      20.128  33.285  15.589  1.00  0.00     0.048 C 
HETATM    2  C2  UNL     1      20.161  34.515  16.511  1.00  0.00    -0.060 C 
HETATM    3  C3  UNL     1      19.482  34.410  17.651  1.00  0.00     0.007 C 
HETATM    4  C4  UNL     1      19.274  35.324  18.738  1.00  0.00     0.005 C 
HETATM    5  C5  UNL     1      18.621  36.446  18.867  1.00  0.00     0.055 C 
HETATM    6  C6  UNL     1      17.832  37.241  17.952  1.00  0.00     0.136 C 
HETATM    7  N1  UNL     1      18.162  38.250  17.047  1.00  0.00    -0.358 N 
ATOM      8  H1  UNL     1      18.081  37.976  16.068  1.00  0.00     0.162 HD
HETATM    9  C7  UNL     1      18.597  39.613  17.247  1.00  0.00     0.176 C 
HETATM   10  C12 UNL     1      20.071  39.674  17.336  1.00  0.00     0.241 C 
HETATM   11  O2  UNL     1      20.518  38.781  18.154  1.00  0.00    -0.271 OA
HETATM   12  N2  UNL     1      20.995  40.489  16.718  1.00  0.00    -0.346 N 
ATOM     13  H2  UNL     1      21.646  39.999  16.105  1.00  0.00     0.163 HD
HETATM   14  C13 UNL     1      21.201  41.917  16.788  1.00  0.00     0.176 C 
HETATM   15  C18 UNL     1      22.080  42.347  17.903  1.00  0.00     0.241 C 
HETATM   16  O3  UNL     1      21.511  43.104  18.787  1.00  0.00    -0.271 OA
HETATM   17  N4  UNL     1      23.426  42.030  18.098  1.00  0.00    -0.346 N 
ATOM     18  H4  UNL     1      24.062  42.824  18.171  1.00  0.00     0.163 HD
HETATM   19  C19 UNL     1      24.034  40.727  18.211  1.00  0.00     0.180 C 
HETATM   20  C23 UNL     1      23.807  40.144  19.576  1.00  0.00     0.241 C 
HETATM   21  O4  UNL     1      23.876  41.000  20.522  1.00  0.00    -0.271 OA
HETATM   22  N5  UNL     1      23.542  38.834  19.907  1.00  0.00    -0.346 N 
ATOM     23  H5  UNL     1      22.766  38.671  20.549  1.00  0.00     0.163 HD
HETATM   24  C24 UNL     1      24.275  37.632  19.424  1.00  0.00     0.177 C 
HETATM   25  C29 UNL     1      23.340  36.486  19.548  1.00  0.00     0.241 C 
HETATM   26  O5  UNL     1      22.888  36.315  20.735  1.00  0.00    -0.271 OA
HETATM   27  N6  UNL     1      22.929  35.618  18.521  1.00  0.00    -0.349 N 
ATOM     28  H6  UNL     1      22.374  34.816  18.818  1.00  0.00     0.163 HD
HETATM   29  C30 UNL     1      23.182  35.705  17.120  1.00  0.00     0.141 C 
HETATM   30  C35 UNL     1      22.100  36.134  16.245  1.00  0.00     0.066 C 
HETATM   31  C36 UNL     1      20.917  35.647  16.019  1.00  0.00     0.041 C 
ENDROOT
BRANCH  14  32
HETATM   32  C14 UNL     1      21.802  42.389  15.446  1.00  0.00     0.035 C 
BRANCH  32  33
HETATM   33  C15 UNL     1      22.604  41.227  14.917  1.00  0.00     0.004 C 
BRANCH  33  34
HETATM   34  C16 UNL     1      22.609  41.181  13.407  1.00  0.00     0.027 C 
BRANCH  34  35
HETATM   35  C17 UNL     1      21.942  39.929  12.881  1.00  0.00     0.229 C 
BRANCH  35  36
HETATM   36  N3  UNL     1      22.127  39.903  11.444  1.00  0.00    -0.079 N 
ATOM     37  H33 UNL     1      21.277  40.134  10.931  1.00  0.00     0.274 HD
ATOM     38  H32 UNL     1      22.703  40.674  11.104  1.00  0.00     0.274 HD
ATOM     39  H31 UNL     1      22.504  38.988  11.196  1.00  0.00     0.274 HD
ENDBRANCH  35  36
ENDBRANCH  34  35
ENDBRANCH  33  34
ENDBRANCH  32  33
ENDBRANCH  14  32
BRANCH   9  40
HETATM   40  C8  UNL     1      18.000  40.521  16.190  1.00  0.00     0.038 C 
BRANCH  40  41
HETATM   41  C9  UNL     1      16.771  41.160  16.834  1.00  0.00    -0.020 C 
HETATM   42  C10 UNL     1      16.843  42.637  16.531  1.00  0.00     0.009 C 
HETATM   43  C11 UNL     1      16.834  40.981  18.323  1.00  0.00     0.009 C 
ENDBRANCH  40  41
ENDBRANCH   9  40
BRANCH  19  44
HETATM   44  C20 UNL     1      25.519  40.847  18.010  1.00  0.00     0.009 C 
HETATM   45  C21 UNL     1      26.200  41.797  18.943  1.00  0.00     0.012 C 
HETATM   46  C22 UNL     1      25.882  41.247  16.599  1.00  0.00     0.012 C 
ENDBRANCH  19  44
BRANCH   6  47
HETATM   47  O1  UNL     1      16.535  36.976  17.963  1.00  0.00    -0.346 OA
ATOM     48  H1  UNL     1      16.021  37.525  18.542  1.00  0.00     0.219 HD
ENDBRANCH   6  47
BRANCH  24  49
HETATM   49  C25 UNL     1      25.467  37.396  20.288  1.00  0.00     0.038 C 
BRANCH  49  50
HETATM   50  C26 UNL     1      26.362  38.515  20.606  1.00  0.00    -0.020 C 
HETATM   51  C27 UNL     1      27.691  38.523  19.890  1.00  0.00     0.009 C 
HETATM   52  C28 UNL     1      26.579  38.864  22.048  1.00  0.00     0.009 C 
ENDBRANCH  49  50
ENDBRANCH  24  49
BRANCH  29  53
HETATM   53  C31 UNL     1      23.773  34.358  16.684  1.00  0.00     0.036 C 
BRANCH  53  54
HETATM   54  C32 UNL     1      23.667  34.156  15.187  1.00  0.00    -0.020 C 
HETATM   55  C33 UNL     1      24.799  34.749  14.407  1.00  0.00     0.009 C 
HETATM   56  C34 UNL     1      23.674  32.632  14.985  1.00  0.00     0.009 C 
ENDBRANCH  53  54
ENDBRANCH  29  53
BRANCH  30  57
HETATM   57  O6  UNL     1      22.413  37.326  15.492  1.00  0.00    -0.363 OA
ATOM     58  H6  UNL     1      21.913  38.086  15.766  1.00  0.00     0.217 HD
ENDBRANCH  30  57
TORSDOF 14
ENDMDL
MODEL 2
REMARK VINA RESULT: -6.630210026      3.288      6.693
REMARK  14 active torsions:
REMARK  status: ('A' for Active; 'I' for Inactive)
REMARK    1  A    between atoms: C6_6  and  O1_7 
REMARK    2  A    between atoms: C7_11  and  C8_12 
REMARK    3  A    between atoms: C8_12  and  C9_13 
REMARK    4  A    between atoms: C13_20  and  C14_21 
REMARK    5  A    between atoms: C14_21  and  C15_22 
REMARK    6  A    between atoms: C15_22  and  C16_23 
REMARK    7  A    between atoms: C16_23  and  C17_24 
REMARK    8  A    between atoms: C17_24  and  N3_25 
REMARK    9  A    between atoms: C19_33  and  C20_34 
REMARK   10  A    between atoms: C24_41  and  C25_42 
REMARK   11  A    between atoms: C25_42  and  C26_43 
REMARK   12  A    between atoms: C30_50  and  C31_51 
REMARK   13  A    between atoms: C31_51  and  C32_52 
REMARK   14  A    between atoms: C35_55  and  O6_56 
ROOT
HETATM    1  C1  UNL     1      21.981  39.880  13.389  1.00  0.00     0.048 C 
HETATM    2  C2  UNL     1      21.597  39.643  14.859  1.00  0.00    -0.060 C 
HETATM    3  C3  UNL     1      22.346  38.767  15.526  1.00  0.00     0.007 C 
HETATM    4  C4  UNL     1      22.297  38.286  16.876  1.00  0.00     0.005 C 
HETATM    5  C5  UNL     1      21.461  37.538  17.542  1.00  0.00     0.055 C 
HETATM    6  C6  UNL     1      20.223  36.881  17.186  1.00  0.00     0.136 C 
HETATM    7  N1  UNL     1      18.892  37.301  17.191  1.00  0.00    -0.358 N 
ATOM      8  H1  UNL     1      18.492  37.431  16.262  1.00  0.00     0.162 HD
HETATM    9  C7  UNL     1      17.980  37.586  18.274  1.00  0.00     0.176 C 
HETATM   10  C12 UNL     1      18.079  39.006  18.671  1.00  0.00     0.241 C 
HETATM   11  O2  UNL     1      19.313  39.354  18.824  1.00  0.00    -0.271 OA
HETATM   12  N2  UNL     1      17.116  39.967  18.889  1.00  0.00    -0.346 N 
ATOM     13  H2  UNL     1      17.157  40.759  18.248  1.00  0.00     0.163 HD
HETATM   14  C13 UNL     1      16.058  40.047  19.869  1.00  0.00     0.176 C 
HETATM   15  C18 UNL     1      16.471  40.660  21.156  1.00  0.00     0.241 C 
HETATM   16  O3  UNL     1      16.395  39.877  22.185  1.00  0.00    -0.271 OA
HETATM   17  N4  UNL     1      16.923  41.964  21.372  1.00  0.00    -0.346 N 
ATOM     18  H4  UNL     1      16.388  42.513  22.046  1.00  0.00     0.163 HD
HETATM   19  C19 UNL     1      18.048  42.636  20.768  1.00  0.00     0.180 C 
HETATM   20  C23 UNL     1      19.337  42.195  21.397  1.00  0.00     0.241 C 
HETATM   21  O4  UNL     1      19.263  42.017  22.660  1.00  0.00    -0.271 OA
HETATM   22  N5  UNL     1      20.550  41.972  20.783  1.00  0.00    -0.346 N 
ATOM     23  H5  UNL     1      21.028  41.102  21.016  1.00  0.00     0.163 HD
HETATM   24  C24 UNL     1      21.232  42.873  19.814  1.00  0.00     0.177 C 
HETATM   25  C29 UNL     1      22.146  42.021  19.013  1.00  0.00     0.241 C 
HETATM   26  O5  UNL     1      22.990  41.364  19.719  1.00  0.00    -0.271 OA
HETATM   27  N6  UNL     1      22.158  41.882  17.614  1.00  0.00    -0.349 N 
ATOM     28  H6  UNL     1      22.935  41.342  17.232  1.00  0.00     0.163 HD
HETATM   29  C30 UNL     1      21.234  42.392  16.655  1.00  0.00     0.141 C 
HETATM   30  C35 UNL     1      20.288  41.469  16.044  1.00  0.00     0.066 C 
HETATM   31  C36 UNL     1      20.454  40.391  15.337  1.00  0.00     0.041 C 
ENDROOT
BRANCH  14  32
HETATM   32  C14 UNL     1      14.891  40.858  19.263  1.00  0.00     0.035 C 
BRANCH  32  33
HETATM   33  C15 UNL     1      15.497  41.712  18.178  1.00  0.00     0.004 C 
BRANCH  33  34
HETATM   34  C16 UNL     1      15.119  43.167  18.324  1.00  0.00     0.027 C 
BRANCH  34  35
HETATM   35  C17 UNL     1      15.613  43.996  17.159  1.00  0.00     0.229 C 
BRANCH  35  36
HETATM   36  N3  UNL     1      16.214  43.091  16.199  1.00  0.00    -0.079 N 
ATOM     37  H33 UNL     1      15.666  42.242  16.059  1.00  0.00     0.274 HD
ATOM     38  H32 UNL     1      16.168  43.441  15.242  1.00  0.00     0.274 HD
ATOM     39  H31 UNL     1      17.168  42.901  16.507  1.00  0.00     0.274 HD
ENDBRANCH  35  36
ENDBRANCH  34  35
ENDBRANCH  33  34
ENDBRANCH  32  33
ENDBRANCH  14  32
BRANCH   9  40
HETATM   40  C8  UNL     1      16.577  37.136  17.919  1.00  0.00     0.038 C 
BRANCH  40  41
HETATM   41  C9  UNL     1      16.735  35.786  17.222  1.00  0.00    -0.020 C 
HETATM   42  C10 UNL     1      15.883  35.842  15.976  1.00  0.00     0.009 C 
HETATM   43  C11 UNL     1      16.201  34.698  18.108  1.00  0.00     0.009 C 
ENDBRANCH  40  41
ENDBRANCH   9  40
BRANCH  19  44
HETATM   44  C20 UNL     1      17.920  44.118  20.982  1.00  0.00     0.009 C 
HETATM   45  C21 UNL     1      16.607  44.556  21.550  1.00  0.00     0.012 C 
HETATM   46  C22 UNL     1      18.162  44.909  19.719  1.00  0.00     0.012 C 
ENDBRANCH  19  44
BRANCH   6  47
HETATM   47  O1  UNL     1      20.356  35.630  16.774  1.00  0.00    -0.346 OA
ATOM     48  H1  UNL     1      20.250  35.505  15.839  1.00  0.00     0.219 HD
ENDBRANCH   6  47
BRANCH  24  49
HETATM   49  C25 UNL     1      22.028  43.891  20.558  1.00  0.00     0.038 C 
BRANCH  49  50
HETATM   50  C26 UNL     1      22.493  45.096  19.861  1.00  0.00    -0.020 C 
HETATM   51  C27 UNL     1      21.674  45.530  18.670  1.00  0.00     0.009 C 
HETATM   52  C28 UNL     1      23.950  45.202  19.519  1.00  0.00     0.009 C 
ENDBRANCH  49  50
ENDBRANCH  24  49
BRANCH  29  53
HETATM   53  C31 UNL     1      22.050  43.155  15.604  1.00  0.00     0.036 C 
BRANCH  53  54
HETATM   54  C32 UNL     1      23.539  43.037  15.853  1.00  0.00    -0.020 C 
HETATM   55  C33 UNL     1      24.283  42.298  14.785  1.00  0.00     0.009 C 
HETATM   56  C34 UNL     1      24.055  44.485  15.902  1.00  0.00     0.009 C 
ENDBRANCH  53  54
ENDBRANCH  29  53
BRANCH  30  57
HETATM   57  O6  UNL     1      18.908  41.830  16.274  1.00  0.00    -0.363 OA
ATOM     58  H6  UNL     1      18.504  42.260  15.529  1.00  0.00     0.217 HD
ENDBRANCH  30  57
TORSDOF 14
ENDMDL
MODEL 3
REMARK VINA RESULT: -6.502004407      2.142      6.943
REMARK  14 active torsions:
REMARK  status: ('A' for Active; 'I' for Inactive)
REMARK    1  A    between atoms: C6_6  and  O1_7 
REMARK    2  A    between atoms: C7_11  and  C8_12 
REMARK    3  A    between atoms: C8_12  and  C9_13 
REMARK    4  A    between atoms: C13_20  and  C14_21 
REMARK    5  A    between atoms: C14_21  and  C15_22 
REMARK    6  A    between atoms: C15_22  and  C16_23 
REMARK    7  A    between atoms: C16_23  and  C17_24 
REMARK    8  A    between atoms: C17_24  and  N3_25 
REMARK    9  A    between atoms: C19_33  and  C20_34 
REMARK   10  A    between atoms: C24_41  and  C25_42 
REMARK   11  A    between atoms: C25_42  and  C26_43 
REMARK   12  A    between atoms: C30_50  and  C31_51 
REMARK   13  A    between atoms: C31_51  and  C32_52 
REMARK   14  A    between atoms: C35_55  and  O6_56 
ROOT
HETATM    1  C1  UNL     1      17.772  36.779  18.535  1.00  0.00     0.048 C 
HETATM    2  C2  UNL     1      19.240  36.986  18.127  1.00  0.00    -0.060 C 
HETATM    3  C3  UNL     1      19.757  36.068  17.313  1.00  0.00     0.007 C 
HETATM    4  C4  UNL     1      21.060  35.915  16.733  1.00  0.00     0.005 C 
HETATM    5  C5  UNL     1      22.240  35.638  17.216  1.00  0.00     0.055 C 
HETATM    6  C6  UNL     1      22.724  35.370  18.552  1.00  0.00     0.136 C 
HETATM    7  N1  UNL     1      23.178  36.198  19.579  1.00  0.00    -0.358 N 
ATOM      8  H1  UNL     1      22.544  36.261  20.376  1.00  0.00     0.162 HD
HETATM    9  C7  UNL     1      24.382  36.983  19.717  1.00  0.00     0.176 C 
HETATM   10  C12 UNL     1      24.179  38.340  19.168  1.00  0.00     0.241 C 
HETATM   11  O2  UNL     1      23.636  38.283  17.998  1.00  0.00    -0.271 OA
HETATM   12  N2  UNL     1      24.460  39.588  19.679  1.00  0.00    -0.346 N 
ATOM     13  H2  UNL     1      23.640  40.174  19.837  1.00  0.00     0.163 HD
HETATM   14  C13 UNL     1      25.714  40.211  20.030  1.00  0.00     0.176 C 
HETATM   15  C18 UNL     1      26.383  40.902  18.900  1.00  0.00     0.241 C 
HETATM   16  O3  UNL     1      27.536  40.415  18.566  1.00  0.00    -0.271 OA
HETATM   17  N4  UNL     1      25.914  41.998  18.172  1.00  0.00    -0.346 N 
ATOM     18  H4  UNL     1      26.521  42.818  18.164  1.00  0.00     0.163 HD
HETATM   19  C19 UNL     1      24.682  42.122  17.431  1.00  0.00     0.180 C 
HETATM   20  C23 UNL     1      24.777  41.418  16.109  1.00  0.00     0.241 C 
HETATM   21  O4  UNL     1      25.916  41.535  15.541  1.00  0.00    -0.271 OA
HETATM   22  N5  UNL     1      23.805  40.686  15.464  1.00  0.00    -0.346 N 
ATOM     23  H5  UNL     1      24.083  39.773  15.103  1.00  0.00     0.163 HD
HETATM   24  C24 UNL     1      22.391  41.093  15.241  1.00  0.00     0.177 C 
HETATM   25  C29 UNL     1      21.613  39.842  15.057  1.00  0.00     0.241 C 
HETATM   26  O5  UNL     1      22.045  39.102  14.104  1.00  0.00    -0.271 OA
HETATM   27  N6  UNL     1      20.499  39.425  15.806  1.00  0.00    -0.349 N 
ATOM     28  H6  UNL     1      20.022  38.593  15.459  1.00  0.00     0.163 HD
HETATM   29  C30 UNL     1      19.944  40.006  16.984  1.00  0.00     0.141 C 
HETATM   30  C35 UNL     1      20.178  39.343  18.259  1.00  0.00     0.066 C 
HETATM   31  C36 UNL     1      19.889  38.151  18.689  1.00  0.00     0.041 C 
ENDROOT
BRANCH  14  32
HETATM   32  C14 UNL     1      25.456  41.221  21.170  1.00  0.00     0.035 C 
BRANCH  32  33
HETATM   33  C15 UNL     1      24.037  41.698  20.990  1.00  0.00     0.004 C 
BRANCH  33  34
HETATM   34  C16 UNL     1      23.924  43.200  21.108  1.00  0.00     0.027 C 
BRANCH  34  35
HETATM   35  C17 UNL     1      22.484  43.647  21.224  1.00  0.00     0.229 C 
BRANCH  35  36
HETATM   36  N3  UNL     1      21.645  42.540  20.811  1.00  0.00    -0.079 N 
ATOM     37  H33 UNL     1      21.700  42.353  19.810  1.00  0.00     0.274 HD
ATOM     38  H32 UNL     1      21.991  41.637  21.136  1.00  0.00     0.274 HD
ATOM     39  H31 UNL     1      20.694  42.737  21.127  1.00  0.00     0.274 HD
ENDBRANCH  35  36
ENDBRANCH  34  35
ENDBRANCH  33  34
ENDBRANCH  32  33
ENDBRANCH  14  32
BRANCH   9  40
HETATM   40  C8  UNL     1      24.870  36.960  21.153  1.00  0.00     0.038 C 
BRANCH  40  41
HETATM   41  C9  UNL     1      26.387  36.807  21.076  1.00  0.00    -0.020 C 
HETATM   42  C10 UNL     1      26.677  35.327  21.153  1.00  0.00     0.009 C 
HETATM   43  C11 UNL     1      27.019  37.473  22.265  1.00  0.00     0.009 C 
ENDBRANCH  40  41
ENDBRANCH   9  40
BRANCH  19  44
HETATM   44  C20 UNL     1      24.407  43.574  17.155  1.00  0.00     0.009 C 
HETATM   45  C21 UNL     1      25.318  44.527  17.862  1.00  0.00     0.012 C 
HETATM   46  C22 UNL     1      22.986  43.967  17.480  1.00  0.00     0.012 C 
ENDBRANCH  19  44
BRANCH   6  47
HETATM   47  O1  UNL     1      22.753  34.089  18.886  1.00  0.00    -0.346 OA
ATOM     48  H1  UNL     1      23.400  33.863  19.543  1.00  0.00     0.219 HD
ENDBRANCH   6  47
BRANCH  24  49
HETATM   49  C25 UNL     1      22.302  41.920  14.003  1.00  0.00     0.038 C 
BRANCH  49  50
HETATM   50  C26 UNL     1      23.461  42.008  13.106  1.00  0.00    -0.020 C 
HETATM   51  C27 UNL     1      24.087  43.374  12.967  1.00  0.00     0.009 C 
HETATM   52  C28 UNL     1      23.362  41.372  11.752  1.00  0.00     0.009 C 
ENDBRANCH  49  50
ENDBRANCH  24  49
BRANCH  29  53
HETATM   53  C31 UNL     1      18.449  40.225  16.718  1.00  0.00     0.036 C 
BRANCH  53  54
HETATM   54  C32 UNL     1      17.998  41.606  17.145  1.00  0.00    -0.020 C 
HETATM   55  C33 UNL     1      18.912  42.710  16.714  1.00  0.00     0.009 C 
HETATM   56  C34 UNL     1      16.629  41.807  16.474  1.00  0.00     0.009 C 
ENDBRANCH  53  54
ENDBRANCH  29  53
BRANCH  30  57
HETATM   57  O6  UNL     1      20.859  40.179  19.221  1.00  0.00    -0.363 OA
ATOM     58  H6  UNL     1      20.272  40.594  19.841  1.00  0.00     0.217 HD
ENDBRANCH  30  57
TORSDOF 14
ENDMDL
MODEL 4
REMARK VINA RESULT: -6.486037231      2.196      7.187
REMARK  14 active torsions:
REMARK  status: ('A' for Active; 'I' for Inactive)
REMARK    1  A    between atoms: C6_6  and  O1_7 
REMARK    2  A    between atoms: C7_11  and  C8_12 
REMARK    3  A    between atoms: C8_12  and  C9_13 
REMARK    4  A    between atoms: C13_20  and  C14_21 
REMARK    5  A    between atoms: C14_21  and  C15_22 
REMARK    6  A    between atoms: C15_22  and  C16_23 
REMARK    7  A    between atoms: C16_23  and  C17_24 
REMARK    8  A    between atoms: C17_24  and  N3_25 
REMARK    9  A    between atoms: C19_33  and  C20_34 
REMARK   10  A    between atoms: C24_41  and  C25_42 
REMARK   11  A    between atoms: C25_42  and  C26_43 
REMARK   12  A    between atoms: C30_50  and  C31_51 
REMARK   13  A    between atoms: C31_51  and  C32_52 
REMARK   14  A    between atoms: C35_55  and  O6_56 
ROOT
HETATM    1  C1  UNL     1      17.823  36.611  18.502  1.00  0.00     0.048 C 
HETATM    2  C2  UNL     1      19.290  36.844  18.106  1.00  0.00    -0.060 C 
HETATM    3  C3  UNL     1      19.824  35.945  17.282  1.00  0.00     0.007 C 
HETATM    4  C4  UNL     1      21.133  35.819  16.708  1.00  0.00     0.005 C 
HETATM    5  C5  UNL     1      22.313  35.550  17.193  1.00  0.00     0.055 C 
HETATM    6  C6  UNL     1      22.792  35.268  18.528  1.00  0.00     0.136 C 
HETATM    7  N1  UNL     1      23.229  36.085  19.570  1.00  0.00    -0.358 N 
ATOM      8  H1  UNL     1      22.590  36.127  20.364  1.00  0.00     0.162 HD
HETATM    9  C7  UNL     1      24.422  36.884  19.729  1.00  0.00     0.176 C 
HETATM   10  C12 UNL     1      24.204  38.246  19.199  1.00  0.00     0.241 C 
HETATM   11  O2  UNL     1      23.669  38.201  18.026  1.00  0.00    -0.271 OA
HETATM   12  N2  UNL     1      24.465  39.490  19.732  1.00  0.00    -0.346 N 
ATOM     13  H2  UNL     1      23.637  40.062  19.894  1.00  0.00     0.163 HD
HETATM   14  C13 UNL     1      25.709  40.124  20.101  1.00  0.00     0.176 C 
HETATM   15  C18 UNL     1      26.375  40.842  18.986  1.00  0.00     0.241 C 
HETATM   16  O3  UNL     1      27.537  40.374  18.651  1.00  0.00    -0.271 OA
HETATM   17  N4  UNL     1      25.896  41.943  18.273  1.00  0.00    -0.346 N 
ATOM     18  H4  UNL     1      26.492  42.770  18.281  1.00  0.00     0.163 HD
HETATM   19  C19 UNL     1      24.667  42.062  17.526  1.00  0.00     0.180 C 
HETATM   20  C23 UNL     1      24.780  41.380  16.194  1.00  0.00     0.241 C 
HETATM   21  O4  UNL     1      25.920  41.521  15.635  1.00  0.00    -0.271 OA
HETATM   22  N5  UNL     1      23.821  40.645  15.531  1.00  0.00    -0.346 N 
ATOM     23  H5  UNL     1      24.113  39.742  15.157  1.00  0.00     0.163 HD
HETATM   24  C24 UNL     1      22.403  41.037  15.305  1.00  0.00     0.177 C 
HETATM   25  C29 UNL     1      21.643  39.779  15.096  1.00  0.00     0.241 C 
HETATM   26  O5  UNL     1      22.090  39.060  14.135  1.00  0.00    -0.271 OA
HETATM   27  N6  UNL     1      20.530  39.336  15.832  1.00  0.00    -0.349 N 
ATOM     28  H6  UNL     1      20.066  38.503  15.469  1.00  0.00     0.163 HD
HETATM   29  C30 UNL     1      19.960  39.890  17.016  1.00  0.00     0.141 C 
HETATM   30  C35 UNL     1      20.195  39.211  18.282  1.00  0.00     0.066 C 
HETATM   31  C36 UNL     1      19.919  38.009  18.691  1.00  0.00     0.041 C 
ENDROOT
BRANCH  14  32
HETATM   32  C14 UNL     1      25.430  41.112  21.255  1.00  0.00     0.035 C 
BRANCH  32  33
HETATM   33  C15 UNL     1      26.420  40.772  22.341  1.00  0.00     0.004 C 
BRANCH  33  34
HETATM   34  C16 UNL     1      27.713  41.538  22.190  1.00  0.00     0.027 C 
BRANCH  34  35
HETATM   35  C17 UNL     1      28.919  40.647  22.388  1.00  0.00     0.229 C 
BRANCH  35  36
HETATM   36  N3  UNL     1      29.265  40.082  21.099  1.00  0.00    -0.079 N 
ATOM     37  H33 UNL     1      28.562  39.433  20.750  1.00  0.00     0.274 HD
ATOM     38  H32 UNL     1      29.210  40.762  20.341  1.00  0.00     0.274 HD
ATOM     39  H31 UNL     1      30.190  39.659  21.185  1.00  0.00     0.274 HD
ENDBRANCH  35  36
ENDBRANCH  34  35
ENDBRANCH  33  34
ENDBRANCH  32  33
ENDBRANCH  14  32
BRANCH   9  40
HETATM   40  C8  UNL     1      24.901  36.844  21.167  1.00  0.00     0.038 C 
BRANCH  40  41
HETATM   41  C9  UNL     1      26.419  36.698  21.098  1.00  0.00    -0.020 C 
HETATM   42  C10 UNL     1      26.712  35.217  21.124  1.00  0.00     0.009 C 
HETATM   43  C11 UNL     1      27.040  37.323  22.314  1.00  0.00     0.009 C 
ENDBRANCH  40  41
ENDBRANCH   9  40
BRANCH  19  44
HETATM   44  C20 UNL     1      24.374  43.514  17.270  1.00  0.00     0.009 C 
HETATM   45  C21 UNL     1      25.255  44.468  18.015  1.00  0.00     0.012 C 
HETATM   46  C22 UNL     1      22.941  43.878  17.573  1.00  0.00     0.012 C 
ENDBRANCH  19  44
BRANCH   6  47
HETATM   47  O1  UNL     1      22.836  33.982  18.841  1.00  0.00    -0.346 OA
ATOM     48  H1  UNL     1      23.664  33.688  19.202  1.00  0.00     0.219 HD
ENDBRANCH   6  47
BRANCH  24  49
HETATM   49  C25 UNL     1      22.310  41.882  14.080  1.00  0.00     0.038 C 
BRANCH  49  50
HETATM   50  C26 UNL     1      23.452  41.949  13.159  1.00  0.00    -0.020 C 
HETATM   51  C27 UNL     1      24.104  43.301  13.010  1.00  0.00     0.009 C 
HETATM   52  C28 UNL     1      23.310  41.320  11.804  1.00  0.00     0.009 C 
ENDBRANCH  49  50
ENDBRANCH  24  49
BRANCH  29  53
HETATM   53  C31 UNL     1      18.464  40.094  16.744  1.00  0.00     0.036 C 
BRANCH  53  54
HETATM   54  C32 UNL     1      17.993  41.464  17.183  1.00  0.00    -0.020 C 
HETATM   55  C33 UNL     1      18.847  42.592  16.694  1.00  0.00     0.009 C 
HETATM   56  C34 UNL     1      16.584  41.616  16.587  1.00  0.00     0.009 C 
ENDBRANCH  53  54
ENDBRANCH  29  53
BRANCH  30  57
HETATM   57  O6  UNL     1      20.860  40.040  19.260  1.00  0.00    -0.363 OA
ATOM     58  H6  UNL     1      21.751  40.266  19.019  1.00  0.00     0.217 HD
ENDBRANCH  30  57
TORSDOF 14
ENDMDL
MODEL 5
REMARK VINA RESULT: -6.376933112      3.386      7.083
REMARK  14 active torsions:
REMARK  status: ('A' for Active; 'I' for Inactive)
REMARK    1  A    between atoms: C6_6  and  O1_7 
REMARK    2  A    between atoms: C7_11  and  C8_12 
REMARK    3  A    between atoms: C8_12  and  C9_13 
REMARK    4  A    between atoms: C13_20  and  C14_21 
REMARK    5  A    between atoms: C14_21  and  C15_22 
REMARK    6  A    between atoms: C15_22  and  C16_23 
REMARK    7  A    between atoms: C16_23  and  C17_24 
REMARK    8  A    between atoms: C17_24  and  N3_25 
REMARK    9  A    between atoms: C19_33  and  C20_34 
REMARK   10  A    between atoms: C24_41  and  C25_42 
REMARK   11  A    between atoms: C25_42  and  C26_43 
REMARK   12  A    between atoms: C30_50  and  C31_51 
REMARK   13  A    between atoms: C31_51  and  C32_52 
REMARK   14  A    between atoms: C35_55  and  O6_56 
ROOT
HETATM    1  C1  UNL     1      22.385  40.248  13.856  1.00  0.00     0.048 C 
HETATM    2  C2  UNL     1      21.812  39.896  15.238  1.00  0.00    -0.060 C 
HETATM    3  C3  UNL     1      22.472  38.966  15.925  1.00  0.00     0.007 C 
HETATM    4  C4  UNL     1      22.248  38.377  17.215  1.00  0.00     0.005 C 
HETATM    5  C5  UNL     1      21.335  37.583  17.702  1.00  0.00     0.055 C 
HETATM    6  C6  UNL     1      20.158  36.963  17.134  1.00  0.00     0.136 C 
HETATM    7  N1  UNL     1      18.836  37.389  16.998  1.00  0.00    -0.358 N 
ATOM      8  H1  UNL     1      18.561  37.595  16.037  1.00  0.00     0.162 HD
HETATM    9  C7  UNL     1      17.788  37.590  17.970  1.00  0.00     0.176 C 
HETATM   10  C12 UNL     1      17.826  38.974  18.489  1.00  0.00     0.241 C 
HETATM   11  O2  UNL     1      19.027  39.301  18.831  1.00  0.00    -0.271 OA
HETATM   12  N2  UNL     1      16.837  39.919  18.655  1.00  0.00    -0.346 N 
ATOM     13  H2  UNL     1      16.958  40.759  18.090  1.00  0.00     0.163 HD
HETATM   14  C13 UNL     1      15.659  39.925  19.490  1.00  0.00     0.176 C 
HETATM   15  C18 UNL     1      15.895  40.431  20.865  1.00  0.00     0.241 C 
HETATM   16  O3  UNL     1      15.689  39.568  21.808  1.00  0.00    -0.271 OA
HETATM   17  N4  UNL     1      16.308  41.711  21.243  1.00  0.00    -0.346 N 
ATOM     18  H4  UNL     1      15.686  42.207  21.882  1.00  0.00     0.163 HD
HETATM   19  C19 UNL     1      17.499  42.423  20.849  1.00  0.00     0.180 C 
HETATM   20  C23 UNL     1      18.696  41.927  21.605  1.00  0.00     0.241 C 
HETATM   21  O4  UNL     1      18.457  41.647  22.829  1.00  0.00    -0.271 OA
HETATM   22  N5  UNL     1      19.981  41.747  21.140  1.00  0.00    -0.346 N 
ATOM     23  H5  UNL     1      20.429  40.858  21.364  1.00  0.00     0.163 HD
HETATM   24  C24 UNL     1      20.780  42.719  20.345  1.00  0.00     0.177 C 
HETATM   25  C29 UNL     1      21.796  41.929  19.606  1.00  0.00     0.241 C 
HETATM   26  O5  UNL     1      22.543  41.214  20.362  1.00  0.00    -0.271 OA
HETATM   27  N6  UNL     1      21.994  41.903  18.214  1.00  0.00    -0.349 N 
ATOM     28  H6  UNL     1      22.817  41.391  17.896  1.00  0.00     0.163 HD
HETATM   29  C30 UNL     1      21.201  42.494  17.186  1.00  0.00     0.141 C 
HETATM   30  C35 UNL     1      20.349  41.628  16.383  1.00  0.00     0.066 C 
HETATM   31  C36 UNL     1      20.613  40.609  15.620  1.00  0.00     0.041 C 
ENDROOT
BRANCH  14  32
HETATM   32  C14 UNL     1      14.578  40.788  18.802  1.00  0.00     0.035 C 
BRANCH  32  33
HETATM   33  C15 UNL     1      15.318  41.735  17.891  1.00  0.00     0.004 C 
BRANCH  33  34
HETATM   34  C16 UNL     1      14.909  43.172  18.112  1.00  0.00     0.027 C 
BRANCH  34  35
HETATM   35  C17 UNL     1      15.518  44.094  17.079  1.00  0.00     0.229 C 
BRANCH  35  36
HETATM   36  N3  UNL     1      16.395  43.300  16.243  1.00  0.00    -0.079 N 
ATOM     37  H33 UNL     1      15.890  42.747  15.552  1.00  0.00     0.274 HD
ATOM     38  H32 UNL     1      16.940  43.865  15.591  1.00  0.00     0.274 HD
ATOM     39  H31 UNL     1      16.979  42.732  16.858  1.00  0.00     0.274 HD
ENDBRANCH  35  36
ENDBRANCH  34  35
ENDBRANCH  33  34
ENDBRANCH  32  33
ENDBRANCH  14  32
BRANCH   9  40
HETATM   40  C8  UNL     1      16.446  37.178  17.398  1.00  0.00     0.038 C 
BRANCH  40  41
HETATM   41  C9  UNL     1      16.598  35.714  16.988  1.00  0.00    -0.020 C 
HETATM   42  C10 UNL     1      15.672  35.495  15.816  1.00  0.00     0.009 C 
HETATM   43  C11 UNL     1      16.150  34.828  18.115  1.00  0.00     0.009 C 
ENDBRANCH  40  41
ENDBRANCH   9  40
BRANCH  19  44
HETATM   44  C20 UNL     1      17.336  43.884  21.162  1.00  0.00     0.009 C 
HETATM   45  C21 UNL     1      15.973  44.271  21.641  1.00  0.00     0.012 C 
HETATM   46  C22 UNL     1      17.681  44.771  19.990  1.00  0.00     0.012 C 
ENDBRANCH  19  44
BRANCH   6  47
HETATM   47  O1  UNL     1      20.351  35.748  16.644  1.00  0.00    -0.346 OA
ATOM     48  H1  UNL     1      21.092  35.283  17.013  1.00  0.00     0.219 HD
ENDBRANCH   6  47
BRANCH  24  49
HETATM   49  C25 UNL     1      21.465  43.670  21.267  1.00  0.00     0.038 C 
BRANCH  49  50
HETATM   50  C26 UNL     1      21.484  45.103  20.946  1.00  0.00    -0.020 C 
HETATM   51  C27 UNL     1      20.674  45.995  21.854  1.00  0.00     0.009 C 
HETATM   52  C28 UNL     1      21.256  45.515  19.522  1.00  0.00     0.009 C 
ENDBRANCH  49  50
ENDBRANCH  24  49
BRANCH  29  53
HETATM   53  C31 UNL     1      22.144  43.334  16.316  1.00  0.00     0.036 C 
BRANCH  53  54
HETATM   54  C32 UNL     1      21.389  44.130  15.273  1.00  0.00    -0.020 C 
HETATM   55  C33 UNL     1      20.785  45.399  15.788  1.00  0.00     0.009 C 
HETATM   56  C34 UNL     1      22.433  44.480  14.199  1.00  0.00     0.009 C 
ENDBRANCH  53  54
ENDBRANCH  29  53
BRANCH  30  57
HETATM   57  O6  UNL     1      18.949  41.976  16.457  1.00  0.00    -0.363 OA
ATOM     58  H6  UNL     1      18.696  42.646  15.833  1.00  0.00     0.217 HD
ENDBRANCH  30  57
TORSDOF 14
ENDMDL
