MODEL 1
REMARK VINA RESULT: -5.330131564      0.000      0.000
REMARK  4 active torsions:
REMARK  status: ('A' for Active; 'I' for Inactive)
REMARK    1  A    between atoms: S1_2  and  C2_3 
REMARK    2  A    between atoms: C2_3  and  C3_4 
REMARK    3  A    between atoms: N1_8  and  N2_9 
REMARK    4  A    between atoms: N2_9  and  O1_11 
ROOT
HETATM    1  C3  UNL     1      49.678  24.196  40.072  1.00  0.00     0.014 C 
HETATM    2  C4  UNL     1      48.737  25.209  40.631  1.00  0.00     0.009 C 
HETATM    3  C5  UNL     1      47.408  25.107  39.923  1.00  0.00     0.022 C 
HETATM    4  C6  UNL     1      47.154  23.717  39.450  1.00  0.00     0.144 C 
HETATM    5  N1  UNL     1      47.771  22.740  40.313  1.00  0.00    -0.308 N 
HETATM    6  C7  UNL     1      49.199  22.817  40.510  1.00  0.00     0.149 C 
ENDROOT
BRANCH   5   7
HETATM    7  N2  UNL     1      47.081  21.726  40.970  1.00  0.00    -0.212 N 
ATOM      8  H2  UNL     1      47.116  21.704  41.989  1.00  0.00     0.215 HD
BRANCH   7   9
HETATM    9  O1  UNL     1      46.424  20.847  40.389  1.00  0.00    -0.275 OA
ATOM     10  H1  UNL     1      45.507  20.668  40.563  1.00  0.00     0.246 HD
ENDBRANCH   7   9
ENDBRANCH   5   7
BRANCH   1  11
HETATM   11  C2  UNL     1      51.083  24.334  40.626  1.00  0.00     0.079 C 
BRANCH  11  12
HETATM   12  S1  UNL     1      51.286  23.104  41.941  1.00  0.00    -0.173 SA
HETATM   13  C1  UNL     1      52.705  22.036  41.639  1.00  0.00     0.089 C 
ENDBRANCH  11  12
ENDBRANCH   1  11
TORSDOF 4
ENDMDL
MODEL 2
REMARK VINA RESULT: -5.274182152      3.565      4.942
REMARK  4 active torsions:
REMARK  status: ('A' for Active; 'I' for Inactive)
REMARK    1  A    between atoms: S1_2  and  C2_3 
REMARK    2  A    between atoms: C2_3  and  C3_4 
REMARK    3  A    between atoms: N1_8  and  N2_9 
REMARK    4  A    between atoms: N2_9  and  O1_11 
ROOT
HETATM    1  C3  UNL     1      48.290  26.676  41.448  1.00  0.00     0.014 C 
HETATM    2  C4  UNL     1      47.628  25.950  40.327  1.00  0.00     0.009 C 
HETATM    3  C5  UNL     1      48.678  25.423  39.378  1.00  0.00     0.022 C 
HETATM    4  C6  UNL     1      49.953  25.132  40.092  1.00  0.00     0.144 C 
HETATM    5  N1  UNL     1      49.719  24.732  41.458  1.00  0.00    -0.308 N 
HETATM    6  C7  UNL     1      49.005  25.647  42.318  1.00  0.00     0.149 C 
ENDROOT
BRANCH   5   7
HETATM    7  N2  UNL     1      50.135  23.523  42.004  1.00  0.00    -0.212 N 
ATOM      8  H2  UNL     1      50.131  22.698  41.404  1.00  0.00     0.215 HD
BRANCH   7   9
HETATM    9  O1  UNL     1      50.513  23.387  43.180  1.00  0.00    -0.275 OA
ATOM     10  H1  UNL     1      50.790  22.559  43.555  1.00  0.00     0.246 HD
ENDBRANCH   7   9
ENDBRANCH   5   7
BRANCH   1  11
HETATM   11  C2  UNL     1      47.298  27.364  42.365  1.00  0.00     0.079 C 
BRANCH  11  12
HETATM   12  S1  UNL     1      45.679  27.342  41.551  1.00  0.00    -0.173 SA
HETATM   13  C1  UNL     1      45.278  28.941  40.824  1.00  0.00     0.089 C 
ENDBRANCH  11  12
ENDBRANCH   1  11
TORSDOF 4
ENDMDL
MODEL 3
REMARK VINA RESULT: -5.270969111      1.164      1.389
REMARK  4 active torsions:
REMARK  status: ('A' for Active; 'I' for Inactive)
REMARK    1  A    between atoms: S1_2  and  C2_3 
REMARK    2  A    between atoms: C2_3  and  C3_4 
REMARK    3  A    between atoms: N1_8  and  N2_9 
REMARK    4  A    between atoms: N2_9  and  O1_11 
ROOT
HETATM    1  C3  UNL     1      49.714  24.242  40.076  1.00  0.00     0.014 C 
HETATM    2  C4  UNL     1      48.752  25.240  40.625  1.00  0.00     0.009 C 
HETATM    3  C5  UNL     1      47.425  25.104  39.916  1.00  0.00     0.022 C 
HETATM    4  C6  UNL     1      47.201  23.705  39.456  1.00  0.00     0.144 C 
HETATM    5  N1  UNL     1      47.837  22.748  40.329  1.00  0.00    -0.308 N 
HETATM    6  C7  UNL     1      49.263  22.857  40.527  1.00  0.00     0.149 C 
ENDROOT
BRANCH   5   7
HETATM    7  N2  UNL     1      47.166  21.727  40.994  1.00  0.00    -0.212 N 
ATOM      8  H2  UNL     1      47.256  21.676  42.009  1.00  0.00     0.215 HD
BRANCH   7   9
HETATM    9  O1  UNL     1      46.466  20.873  40.426  1.00  0.00    -0.275 OA
ATOM     10  H1  UNL     1      45.907  20.256  40.884  1.00  0.00     0.246 HD
ENDBRANCH   7   9
ENDBRANCH   5   7
BRANCH   1  11
HETATM   11  C2  UNL     1      51.115  24.414  40.631  1.00  0.00     0.079 C 
BRANCH  11  12
HETATM   12  S1  UNL     1      52.207  23.267  39.749  1.00  0.00    -0.173 SA
HETATM   13  C1  UNL     1      52.833  23.988  38.221  1.00  0.00     0.089 C 
ENDBRANCH  11  12
ENDBRANCH   1  11
TORSDOF 4
ENDMDL
MODEL 4
REMARK VINA RESULT: -4.907270228      3.866      4.519
REMARK  4 active torsions:
REMARK  status: ('A' for Active; 'I' for Inactive)
REMARK    1  A    between atoms: S1_2  and  C2_3 
REMARK    2  A    between atoms: C2_3  and  C3_4 
REMARK    3  A    between atoms: N1_8  and  N2_9 
REMARK    4  A    between atoms: N2_9  and  O1_11 
ROOT
HETATM    1  C3  UNL     1      52.168  23.440  40.976  1.00  0.00     0.014 C 
HETATM    2  C4  UNL     1      50.707  23.425  40.677  1.00  0.00     0.009 C 
HETATM    3  C5  UNL     1      50.290  24.771  40.134  1.00  0.00     0.022 C 
HETATM    4  C6  UNL     1      51.413  25.432  39.411  1.00  0.00     0.144 C 
HETATM    5  N1  UNL     1      52.292  24.468  38.797  1.00  0.00    -0.308 N 
HETATM    6  C7  UNL     1      52.918  23.484  39.649  1.00  0.00     0.149 C 
ENDROOT
BRANCH   5   7
HETATM    7  N2  UNL     1      52.578  24.421  37.436  1.00  0.00    -0.212 N 
ATOM      8  H2  UNL     1      52.042  25.025  36.813  1.00  0.00     0.215 HD
BRANCH   7   9
HETATM    9  O1  UNL     1      53.445  23.687  36.936  1.00  0.00    -0.275 OA
ATOM     10  H1  UNL     1      54.279  24.001  36.605  1.00  0.00     0.246 HD
ENDBRANCH   7   9
ENDBRANCH   5   7
BRANCH   1  11
HETATM   11  C2  UNL     1      52.636  22.172  41.665  1.00  0.00     0.079 C 
BRANCH  11  12
HETATM   12  S1  UNL     1      51.375  21.700  42.878  1.00  0.00    -0.173 SA
HETATM   13  C1  UNL     1      51.312  22.859  44.257  1.00  0.00     0.089 C 
ENDBRANCH  11  12
ENDBRANCH   1  11
TORSDOF 4
ENDMDL
MODEL 5
REMARK VINA RESULT: -4.868097554      2.438      4.093
REMARK  4 active torsions:
REMARK  status: ('A' for Active; 'I' for Inactive)
REMARK    1  A    between atoms: S1_2  and  C2_3 
REMARK    2  A    between atoms: C2_3  and  C3_4 
REMARK    3  A    between atoms: N1_8  and  N2_9 
REMARK    4  A    between atoms: N2_9  and  O1_11 
ROOT
HETATM    1  C3  UNL     1      48.552  25.697  40.679  1.00  0.00     0.014 C 
HETATM    2  C4  UNL     1      49.417  25.432  39.493  1.00  0.00     0.009 C 
HETATM    3  C5  UNL     1      50.369  24.303  39.806  1.00  0.00     0.022 C 
HETATM    4  C6  UNL     1      49.779  23.359  40.797  1.00  0.00     0.144 C 
HETATM    5  N1  UNL     1      48.342  23.295  40.681  1.00  0.00    -0.308 N 
HETATM    6  C7  UNL     1      47.596  24.521  40.837  1.00  0.00     0.149 C 
ENDROOT
BRANCH   5   7
HETATM    7  N2  UNL     1      47.627  22.128  40.429  1.00  0.00    -0.212 N 
ATOM      8  H2  UNL     1      47.511  21.837  39.459  1.00  0.00     0.215 HD
BRANCH   7   9
HETATM    9  O1  UNL     1      47.121  21.422  41.316  1.00  0.00    -0.275 OA
ATOM     10  H1  UNL     1      46.276  20.994  41.235  1.00  0.00     0.246 HD
ENDBRANCH   7   9
ENDBRANCH   5   7
BRANCH   1  11
HETATM   11  C2  UNL     1      47.669  26.917  40.497  1.00  0.00     0.079 C 
BRANCH  11  12
HETATM   12  S1  UNL     1      46.319  26.811  41.701  1.00  0.00    -0.173 SA
HETATM   13  C1  UNL     1      44.972  27.934  41.289  1.00  0.00     0.089 C 
ENDBRANCH  11  12
ENDBRANCH   1  11
TORSDOF 4
ENDMDL
