MODEL 1
REMARK VINA RESULT: -6.201812510      0.000      0.000
REMARK  3 active torsions:
REMARK  status: ('A' for Active; 'I' for Inactive)
REMARK    1  A    between atoms: C2_2  and  C3_3 
REMARK    2  A    between atoms: C6_7  and  C7_8 
REMARK    3  A    between atoms: C7_8  and  C8_9 
ROOT
HETATM    1  C8  UNL     1      48.325  23.023  40.228  1.00  0.00     0.126 C 
HETATM    2  C9  UNL     1      47.477  21.918  40.639  1.00  0.00     0.059 C 
HETATM    3  N1  UNL     1      46.806  21.032  40.988  1.00  0.00    -0.197 NA
ENDROOT
BRANCH   1   4
HETATM    4  C7  UNL     1      47.566  24.094  39.475  1.00  0.00     0.046 C 
BRANCH   4   5
HETATM    5  C6  UNL     1      47.980  25.498  39.886  1.00  0.00     0.127 C 
HETATM    6  C5  UNL     1      49.035  25.359  40.955  1.00  0.00     0.058 C 
HETATM    7  C4  UNL     1      48.633  25.936  42.273  1.00  0.00     0.173 C 
HETATM    8  O1  UNL     1      47.772  26.985  42.222  1.00  0.00    -0.361 OA
HETATM    9  C3  UNL     1      47.370  27.382  40.973  1.00  0.00     0.259 C 
HETATM   10  O2  UNL     1      46.909  26.262  40.280  1.00  0.00    -0.356 OA
BRANCH   9  11
HETATM   11  C2  UNL     1      46.256  28.395  41.183  1.00  0.00     0.056 C 
HETATM   12  C1  UNL     1      44.903  27.807  41.229  1.00  0.00     0.010 C 
ENDBRANCH   9  11
ENDBRANCH   4   5
ENDBRANCH   1   4
TORSDOF 3
ENDMDL
MODEL 2
REMARK VINA RESULT: -6.175776737      0.840      1.064
REMARK  3 active torsions:
REMARK  status: ('A' for Active; 'I' for Inactive)
REMARK    1  A    between atoms: C2_2  and  C3_3 
REMARK    2  A    between atoms: C6_7  and  C7_8 
REMARK    3  A    between atoms: C7_8  and  C8_9 
ROOT
HETATM    1  C8  UNL     1      47.431  23.920  39.441  1.00  0.00     0.126 C 
HETATM    2  C9  UNL     1      47.424  22.714  40.252  1.00  0.00     0.059 C 
HETATM    3  N1  UNL     1      47.413  21.737  40.885  1.00  0.00    -0.197 NA
ENDROOT
BRANCH   1   4
HETATM    4  C7  UNL     1      48.637  24.795  39.705  1.00  0.00     0.046 C 
BRANCH   4   5
HETATM    5  C6  UNL     1      48.262  26.128  40.332  1.00  0.00     0.127 C 
HETATM    6  C5  UNL     1      48.959  26.207  41.666  1.00  0.00     0.058 C 
HETATM    7  C4  UNL     1      48.024  26.287  42.828  1.00  0.00     0.173 C 
HETATM    8  O1  UNL     1      46.830  26.885  42.587  1.00  0.00    -0.361 OA
HETATM    9  C3  UNL     1      46.623  27.337  41.309  1.00  0.00     0.259 C 
HETATM   10  O2  UNL     1      46.902  26.296  40.422  1.00  0.00    -0.356 OA
BRANCH   9  11
HETATM   11  C2  UNL     1      45.161  27.748  41.230  1.00  0.00     0.056 C 
HETATM   12  C1  UNL     1      44.947  29.156  40.846  1.00  0.00     0.010 C 
ENDBRANCH   9  11
ENDBRANCH   4   5
ENDBRANCH   1   4
TORSDOF 3
ENDMDL
MODEL 3
REMARK VINA RESULT: -6.148203822      2.937      4.972
REMARK  3 active torsions:
REMARK  status: ('A' for Active; 'I' for Inactive)
REMARK    1  A    between atoms: C2_2  and  C3_3 
REMARK    2  A    between atoms: C6_7  and  C7_8 
REMARK    3  A    between atoms: C7_8  and  C8_9 
ROOT
HETATM    1  C8  UNL     1      48.175  27.056  41.925  1.00  0.00     0.126 C 
HETATM    2  C9  UNL     1      46.988  27.054  42.763  1.00  0.00     0.059 C 
HETATM    3  N1  UNL     1      46.044  27.070  43.444  1.00  0.00    -0.197 NA
ENDROOT
BRANCH   1   4
HETATM    4  C7  UNL     1      47.880  26.664  40.493  1.00  0.00     0.046 C 
BRANCH   4   5
HETATM    5  C6  UNL     1      48.700  25.469  40.036  1.00  0.00     0.127 C 
HETATM    6  C5  UNL     1      47.735  24.441  39.503  1.00  0.00     0.058 C 
HETATM    7  C4  UNL     1      47.739  23.159  40.270  1.00  0.00     0.173 C 
HETATM    8  O1  UNL     1      48.916  22.826  40.859  1.00  0.00    -0.361 OA
HETATM    9  C3  UNL     1      49.953  23.705  40.686  1.00  0.00     0.259 C 
HETATM   10  O2  UNL     1      49.511  24.983  41.033  1.00  0.00    -0.356 OA
BRANCH   9  11
HETATM   11  C2  UNL     1      51.068  23.242  41.610  1.00  0.00     0.056 C 
HETATM   12  C1  UNL     1      52.378  23.088  40.950  1.00  0.00     0.010 C 
ENDBRANCH   9  11
ENDBRANCH   4   5
ENDBRANCH   1   4
TORSDOF 3
ENDMDL
MODEL 4
REMARK VINA RESULT: -6.053492900      3.538      5.171
REMARK  3 active torsions:
REMARK  status: ('A' for Active; 'I' for Inactive)
REMARK    1  A    between atoms: C2_2  and  C3_3 
REMARK    2  A    between atoms: C6_7  and  C7_8 
REMARK    3  A    between atoms: C7_8  and  C8_9 
ROOT
HETATM    1  C8  UNL     1      47.486  26.012  40.205  1.00  0.00     0.126 C 
HETATM    2  C9  UNL     1      47.232  26.264  41.613  1.00  0.00     0.059 C 
HETATM    3  N1  UNL     1      47.007  26.471  42.737  1.00  0.00    -0.197 NA
ENDROOT
BRANCH   1   4
HETATM    4  C7  UNL     1      48.262  24.735  39.970  1.00  0.00     0.046 C 
BRANCH   4   5
HETATM    5  C6  UNL     1      49.542  24.673  40.787  1.00  0.00     0.127 C 
HETATM    6  C5  UNL     1      50.671  25.103  39.883  1.00  0.00     0.058 C 
HETATM    7  C4  UNL     1      51.692  24.038  39.652  1.00  0.00     0.173 C 
HETATM    8  O1  UNL     1      51.860  23.148  40.663  1.00  0.00    -0.361 OA
HETATM    9  C3  UNL     1      51.069  23.328  41.768  1.00  0.00     0.259 C 
HETATM   10  O2  UNL     1      49.742  23.436  41.349  1.00  0.00    -0.356 OA
BRANCH   9  11
HETATM   11  C2  UNL     1      51.269  22.101  42.644  1.00  0.00     0.056 C 
HETATM   12  C1  UNL     1      51.544  22.406  44.061  1.00  0.00     0.010 C 
ENDBRANCH   9  11
ENDBRANCH   4   5
ENDBRANCH   1   4
TORSDOF 3
ENDMDL
MODEL 5
REMARK VINA RESULT: -6.036185814      3.149      4.746
REMARK  3 active torsions:
REMARK  status: ('A' for Active; 'I' for Inactive)
REMARK    1  A    between atoms: C2_2  and  C3_3 
REMARK    2  A    between atoms: C6_7  and  C7_8 
REMARK    3  A    between atoms: C7_8  and  C8_9 
ROOT
HETATM    1  C8  UNL     1      47.814  23.298  39.810  1.00  0.00     0.126 C 
HETATM    2  C9  UNL     1      47.286  22.122  40.479  1.00  0.00     0.059 C 
HETATM    3  N1  UNL     1      46.876  21.167  41.004  1.00  0.00    -0.197 NA
ENDROOT
BRANCH   1   4
HETATM    4  C7  UNL     1      48.046  24.455  40.758  1.00  0.00     0.046 C 
BRANCH   4   5
HETATM    5  C6  UNL     1      49.493  24.552  41.214  1.00  0.00     0.127 C 
HETATM    6  C5  UNL     1      50.276  25.180  40.088  1.00  0.00     0.058 C 
HETATM    7  C4  UNL     1      51.333  24.290  39.523  1.00  0.00     0.173 C 
HETATM    8  O1  UNL     1      51.877  23.395  40.386  1.00  0.00    -0.361 OA
HETATM    9  C3  UNL     1      51.388  23.410  41.667  1.00  0.00     0.259 C 
HETATM   10  O2  UNL     1      49.996  23.337  41.610  1.00  0.00    -0.356 OA
BRANCH   9  11
HETATM   11  C2  UNL     1      51.973  22.193  42.365  1.00  0.00     0.056 C 
HETATM   12  C1  UNL     1      51.678  22.121  43.809  1.00  0.00     0.010 C 
ENDBRANCH   9  11
ENDBRANCH   4   5
ENDBRANCH   1   4
TORSDOF 3
ENDMDL
