MODEL 1
REMARK VINA RESULT: -9.004602114      0.000      0.000
REMARK  5 active torsions:
REMARK  status: ('A' for Active; 'I' for Inactive)
REMARK    1  A    between atoms: C6_7  and  O2_8 
REMARK    2  A    between atoms: C7_11  and  O4_12 
REMARK    3  A    between atoms: O4_12  and  C8_13 
REMARK    4  A    between atoms: C11_16  and  O5_17 
REMARK    5  A    between atoms: O5_17  and  C12_18 
ROOT
HETATM    1  O1  UNL     1      49.902  12.987 -18.369  1.00  0.00    -0.298 OA
HETATM    2  C1  UNL     1      49.219  12.564 -19.281  1.00  0.00     0.127 C 
HETATM    3  C2  UNL     1      48.541  11.256 -19.102  1.00  0.00     0.082 C 
HETATM    4  C3  UNL     1      48.923  10.415 -20.301  1.00  0.00     0.042 C 
HETATM    5  C4  UNL     1      48.503  11.171 -21.511  1.00  0.00    -0.073 C 
HETATM    6  C5  UNL     1      47.642  10.853 -22.433  1.00  0.00     0.044 C 
HETATM    7  C6  UNL     1      47.555  11.920 -23.448  1.00  0.00     0.188 C 
HETATM    8  O3  UNL     1      46.248  12.097 -23.882  1.00  0.00    -0.321 OA
HETATM    9  C7  UNL     1      46.207  12.902 -25.021  1.00  0.00     0.270 C 
HETATM   10  C15 UNL     1      46.649  14.332 -24.669  1.00  0.00     0.061 C 
HETATM   11  C16 UNL     1      48.124  14.497 -24.870  1.00  0.00     0.005 C 
HETATM   12  C17 UNL     1      48.937  14.011 -23.715  1.00  0.00     0.011 C 
HETATM   13  C18 UNL     1      48.121  13.130 -22.781  1.00  0.00     0.061 C 
HETATM   14  C19 UNL     1      49.095  12.483 -21.781  1.00  0.00     0.031 C 
HETATM   15  C20 UNL     1      49.062  13.315 -20.526  1.00  0.00     0.087 C 
ENDROOT
BRANCH   9  16
HETATM   16  O4  UNL     1      46.951  12.441 -26.067  1.00  0.00    -0.320 OA
BRANCH  16  17
HETATM   17  C8  UNL     1      46.624  12.281 -27.385  1.00  0.00     0.072 A 
HETATM   18  C9  UNL     1      46.192  13.341 -28.140  1.00  0.00     0.039 A 
HETATM   19  C10 UNL     1      45.863  13.162 -29.482  1.00  0.00     0.039 A 
HETATM   20  C11 UNL     1      45.969  11.903 -30.075  1.00  0.00     0.075 A 
HETATM   21  C13 UNL     1      46.401  10.854 -29.309  1.00  0.00     0.039 A 
HETATM   22  C14 UNL     1      46.718  11.042 -28.005  1.00  0.00     0.039 A 
BRANCH  20  23
HETATM   23  O5  UNL     1      45.639  11.760 -31.392  1.00  0.00    -0.290 OA
BRANCH  23  24
HETATM   24  C12 UNL     1      45.824  12.681 -32.400  1.00  0.00     0.505 C 
HETATM   25  F1  UNL     1      46.930  12.346 -33.203  1.00  0.00    -0.184 F 
HETATM   26  F2  UNL     1      44.713  12.604 -33.238  1.00  0.00    -0.184 F 
ENDBRANCH  23  24
ENDBRANCH  20  23
ENDBRANCH  16  17
ENDBRANCH   9  16
BRANCH   7  27
HETATM   27  O2  UNL     1      48.428  11.550 -24.474  1.00  0.00    -0.362 OA
ATOM     28  H2  UNL     1      48.016  11.830 -25.283  1.00  0.00     0.213 HD
ENDBRANCH   7  27
TORSDOF 5
ENDMDL
MODEL 2
REMARK VINA RESULT: -8.886016607      4.478      8.894
REMARK  5 active torsions:
REMARK  status: ('A' for Active; 'I' for Inactive)
REMARK    1  A    between atoms: C6_7  and  O2_8 
REMARK    2  A    between atoms: C7_11  and  O4_12 
REMARK    3  A    between atoms: O4_12  and  C8_13 
REMARK    4  A    between atoms: C11_16  and  O5_17 
REMARK    5  A    between atoms: O5_17  and  C12_18 
ROOT
HETATM    1  O1  UNL     1      45.198  12.337 -31.292  1.00  0.00    -0.298 OA
HETATM    2  C1  UNL     1      45.862  12.338 -30.274  1.00  0.00     0.127 C 
HETATM    3  C2  UNL     1      46.685  11.139 -29.972  1.00  0.00     0.082 C 
HETATM    4  C3  UNL     1      46.317  10.718 -28.566  1.00  0.00     0.042 C 
HETATM    5  C4  UNL     1      46.576  11.887 -27.683  1.00  0.00    -0.073 C 
HETATM    6  C5  UNL     1      47.405  12.009 -26.688  1.00  0.00     0.044 C 
HETATM    7  C6  UNL     1      47.313  13.361 -26.104  1.00  0.00     0.188 C 
HETATM    8  O3  UNL     1      48.563  13.832 -25.727  1.00  0.00    -0.321 OA
HETATM    9  C7  UNL     1      48.446  14.977 -24.936  1.00  0.00     0.270 C 
HETATM   10  C15 UNL     1      47.878  16.136 -25.773  1.00  0.00     0.061 C 
HETATM   11  C16 UNL     1      46.385  16.179 -25.676  1.00  0.00     0.005 C 
HETATM   12  C17 UNL     1      45.704  15.233 -26.610  1.00  0.00     0.011 C 
HETATM   13  C18 UNL     1      46.667  14.192 -27.162  1.00  0.00     0.061 C 
HETATM   14  C19 UNL     1      45.833  13.130 -27.899  1.00  0.00     0.031 C 
HETATM   15  C20 UNL     1      45.858  13.481 -29.363  1.00  0.00     0.087 C 
ENDROOT
BRANCH   9  16
HETATM   16  O4  UNL     1      47.689  14.814 -23.813  1.00  0.00    -0.320 OA
BRANCH  16  17
HETATM   17  C8  UNL     1      48.059  14.522 -22.530  1.00  0.00     0.072 A 
HETATM   18  C9  UNL     1      47.993  15.471 -21.542  1.00  0.00     0.039 A 
HETATM   19  C10 UNL     1      48.373  15.159 -20.239  1.00  0.00     0.039 A 
HETATM   20  C11 UNL     1      48.823  13.877 -19.921  1.00  0.00     0.075 A 
HETATM   21  C13 UNL     1      48.883  12.940 -20.917  1.00  0.00     0.039 A 
HETATM   22  C14 UNL     1      48.511  13.257 -22.181  1.00  0.00     0.039 A 
BRANCH  20  23
HETATM   23  O5  UNL     1      49.188  13.602 -18.634  1.00  0.00    -0.290 OA
BRANCH  23  24
HETATM   24  C12 UNL     1      48.366  13.191 -17.607  1.00  0.00     0.505 C 
HETATM   25  F1  UNL     1      47.283  14.072 -17.435  1.00  0.00    -0.184 F 
HETATM   26  F2  UNL     1      47.805  11.974 -17.991  1.00  0.00    -0.184 F 
ENDBRANCH  23  24
ENDBRANCH  20  23
ENDBRANCH  16  17
ENDBRANCH   9  16
BRANCH   7  27
HETATM   27  O2  UNL     1      46.420  13.260 -25.034  1.00  0.00    -0.362 OA
ATOM     28  H2  UNL     1      45.739  12.660 -25.316  1.00  0.00     0.213 HD
ENDBRANCH   7  27
TORSDOF 5
ENDMDL
MODEL 3
REMARK VINA RESULT: -8.775446208      5.942      9.410
REMARK  5 active torsions:
REMARK  status: ('A' for Active; 'I' for Inactive)
REMARK    1  A    between atoms: C6_7  and  O2_8 
REMARK    2  A    between atoms: C7_11  and  O4_12 
REMARK    3  A    between atoms: O4_12  and  C8_13 
REMARK    4  A    between atoms: C11_16  and  O5_17 
REMARK    5  A    between atoms: O5_17  and  C12_18 
ROOT
HETATM    1  O1  UNL     1      49.314  20.086 -27.840  1.00  0.00    -0.298 OA
HETATM    2  C1  UNL     1      48.888  19.341 -26.980  1.00  0.00     0.127 C 
HETATM    3  C2  UNL     1      47.766  19.817 -26.131  1.00  0.00     0.082 C 
HETATM    4  C3  UNL     1      48.210  19.625 -24.698  1.00  0.00     0.042 C 
HETATM    5  C4  UNL     1      48.540  18.184 -24.537  1.00  0.00    -0.073 C 
HETATM    6  C5  UNL     1      48.001  17.289 -23.762  1.00  0.00     0.044 C 
HETATM    7  C6  UNL     1      48.664  15.983 -23.943  1.00  0.00     0.188 C 
HETATM    8  O3  UNL     1      47.747  14.942 -23.888  1.00  0.00    -0.321 OA
HETATM    9  C7  UNL     1      48.398  13.711 -23.785  1.00  0.00     0.270 C 
HETATM   10  C15 UNL     1      49.175  13.419 -25.080  1.00  0.00     0.061 C 
HETATM   11  C16 UNL     1      50.580  13.926 -24.983  1.00  0.00     0.005 C 
HETATM   12  C17 UNL     1      50.707  15.382 -25.290  1.00  0.00     0.011 C 
HETATM   13  C18 UNL     1      49.358  16.085 -25.260  1.00  0.00     0.061 C 
HETATM   14  C19 UNL     1      49.619  17.600 -25.335  1.00  0.00     0.031 C 
HETATM   15  C20 UNL     1      49.455  18.009 -26.776  1.00  0.00     0.087 C 
ENDROOT
BRANCH   9  16
HETATM   16  O4  UNL     1      49.239  13.603 -22.717  1.00  0.00    -0.320 OA
BRANCH  16  17
HETATM   17  C8  UNL     1      49.050  13.020 -21.495  1.00  0.00     0.072 A 
HETATM   18  C9  UNL     1      48.676  11.704 -21.390  1.00  0.00     0.039 A 
HETATM   19  C10 UNL     1      48.488  11.124 -20.138  1.00  0.00     0.039 A 
HETATM   20  C11 UNL     1      48.678  11.871 -18.975  1.00  0.00     0.075 A 
HETATM   21  C13 UNL     1      49.051  13.183 -19.095  1.00  0.00     0.039 A 
HETATM   22  C14 UNL     1      49.231  13.735 -20.320  1.00  0.00     0.039 A 
BRANCH  20  23
HETATM   23  O5  UNL     1      48.486  11.273 -17.763  1.00  0.00    -0.290 OA
BRANCH  23  24
HETATM   24  C12 UNL     1      48.920  11.725 -16.536  1.00  0.00     0.505 C 
HETATM   25  F1  UNL     1      48.343  10.989 -15.485  1.00  0.00    -0.184 F 
HETATM   26  F2  UNL     1      50.290  11.473 -16.466  1.00  0.00    -0.184 F 
ENDBRANCH  23  24
ENDBRANCH  20  23
ENDBRANCH  16  17
ENDBRANCH   9  16
BRANCH   7  27
HETATM   27  O2  UNL     1      49.642  15.905 -22.949  1.00  0.00    -0.362 OA
ATOM     28  H2  UNL     1      50.345  15.381 -23.313  1.00  0.00     0.213 HD
ENDBRANCH   7  27
TORSDOF 5
ENDMDL
MODEL 4
REMARK VINA RESULT: -8.644630259      4.010      5.724
REMARK  5 active torsions:
REMARK  status: ('A' for Active; 'I' for Inactive)
REMARK    1  A    between atoms: C6_7  and  O2_8 
REMARK    2  A    between atoms: C7_11  and  O4_12 
REMARK    3  A    between atoms: O4_12  and  C8_13 
REMARK    4  A    between atoms: C11_16  and  O5_17 
REMARK    5  A    between atoms: O5_17  and  C12_18 
ROOT
HETATM    1  O1  UNL     1      47.731  20.129 -24.655  1.00  0.00    -0.298 OA
HETATM    2  C1  UNL     1      48.088  19.022 -25.007  1.00  0.00     0.127 C 
HETATM    3  C2  UNL     1      49.469  18.862 -25.528  1.00  0.00     0.082 C 
HETATM    4  C3  UNL     1      49.337  18.173 -26.868  1.00  0.00     0.042 C 
HETATM    5  C4  UNL     1      48.613  16.896 -26.629  1.00  0.00    -0.073 C 
HETATM    6  C5  UNL     1      49.006  15.670 -26.816  1.00  0.00     0.044 C 
HETATM    7  C6  UNL     1      47.938  14.724 -26.438  1.00  0.00     0.188 C 
HETATM    8  O3  UNL     1      48.461  13.599 -25.816  1.00  0.00    -0.321 OA
HETATM    9  C7  UNL     1      47.496  12.596 -25.708  1.00  0.00     0.270 C 
HETATM   10  C15 UNL     1      46.384  13.040 -24.742  1.00  0.00     0.061 C 
HETATM   11  C16 UNL     1      45.279  13.726 -25.482  1.00  0.00     0.005 C 
HETATM   12  C17 UNL     1      45.554  15.168 -25.754  1.00  0.00     0.011 C 
HETATM   13  C18 UNL     1      47.023  15.510 -25.559  1.00  0.00     0.061 C 
HETATM   14  C19 UNL     1      47.248  16.932 -26.101  1.00  0.00     0.031 C 
HETATM   15  C20 UNL     1      47.190  17.871 -24.924  1.00  0.00     0.087 C 
ENDROOT
BRANCH   9  16
HETATM   16  O4  UNL     1      46.940  12.215 -26.894  1.00  0.00    -0.320 OA
BRANCH  16  17
HETATM   17  C8  UNL     1      47.245  11.170 -27.721  1.00  0.00     0.072 A 
HETATM   18  C9  UNL     1      48.369  10.411 -27.517  1.00  0.00     0.039 A 
HETATM   19  C10 UNL     1      48.666   9.350 -28.368  1.00  0.00     0.039 A 
HETATM   20  C11 UNL     1      47.825   9.043 -29.438  1.00  0.00     0.075 A 
HETATM   21  C13 UNL     1      46.707   9.810 -29.631  1.00  0.00     0.039 A 
HETATM   22  C14 UNL     1      46.429  10.840 -28.795  1.00  0.00     0.039 A 
BRANCH  20  23
HETATM   23  O5  UNL     1      48.144   7.997 -30.255  1.00  0.00    -0.290 OA
BRANCH  23  24
HETATM   24  C12 UNL     1      49.407   7.561 -30.592  1.00  0.00     0.505 C 
HETATM   25  F1  UNL     1      49.980   6.801 -29.556  1.00  0.00    -0.184 F 
HETATM   26  F2  UNL     1      49.266   6.686 -31.668  1.00  0.00    -0.184 F 
ENDBRANCH  23  24
ENDBRANCH  20  23
ENDBRANCH  16  17
ENDBRANCH   9  16
BRANCH   7  27
HETATM   27  O2  UNL     1      47.249  14.428 -27.617  1.00  0.00    -0.362 OA
ATOM     28  H2  UNL     1      46.808  13.601 -27.463  1.00  0.00     0.213 HD
ENDBRANCH   7  27
TORSDOF 5
ENDMDL
MODEL 5
REMARK VINA RESULT: -8.612748196      4.906      5.763
REMARK  5 active torsions:
REMARK  status: ('A' for Active; 'I' for Inactive)
REMARK    1  A    between atoms: C6_7  and  O2_8 
REMARK    2  A    between atoms: C7_11  and  O4_12 
REMARK    3  A    between atoms: O4_12  and  C8_13 
REMARK    4  A    between atoms: C11_16  and  O5_17 
REMARK    5  A    between atoms: O5_17  and  C12_18 
ROOT
HETATM    1  O1  UNL     1      49.005  10.857 -15.875  1.00  0.00    -0.298 OA
HETATM    2  C1  UNL     1      49.157  11.731 -16.706  1.00  0.00     0.127 C 
HETATM    3  C2  UNL     1      48.910  13.137 -16.299  1.00  0.00     0.082 C 
HETATM    4  C3  UNL     1      47.937  13.704 -17.309  1.00  0.00     0.042 C 
HETATM    5  C4  UNL     1      48.564  13.547 -18.649  1.00  0.00    -0.073 C 
HETATM    6  C5  UNL     1      48.917  14.454 -19.513  1.00  0.00     0.044 C 
HETATM    7  C6  UNL     1      49.501  13.823 -20.712  1.00  0.00     0.188 C 
HETATM    8  O3  UNL     1      50.570  14.562 -21.200  1.00  0.00    -0.321 OA
HETATM    9  C7  UNL     1      50.941  14.122 -22.471  1.00  0.00     0.270 C 
HETATM   10  C15 UNL     1      51.517  12.698 -22.385  1.00  0.00     0.061 C 
HETATM   11  C16 UNL     1      50.441  11.676 -22.581  1.00  0.00     0.005 C 
HETATM   12  C17 UNL     1      49.665  11.387 -21.338  1.00  0.00     0.011 C 
HETATM   13  C18 UNL     1      49.889  12.450 -20.273  1.00  0.00     0.061 C 
HETATM   14  C19 UNL     1      48.868  12.205 -19.148  1.00  0.00     0.031 C 
HETATM   15  C20 UNL     1      49.571  11.418 -18.073  1.00  0.00     0.087 C 
ENDROOT
BRANCH   9  16
HETATM   16  O4  UNL     1      49.939  14.150 -23.395  1.00  0.00    -0.320 OA
BRANCH  16  17
HETATM   17  C8  UNL     1      49.604  15.109 -24.311  1.00  0.00     0.072 A 
HETATM   18  C9  UNL     1      48.323  15.592 -24.392  1.00  0.00     0.039 A 
HETATM   19  C10 UNL     1      47.998  16.569 -25.330  1.00  0.00     0.039 A 
HETATM   20  C11 UNL     1      48.969  17.069 -26.198  1.00  0.00     0.075 A 
HETATM   21  C13 UNL     1      50.243  16.577 -26.106  1.00  0.00     0.039 A 
HETATM   22  C14 UNL     1      50.547  15.627 -25.188  1.00  0.00     0.039 A 
BRANCH  20  23
HETATM   23  O5  UNL     1      48.618  18.026 -27.106  1.00  0.00    -0.290 OA
BRANCH  23  24
HETATM   24  C12 UNL     1      48.781  19.389 -26.982  1.00  0.00     0.505 C 
HETATM   25  F1  UNL     1      49.092  19.749 -25.658  1.00  0.00    -0.184 F 
HETATM   26  F2  UNL     1      49.896  19.741 -27.740  1.00  0.00    -0.184 F 
ENDBRANCH  23  24
ENDBRANCH  20  23
ENDBRANCH  16  17
ENDBRANCH   9  16
BRANCH   7  27
HETATM   27  O2  UNL     1      48.456  13.699 -21.631  1.00  0.00    -0.362 OA
ATOM     28  H2  UNL     1      48.003  12.894 -21.407  1.00  0.00     0.213 HD
ENDBRANCH   7  27
TORSDOF 5
ENDMDL
