MODEL 1
REMARK VINA RESULT: -8.996222865      0.000      0.000
REMARK  9 active torsions:
REMARK  status: ('A' for Active; 'I' for Inactive)
REMARK    1  A    between atoms: C2_2  and  C3_3 
REMARK    2  A    between atoms: C3_3  and  O1_4 
REMARK    3  A    between atoms: C10_12  and  C11_13 
REMARK    4  A    between atoms: C15_18  and  C16_19 
REMARK    5  A    between atoms: C16_19  and  C18_21 
REMARK    6  A    between atoms: C18_21  and  C19_22 
REMARK    7  A    between atoms: C19_22  and  C20_23 
REMARK    8  A    between atoms: C20_23  and  C21_24 
REMARK    9  A    between atoms: C21_24  and  C23_26 
ROOT
HETATM    1  C11 UNL     1       2.704   6.142  20.248  1.00  0.00     0.133 C 
HETATM    2  C12 UNL     1       3.806   6.301  21.154  1.00  0.00     0.059 C 
HETATM    3  N1  UNL     1       4.668   6.424  21.890  1.00  0.00    -0.197 NA
ENDROOT
BRANCH   1   4
HETATM    4  C10 UNL     1       2.958   6.542  18.829  1.00  0.00    -0.028 C 
HETATM    5  C9  UNL     1       2.799   8.014  18.649  1.00  0.00     0.021 C 
HETATM    6  C8  UNL     1       2.843   8.516  17.263  1.00  0.00    -0.016 C 
HETATM    7  C7  UNL     1       2.086   9.876  17.402  1.00  0.00     0.012 C 
HETATM    8  C26 UNL     1       4.095   8.639  16.513  1.00  0.00     0.042 C 
HETATM    9  C29 UNL     1       1.755   7.741  16.490  1.00  0.00     0.102 C 
HETATM   10  C6  UNL     1       3.143  10.835  17.906  1.00  0.00     0.008 C 
HETATM   11  C4  UNL     1       3.787  11.186  16.562  1.00  0.00     0.020 C 
HETATM   12  C3  UNL     1       4.281   9.980  15.828  1.00  0.00     0.083 C 
HETATM   13  C5  UNL     1       4.772  12.267  16.814  1.00  0.00     0.013 C 
HETATM   14  C15 UNL     1       5.377   8.092  17.063  1.00  0.00     0.022 C 
HETATM   15  C14 UNL     1       5.293   7.242  18.272  1.00  0.00     0.010 C 
HETATM   16  C13 UNL     1       4.282   6.139  18.291  1.00  0.00     0.011 C 
HETATM   17  C28 UNL     1       1.888   6.267  16.577  1.00  0.00     0.021 C 
HETATM   18  C30 UNL     1       0.411   8.072  17.025  1.00  0.00     0.064 C 
HETATM   19  C27 UNL     1       1.826   5.870  18.029  1.00  0.00     0.012 C 
HETATM   20  N2  UNL     1      -0.642   8.311  17.435  1.00  0.00    -0.197 NA
BRANCH  12  21
HETATM   21  C2  UNL     1       3.660   9.959  14.438  1.00  0.00     0.001 C 
HETATM   22  C1  UNL     1       2.849  10.891  14.022  1.00  0.00     0.010 C 
ENDBRANCH  12  21
BRANCH  12  23
HETATM   23  O1  UNL     1       5.603  10.323  15.566  1.00  0.00    -0.385 OA
ATOM     24  H1  UNL     1       6.011  10.249  16.421  1.00  0.00     0.211 HD
ENDBRANCH  12  23
BRANCH  14  25
HETATM   25  C16 UNL     1       6.316   7.501  16.054  1.00  0.00    -0.083 C 
HETATM   26  C17 UNL     1       5.716   6.506  15.089  1.00  0.00     0.043 C 
BRANCH  25  27
HETATM   27  C18 UNL     1       7.706   7.192  16.471  1.00  0.00    -0.020 C 
BRANCH  27  28
HETATM   28  C19 UNL     1       8.643   8.223  16.898  1.00  0.00     0.054 C 
BRANCH  28  29
HETATM   29  C20 UNL     1       8.567   8.636  18.318  1.00  0.00    -0.018 C 
BRANCH  29  30
HETATM   30  C21 UNL     1       8.442  10.012  18.773  1.00  0.00    -0.059 C 
HETATM   31  C22 UNL     1       8.118  11.073  17.751  1.00  0.00     0.046 C 
BRANCH  30  32
HETATM   32  C23 UNL     1       7.676  10.317  20.009  1.00  0.00     0.151 A 
HETATM   33  C24 UNL     1       6.304  10.848  19.969  1.00  0.00     0.063 A 
HETATM   34  C25 UNL     1       5.896   9.559  20.646  1.00  0.00     0.171 A 
HETATM   35  O2  UNL     1       7.194   9.110  20.570  1.00  0.00    -0.381 OA
ENDBRANCH  30  32
ENDBRANCH  29  30
ENDBRANCH  28  29
ENDBRANCH  27  28
ENDBRANCH  25  27
ENDBRANCH  14  25
ENDBRANCH   1   4
TORSDOF 9
ENDMDL
MODEL 2
REMARK VINA RESULT: -8.979346512      1.291      1.707
REMARK  9 active torsions:
REMARK  status: ('A' for Active; 'I' for Inactive)
REMARK    1  A    between atoms: C2_2  and  C3_3 
REMARK    2  A    between atoms: C3_3  and  O1_4 
REMARK    3  A    between atoms: C10_12  and  C11_13 
REMARK    4  A    between atoms: C15_18  and  C16_19 
REMARK    5  A    between atoms: C16_19  and  C18_21 
REMARK    6  A    between atoms: C18_21  and  C19_22 
REMARK    7  A    between atoms: C19_22  and  C20_23 
REMARK    8  A    between atoms: C20_23  and  C21_24 
REMARK    9  A    between atoms: C21_24  and  C23_26 
ROOT
HETATM    1  C11 UNL     1       3.025   6.269  21.213  1.00  0.00     0.133 C 
HETATM    2  C12 UNL     1       4.236   6.470  21.957  1.00  0.00     0.059 C 
HETATM    3  N1  UNL     1       5.185   6.633  22.566  1.00  0.00    -0.197 NA
ENDROOT
BRANCH   1   4
HETATM    4  C10 UNL     1       3.178   6.154  19.730  1.00  0.00    -0.028 C 
HETATM    5  C9  UNL     1       2.687   7.381  19.040  1.00  0.00     0.021 C 
HETATM    6  C8  UNL     1       2.612   7.326  17.569  1.00  0.00    -0.016 C 
HETATM    7  C7  UNL     1       1.565   8.446  17.269  1.00  0.00     0.012 C 
HETATM    8  C26 UNL     1       3.801   7.420  16.719  1.00  0.00     0.042 C 
HETATM    9  C29 UNL     1       1.729   6.107  17.229  1.00  0.00     0.102 C 
HETATM   10  C6  UNL     1       2.375   9.724  17.295  1.00  0.00     0.008 C 
HETATM   11  C4  UNL     1       2.920   9.673  15.865  1.00  0.00     0.020 C 
HETATM   12  C3  UNL     1       3.675   8.414  15.580  1.00  0.00     0.083 C 
HETATM   13  C5  UNL     1       3.632  10.953  15.619  1.00  0.00     0.013 C 
HETATM   14  C15 UNL     1       5.175   7.403  17.317  1.00  0.00     0.022 C 
HETATM   15  C14 UNL     1       5.291   7.070  18.754  1.00  0.00     0.010 C 
HETATM   16  C13 UNL     1       4.559   5.867  19.261  1.00  0.00     0.011 C 
HETATM   17  C28 UNL     1       2.195   4.837  17.834  1.00  0.00     0.021 C 
HETATM   18  C30 UNL     1       0.345   6.322  17.721  1.00  0.00     0.064 C 
HETATM   19  C27 UNL     1       2.229   5.008  19.330  1.00  0.00     0.012 C 
HETATM   20  N2  UNL     1      -0.733   6.469  18.107  1.00  0.00    -0.197 NA
BRANCH  12  21
HETATM   21  C2  UNL     1       3.072   7.745  14.353  1.00  0.00     0.001 C 
HETATM   22  C1  UNL     1       3.291   6.493  14.063  1.00  0.00     0.010 C 
ENDBRANCH  12  21
BRANCH  12  23
HETATM   23  O1  UNL     1       4.883   8.906  15.097  1.00  0.00    -0.385 OA
ATOM     24  H1  UNL     1       5.473   8.763  15.828  1.00  0.00     0.211 HD
ENDBRANCH  12  23
BRANCH  14  25
HETATM   25  C16 UNL     1       6.223   6.691  16.514  1.00  0.00    -0.083 C 
HETATM   26  C17 UNL     1       5.910   5.264  16.129  1.00  0.00     0.043 C 
BRANCH  25  27
HETATM   27  C18 UNL     1       7.652   6.946  16.823  1.00  0.00    -0.020 C 
BRANCH  27  28
HETATM   28  C19 UNL     1       8.250   8.271  16.724  1.00  0.00     0.054 C 
BRANCH  28  29
HETATM   29  C20 UNL     1       8.793   8.843  17.977  1.00  0.00    -0.018 C 
BRANCH  29  30
HETATM   30  C21 UNL     1       7.987   9.431  19.036  1.00  0.00    -0.059 C 
HETATM   31  C22 UNL     1       8.534   9.411  20.441  1.00  0.00     0.046 C 
BRANCH  30  32
HETATM   32  C23 UNL     1       7.326  10.745  18.820  1.00  0.00     0.151 A 
HETATM   33  C24 UNL     1       6.035  10.867  18.125  1.00  0.00     0.063 A 
HETATM   34  C25 UNL     1       5.495  11.387  19.438  1.00  0.00     0.171 A 
HETATM   35  O2  UNL     1       6.718  11.166  20.027  1.00  0.00    -0.381 OA
ENDBRANCH  30  32
ENDBRANCH  29  30
ENDBRANCH  28  29
ENDBRANCH  27  28
ENDBRANCH  25  27
ENDBRANCH  14  25
ENDBRANCH   1   4
TORSDOF 9
ENDMDL
MODEL 3
REMARK VINA RESULT: -8.902266126      2.332      5.005
REMARK  9 active torsions:
REMARK  status: ('A' for Active; 'I' for Inactive)
REMARK    1  A    between atoms: C2_2  and  C3_3 
REMARK    2  A    between atoms: C3_3  and  O1_4 
REMARK    3  A    between atoms: C10_12  and  C11_13 
REMARK    4  A    between atoms: C15_18  and  C16_19 
REMARK    5  A    between atoms: C16_19  and  C18_21 
REMARK    6  A    between atoms: C18_21  and  C19_22 
REMARK    7  A    between atoms: C19_22  and  C20_23 
REMARK    8  A    between atoms: C20_23  and  C21_24 
REMARK    9  A    between atoms: C21_24  and  C23_26 
ROOT
HETATM    1  C11 UNL     1       8.816   8.221  19.454  1.00  0.00     0.133 C 
HETATM    2  C12 UNL     1       8.892   9.251  20.452  1.00  0.00     0.059 C 
HETATM    3  N1  UNL     1       8.971  10.060  21.250  1.00  0.00    -0.197 NA
ENDROOT
BRANCH   1   4
HETATM    4  C10 UNL     1       7.494   8.065  18.772  1.00  0.00    -0.028 C 
HETATM    5  C9  UNL     1       6.992   9.375  18.268  1.00  0.00     0.021 C 
HETATM    6  C8  UNL     1       5.616   9.393  17.737  1.00  0.00    -0.016 C 
HETATM    7  C7  UNL     1       5.250  10.905  17.875  1.00  0.00     0.012 C 
HETATM    8  C26 UNL     1       5.276   8.845  16.422  1.00  0.00     0.042 C 
HETATM    9  C29 UNL     1       4.713   8.848  18.864  1.00  0.00     0.102 C 
HETATM   10  C6  UNL     1       5.857  11.544  16.643  1.00  0.00     0.008 C 
HETATM   11  C4  UNL     1       4.733  11.231  15.652  1.00  0.00     0.020 C 
HETATM   12  C3  UNL     1       4.434   9.769  15.561  1.00  0.00     0.083 C 
HETATM   13  C5  UNL     1       5.059  11.929  14.382  1.00  0.00     0.013 C 
HETATM   14  C15 UNL     1       6.288   8.080  15.624  1.00  0.00     0.022 C 
HETATM   15  C14 UNL     1       7.554   7.714  16.297  1.00  0.00     0.010 C 
HETATM   16  C13 UNL     1       7.476   7.087  17.654  1.00  0.00     0.011 C 
HETATM   17  C28 UNL     1       5.121   7.517  19.373  1.00  0.00     0.021 C 
HETATM   18  C30 UNL     1       4.735   9.767  20.029  1.00  0.00     0.064 C 
HETATM   19  C27 UNL     1       6.532   7.619  19.890  1.00  0.00     0.012 C 
HETATM   20  N2  UNL     1       4.749  10.466  20.948  1.00  0.00    -0.197 NA
BRANCH  12  21
HETATM   21  C2  UNL     1       2.953   9.550  15.836  1.00  0.00     0.001 C 
HETATM   22  C1  UNL     1       2.137  10.535  16.088  1.00  0.00     0.010 C 
ENDBRANCH  12  21
BRANCH  12  23
HETATM   23  O1  UNL     1       4.529   9.539  14.193  1.00  0.00    -0.385 OA
ATOM     24  H1  UNL     1       5.364   9.935  13.972  1.00  0.00     0.211 HD
ENDBRANCH  12  23
BRANCH  14  25
HETATM   25  C16 UNL     1       5.750   6.929  14.827  1.00  0.00    -0.083 C 
HETATM   26  C17 UNL     1       6.249   6.813  13.405  1.00  0.00     0.043 C 
BRANCH  25  27
HETATM   27  C18 UNL     1       4.333   6.532  15.016  1.00  0.00    -0.020 C 
BRANCH  27  28
HETATM   28  C19 UNL     1       3.907   5.634  16.082  1.00  0.00     0.054 C 
BRANCH  28  29
HETATM   29  C20 UNL     1       3.000   6.207  17.102  1.00  0.00    -0.018 C 
BRANCH  29  30
HETATM   30  C21 UNL     1       1.865   5.509  17.685  1.00  0.00    -0.059 C 
HETATM   31  C22 UNL     1       1.932   5.135  19.145  1.00  0.00     0.046 C 
BRANCH  30  32
HETATM   32  C23 UNL     1       0.483   5.970  17.393  1.00  0.00     0.151 A 
HETATM   33  C24 UNL     1      -0.255   6.859  18.304  1.00  0.00     0.063 A 
HETATM   34  C25 UNL     1      -0.228   7.866  17.176  1.00  0.00     0.171 A 
HETATM   35  O2  UNL     1       0.528   6.999  16.422  1.00  0.00    -0.381 OA
ENDBRANCH  30  32
ENDBRANCH  29  30
ENDBRANCH  28  29
ENDBRANCH  27  28
ENDBRANCH  25  27
ENDBRANCH  14  25
ENDBRANCH   1   4
TORSDOF 9
ENDMDL
MODEL 4
REMARK VINA RESULT: -8.892575875      2.492      5.356
REMARK  9 active torsions:
REMARK  status: ('A' for Active; 'I' for Inactive)
REMARK    1  A    between atoms: C2_2  and  C3_3 
REMARK    2  A    between atoms: C3_3  and  O1_4 
REMARK    3  A    between atoms: C10_12  and  C11_13 
REMARK    4  A    between atoms: C15_18  and  C16_19 
REMARK    5  A    between atoms: C16_19  and  C18_21 
REMARK    6  A    between atoms: C18_21  and  C19_22 
REMARK    7  A    between atoms: C19_22  and  C20_23 
REMARK    8  A    between atoms: C20_23  and  C21_24 
REMARK    9  A    between atoms: C21_24  and  C23_26 
ROOT
HETATM    1  C11 UNL     1       5.510   7.070  22.454  1.00  0.00     0.133 C 
HETATM    2  C12 UNL     1       6.737   7.511  23.055  1.00  0.00     0.059 C 
HETATM    3  N1  UNL     1       7.705   7.851  23.551  1.00  0.00    -0.197 NA
ENDROOT
BRANCH   1   4
HETATM    4  C10 UNL     1       5.165   7.690  21.138  1.00  0.00    -0.028 C 
HETATM    5  C9  UNL     1       6.141   7.292  20.083  1.00  0.00     0.021 C 
HETATM    6  C8  UNL     1       6.022   7.978  18.783  1.00  0.00    -0.016 C 
HETATM    7  C7  UNL     1       7.457   7.783  18.198  1.00  0.00     0.012 C 
HETATM    8  C26 UNL     1       4.968   7.653  17.819  1.00  0.00     0.042 C 
HETATM    9  C29 UNL     1       6.114   9.489  19.083  1.00  0.00     0.102 C 
HETATM   10  C6  UNL     1       7.425   6.393  17.598  1.00  0.00     0.008 C 
HETATM   11  C4  UNL     1       6.785   6.744  16.252  1.00  0.00     0.020 C 
HETATM   12  C3  UNL     1       5.467   7.433  16.403  1.00  0.00     0.083 C 
HETATM   13  C5  UNL     1       6.809   5.515  15.420  1.00  0.00     0.013 C 
HETATM   14  C15 UNL     1       3.851   6.724  18.186  1.00  0.00     0.022 C 
HETATM   15  C14 UNL     1       3.733   6.327  19.607  1.00  0.00     0.010 C 
HETATM   16  C13 UNL     1       3.793   7.401  20.648  1.00  0.00     0.011 C 
HETATM   17  C28 UNL     1       5.129   9.966  20.083  1.00  0.00     0.021 C 
HETATM   18  C30 UNL     1       7.455   9.824  19.625  1.00  0.00     0.064 C 
HETATM   19  C27 UNL     1       5.345   9.204  21.363  1.00  0.00     0.012 C 
HETATM   20  N2  UNL     1       8.489  10.100  20.056  1.00  0.00    -0.197 NA
BRANCH  12  21
HETATM   21  C2  UNL     1       5.508   8.750  15.642  1.00  0.00     0.001 C 
HETATM   22  C1  UNL     1       5.158   8.844  14.390  1.00  0.00     0.010 C 
ENDBRANCH  12  21
BRANCH  12  23
HETATM   23  O1  UNL     1       4.639   6.647  15.608  1.00  0.00    -0.385 OA
ATOM     24  H1  UNL     1       4.631   5.818  16.072  1.00  0.00     0.211 HD
ENDBRANCH  12  23
BRANCH  14  25
HETATM   25  C16 UNL     1       2.509   7.063  17.609  1.00  0.00    -0.083 C 
HETATM   26  C17 UNL     1       1.670   5.895  17.147  1.00  0.00     0.043 C 
BRANCH  25  27
HETATM   27  C18 UNL     1       2.381   8.282  16.773  1.00  0.00    -0.020 C 
BRANCH  27  28
HETATM   28  C19 UNL     1       1.849   9.535  17.291  1.00  0.00     0.054 C 
BRANCH  28  29
HETATM   29  C20 UNL     1       2.826  10.628  17.502  1.00  0.00    -0.018 C 
BRANCH  29  30
HETATM   30  C21 UNL     1       2.532  12.043  17.334  1.00  0.00    -0.059 C 
HETATM   31  C22 UNL     1       3.027  13.001  18.388  1.00  0.00     0.046 C 
BRANCH  30  32
HETATM   32  C23 UNL     1       2.717  12.685  16.007  1.00  0.00     0.151 A 
HETATM   33  C24 UNL     1       3.758  12.247  15.064  1.00  0.00     0.063 A 
HETATM   34  C25 UNL     1       2.619  11.860  14.148  1.00  0.00     0.171 A 
HETATM   35  O2  UNL     1       1.716  12.222  15.120  1.00  0.00    -0.381 OA
ENDBRANCH  30  32
ENDBRANCH  29  30
ENDBRANCH  28  29
ENDBRANCH  27  28
ENDBRANCH  25  27
ENDBRANCH  14  25
ENDBRANCH   1   4
TORSDOF 9
ENDMDL
MODEL 5
REMARK VINA RESULT: -8.834776493      1.203      1.467
REMARK  9 active torsions:
REMARK  status: ('A' for Active; 'I' for Inactive)
REMARK    1  A    between atoms: C2_2  and  C3_3 
REMARK    2  A    between atoms: C3_3  and  O1_4 
REMARK    3  A    between atoms: C10_12  and  C11_13 
REMARK    4  A    between atoms: C15_18  and  C16_19 
REMARK    5  A    between atoms: C16_19  and  C18_21 
REMARK    6  A    between atoms: C18_21  and  C19_22 
REMARK    7  A    between atoms: C19_22  and  C20_23 
REMARK    8  A    between atoms: C20_23  and  C21_24 
REMARK    9  A    between atoms: C21_24  and  C23_26 
ROOT
HETATM    1  C11 UNL     1       2.940   6.258  21.095  1.00  0.00     0.133 C 
HETATM    2  C12 UNL     1       4.136   6.483  21.857  1.00  0.00     0.059 C 
HETATM    3  N1  UNL     1       5.072   6.665  22.480  1.00  0.00    -0.197 NA
ENDROOT
BRANCH   1   4
HETATM    4  C10 UNL     1       3.114   6.178  19.611  1.00  0.00    -0.028 C 
HETATM    5  C9  UNL     1       2.710   7.454  18.954  1.00  0.00     0.021 C 
HETATM    6  C8  UNL     1       2.659   7.448  17.480  1.00  0.00    -0.016 C 
HETATM    7  C7  UNL     1       1.688   8.638  17.199  1.00  0.00     0.012 C 
HETATM    8  C26 UNL     1       3.867   7.496  16.653  1.00  0.00     0.042 C 
HETATM    9  C29 UNL     1       1.710   6.296  17.087  1.00  0.00     0.102 C 
HETATM   10  C6  UNL     1       2.574   9.863  17.278  1.00  0.00     0.008 C 
HETATM   11  C4  UNL     1       3.140   9.823  15.856  1.00  0.00     0.020 C 
HETATM   12  C3  UNL     1       3.822   8.530  15.544  1.00  0.00     0.083 C 
HETATM   13  C5  UNL     1       3.933  11.063  15.663  1.00  0.00     0.013 C 
HETATM   14  C15 UNL     1       5.227   7.376  17.273  1.00  0.00     0.022 C 
HETATM   15  C14 UNL     1       5.295   6.993  18.701  1.00  0.00     0.010 C 
HETATM   16  C13 UNL     1       4.482   5.822  19.157  1.00  0.00     0.011 C 
HETATM   17  C28 UNL     1       2.087   4.982  17.659  1.00  0.00     0.021 C 
HETATM   18  C30 UNL     1       0.333   6.580  17.563  1.00  0.00     0.064 C 
HETATM   19  C27 UNL     1       2.104   5.106  19.160  1.00  0.00     0.012 C 
HETATM   20  N2  UNL     1      -0.741   6.781  17.935  1.00  0.00    -0.197 NA
BRANCH  12  21
HETATM   21  C2  UNL     1       3.203   7.936  14.287  1.00  0.00     0.001 C 
HETATM   22  C1  UNL     1       3.250   6.661  14.021  1.00  0.00     0.010 C 
ENDBRANCH  12  21
BRANCH  12  23
HETATM   23  O1  UNL     1       5.066   8.961  15.097  1.00  0.00    -0.385 OA
ATOM     24  H1  UNL     1       5.012   8.819  14.159  1.00  0.00     0.211 HD
ENDBRANCH  12  23
BRANCH  14  25
HETATM   25  C16 UNL     1       6.244   6.626  16.465  1.00  0.00    -0.083 C 
HETATM   26  C17 UNL     1       5.904   5.191  16.134  1.00  0.00     0.043 C 
BRANCH  25  27
HETATM   27  C18 UNL     1       7.683   6.872  16.728  1.00  0.00    -0.020 C 
BRANCH  27  28
HETATM   28  C19 UNL     1       8.310   8.168  16.503  1.00  0.00     0.054 C 
BRANCH  28  29
HETATM   29  C20 UNL     1       8.832   8.864  17.701  1.00  0.00    -0.018 C 
BRANCH  29  30
HETATM   30  C21 UNL     1       8.208  10.021  18.323  1.00  0.00    -0.059 C 
HETATM   31  C22 UNL     1       6.951  10.573  17.698  1.00  0.00     0.046 C 
BRANCH  30  32
HETATM   32  C23 UNL     1       8.045  10.071  19.800  1.00  0.00     0.151 A 
HETATM   33  C24 UNL     1       6.845   9.549  20.473  1.00  0.00     0.063 A 
HETATM   34  C25 UNL     1       7.772   8.545  21.121  1.00  0.00     0.171 A 
HETATM   35  O2  UNL     1       8.823   9.047  20.391  1.00  0.00    -0.381 OA
ENDBRANCH  30  32
ENDBRANCH  29  30
ENDBRANCH  28  29
ENDBRANCH  27  28
ENDBRANCH  25  27
ENDBRANCH  14  25
ENDBRANCH   1   4
TORSDOF 9
ENDMDL
