MODEL 1
REMARK VINA RESULT: -5.977957638      0.000      0.000
REMARK  9 active torsions:
REMARK  status: ('A' for Active; 'I' for Inactive)
REMARK    1  A    between atoms: C2_2  and  C3_3 
REMARK    2  A    between atoms: C2_2  and  C9_10 
REMARK    3  A    between atoms: C3_3  and  C4_4 
REMARK    4  A    between atoms: C4_4  and  C5_5 
REMARK    5  A    between atoms: C5_5  and  C6_6 
REMARK    6  A    between atoms: C6_6  and  C7_7 
REMARK    7  A    between atoms: C18_19  and  O1_20 
REMARK    8  A    between atoms: O1_20  and  S1_21 
REMARK    9  A    between atoms: S1_21  and  N2_22 
ROOT
HETATM    1  C7  UNL     1       2.869  12.295  18.494  1.00  0.00     0.124 C 
HETATM    2  C8  UNL     1       4.297  12.239  18.896  1.00  0.00     0.059 C 
HETATM    3  N1  UNL     1       5.407  12.175  19.210  1.00  0.00    -0.197 NA
ENDROOT
BRANCH   1   4
HETATM    4  C6  UNL     1       2.793  13.325  17.412  1.00  0.00     0.014 C 
BRANCH   4   5
HETATM    5  C5  UNL     1       3.836  13.082  16.310  1.00  0.00     0.001 C 
BRANCH   5   6
HETATM    6  C4  UNL     1       3.203  12.920  15.003  1.00  0.00     0.000 C 
BRANCH   6   7
HETATM    7  C3  UNL     1       3.855  12.233  13.884  1.00  0.00     0.005 C 
BRANCH   7   8
HETATM    8  C2  UNL     1       4.620  10.982  14.077  1.00  0.00    -0.014 C 
HETATM    9  C1  UNL     1       5.437  10.725  12.824  1.00  0.00     0.010 C 
BRANCH   8  10
HETATM   10  C9  UNL     1       3.691   9.805  14.229  1.00  0.00    -0.002 C 
HETATM   11  C10 UNL     1       4.209   8.564  13.475  1.00  0.00     0.006 C 
HETATM   12  C11 UNL     1       3.295   7.492  14.146  1.00  0.00     0.006 C 
HETATM   13  C12 UNL     1       3.669   7.836  15.536  1.00  0.00    -0.001 C 
HETATM   14  C13 UNL     1       3.259   7.014  16.642  1.00  0.00    -0.001 C 
HETATM   15  C26 UNL     1       3.426   9.334  15.623  1.00  0.00    -0.036 C 
HETATM   16  C14 UNL     1       1.847   6.619  16.849  1.00  0.00     0.033 C 
HETATM   17  C23 UNL     1       3.704   7.693  17.944  1.00  0.00     0.003 C 
HETATM   18  C15 UNL     1       1.902   5.640  18.010  1.00  0.00    -0.023 C 
HETATM   19  C16 UNL     1       2.857   5.655  18.905  1.00  0.00    -0.072 C 
HETATM   20  C17 UNL     1       2.832   4.651  20.018  1.00  0.00     0.068 C 
HETATM   21  C21 UNL     1       4.014   6.621  18.917  1.00  0.00    -0.017 C 
HETATM   22  C18 UNL     1       2.740   5.404  21.317  1.00  0.00     0.148 C 
HETATM   23  C19 UNL     1       2.893   6.886  21.103  1.00  0.00     0.035 C 
HETATM   24  C20 UNL     1       4.104   7.237  20.302  1.00  0.00     0.016 C 
HETATM   25  C22 UNL     1       5.263   5.853  18.649  1.00  0.00     0.020 C 
HETATM   26  C24 UNL     1       4.785   8.651  17.650  1.00  0.00     0.007 C 
HETATM   27  C25 UNL     1       4.290   9.775  16.731  1.00  0.00     0.010 C 
HETATM   28  C27 UNL     1       1.945   9.632  15.894  1.00  0.00     0.016 C 
BRANCH  22  29
HETATM   29  O1  UNL     1       3.740   4.979  22.181  1.00  0.00    -0.254 OA
BRANCH  29  30
HETATM   30  S1  UNL     1       3.708   5.930  23.544  1.00  0.00     0.355 S 
HETATM   31  O2  UNL     1       2.610   6.940  23.396  1.00  0.00    -0.176 OA
HETATM   32  O3  UNL     1       3.480   5.054  24.756  1.00  0.00    -0.176 OA
BRANCH  30  33
HETATM   33  N2  UNL     1       5.187   6.777  23.789  1.00  0.00    -0.306 N 
ATOM     34  H22 UNL     1       6.062   6.308  24.023  1.00  0.00     0.171 HD
ATOM     35  H21 UNL     1       5.082   7.785  23.675  1.00  0.00     0.171 HD
ENDBRANCH  30  33
ENDBRANCH  29  30
ENDBRANCH  22  29
ENDBRANCH   8  10
ENDBRANCH   7   8
ENDBRANCH   6   7
ENDBRANCH   5   6
ENDBRANCH   4   5
ENDBRANCH   1   4
TORSDOF 9
ENDMDL
MODEL 2
REMARK VINA RESULT: -5.899053640      1.535      1.982
REMARK  9 active torsions:
REMARK  status: ('A' for Active; 'I' for Inactive)
REMARK    1  A    between atoms: C2_2  and  C3_3 
REMARK    2  A    between atoms: C2_2  and  C9_10 
REMARK    3  A    between atoms: C3_3  and  C4_4 
REMARK    4  A    between atoms: C4_4  and  C5_5 
REMARK    5  A    between atoms: C5_5  and  C6_6 
REMARK    6  A    between atoms: C6_6  and  C7_7 
REMARK    7  A    between atoms: C18_19  and  O1_20 
REMARK    8  A    between atoms: O1_20  and  S1_21 
REMARK    9  A    between atoms: S1_21  and  N2_22 
ROOT
HETATM    1  C7  UNL     1       7.795  10.404  18.004  1.00  0.00     0.124 C 
HETATM    2  C8  UNL     1       7.927  10.386  19.482  1.00  0.00     0.059 C 
HETATM    3  N1  UNL     1       8.049  10.368  20.631  1.00  0.00    -0.197 NA
ENDROOT
BRANCH   1   4
HETATM    4  C6  UNL     1       6.876  11.543  17.693  1.00  0.00     0.014 C 
BRANCH   4   5
HETATM    5  C5  UNL     1       6.923  11.933  16.208  1.00  0.00     0.001 C 
BRANCH   5   6
HETATM    6  C4  UNL     1       5.632  12.444  15.749  1.00  0.00     0.000 C 
BRANCH   6   7
HETATM    7  C3  UNL     1       4.978  11.966  14.528  1.00  0.00     0.005 C 
BRANCH   7   8
HETATM    8  C2  UNL     1       3.510  12.031  14.353  1.00  0.00    -0.014 C 
HETATM    9  C1  UNL     1       2.920  12.758  15.547  1.00  0.00     0.010 C 
BRANCH   8  10
HETATM   10  C9  UNL     1       2.910  10.649  14.355  1.00  0.00    -0.002 C 
HETATM   11  C10 UNL     1       3.748   9.658  13.524  1.00  0.00     0.006 C 
HETATM   12  C11 UNL     1       3.121   8.331  14.052  1.00  0.00     0.006 C 
HETATM   13  C12 UNL     1       3.357   8.621  15.484  1.00  0.00    -0.001 C 
HETATM   14  C13 UNL     1       3.141   7.619  16.492  1.00  0.00    -0.001 C 
HETATM   15  C26 UNL     1       2.736   9.993  15.688  1.00  0.00    -0.036 C 
HETATM   16  C14 UNL     1       1.871   6.863  16.592  1.00  0.00     0.033 C 
HETATM   17  C23 UNL     1       3.362   8.259  17.870  1.00  0.00     0.003 C 
HETATM   18  C15 UNL     1       2.144   5.822  17.665  1.00  0.00    -0.023 C 
HETATM   19  C16 UNL     1       3.038   5.991  18.605  1.00  0.00    -0.072 C 
HETATM   20  C17 UNL     1       3.241   4.910  19.624  1.00  0.00     0.068 C 
HETATM   21  C21 UNL     1       3.909   7.211  18.760  1.00  0.00    -0.017 C 
HETATM   22  C18 UNL     1       2.924   5.486  20.978  1.00  0.00     0.148 C 
HETATM   23  C19 UNL     1       2.698   6.972  20.901  1.00  0.00     0.035 C 
HETATM   24  C20 UNL     1       3.800   7.693  20.196  1.00  0.00     0.016 C 
HETATM   25  C22 UNL     1       5.320   6.814  18.490  1.00  0.00     0.020 C 
HETATM   26  C24 UNL     1       4.169   9.483  17.715  1.00  0.00     0.007 C 
HETATM   27  C25 UNL     1       3.427  10.530  16.873  1.00  0.00     0.010 C 
HETATM   28  C27 UNL     1       1.221   9.881  15.908  1.00  0.00     0.016 C 
BRANCH  22  29
HETATM   29  O1  UNL     1       3.975   5.246  21.851  1.00  0.00    -0.254 OA
BRANCH  29  30
HETATM   30  S1  UNL     1       3.763   6.177  23.211  1.00  0.00     0.355 S 
HETATM   31  O2  UNL     1       2.724   7.218  22.920  1.00  0.00    -0.176 OA
HETATM   32  O3  UNL     1       3.334   5.290  24.359  1.00  0.00    -0.176 OA
BRANCH  30  33
HETATM   33  N2  UNL     1       5.209   6.980  23.691  1.00  0.00    -0.306 N 
ATOM     34  H22 UNL     1       6.038   7.031  23.098  1.00  0.00     0.171 HD
ATOM     35  H21 UNL     1       5.136   7.390  24.622  1.00  0.00     0.171 HD
ENDBRANCH  30  33
ENDBRANCH  29  30
ENDBRANCH  22  29
ENDBRANCH   8  10
ENDBRANCH   7   8
ENDBRANCH   6   7
ENDBRANCH   5   6
ENDBRANCH   4   5
ENDBRANCH   1   4
TORSDOF 9
ENDMDL
MODEL 3
REMARK VINA RESULT: -5.893806253      4.526      8.143
REMARK  9 active torsions:
REMARK  status: ('A' for Active; 'I' for Inactive)
REMARK    1  A    between atoms: C2_2  and  C3_3 
REMARK    2  A    between atoms: C2_2  and  C9_10 
REMARK    3  A    between atoms: C3_3  and  C4_4 
REMARK    4  A    between atoms: C4_4  and  C5_5 
REMARK    5  A    between atoms: C5_5  and  C6_6 
REMARK    6  A    between atoms: C6_6  and  C7_7 
REMARK    7  A    between atoms: C18_19  and  O1_20 
REMARK    8  A    between atoms: O1_20  and  S1_21 
REMARK    9  A    between atoms: S1_21  and  N2_22 
ROOT
HETATM    1  C7  UNL     1       2.418   5.432  19.976  1.00  0.00     0.124 C 
HETATM    2  C8  UNL     1       2.661   4.135  19.297  1.00  0.00     0.059 C 
HETATM    3  N1  UNL     1       2.841   3.132  18.752  1.00  0.00    -0.197 NA
ENDROOT
BRANCH   1   4
HETATM    4  C6  UNL     1       3.672   5.733  20.735  1.00  0.00     0.014 C 
BRANCH   4   5
HETATM    5  C5  UNL     1       3.399   5.976  22.227  1.00  0.00     0.001 C 
BRANCH   5   6
HETATM    6  C4  UNL     1       4.628   6.299  22.948  1.00  0.00     0.000 C 
BRANCH   6   7
HETATM    7  C3  UNL     1       5.550   7.353  22.514  1.00  0.00     0.005 C 
BRANCH   7   8
HETATM    8  C2  UNL     1       7.001   7.106  22.365  1.00  0.00    -0.014 C 
HETATM    9  C1  UNL     1       7.693   7.550  23.640  1.00  0.00     0.010 C 
BRANCH   8  10
HETATM   10  C9  UNL     1       7.574   7.947  21.253  1.00  0.00    -0.002 C 
HETATM   11  C10 UNL     1       7.970   7.092  20.033  1.00  0.00     0.006 C 
HETATM   12  C11 UNL     1       8.118   8.241  18.988  1.00  0.00     0.006 C 
HETATM   13  C12 UNL     1       6.767   8.806  19.204  1.00  0.00    -0.001 C 
HETATM   14  C13 UNL     1       6.240   9.826  18.339  1.00  0.00    -0.001 C 
HETATM   15  C26 UNL     1       6.697   9.027  20.706  1.00  0.00    -0.036 C 
HETATM   16  C14 UNL     1       6.989  11.067  18.038  1.00  0.00     0.033 C 
HETATM   17  C23 UNL     1       4.880  10.275  18.890  1.00  0.00     0.003 C 
HETATM   18  C15 UNL     1       6.148  11.760  16.979  1.00  0.00    -0.023 C 
HETATM   19  C16 UNL     1       4.859  11.566  16.859  1.00  0.00    -0.072 C 
HETATM   20  C17 UNL     1       4.108  12.291  15.783  1.00  0.00     0.068 C 
HETATM   21  C21 UNL     1       4.038  10.652  17.732  1.00  0.00    -0.017 C 
HETATM   22  C18 UNL     1       3.073  13.159  16.448  1.00  0.00     0.148 C 
HETATM   23  C19 UNL     1       2.995  12.884  17.926  1.00  0.00     0.035 C 
HETATM   24  C20 UNL     1       2.839  11.431  18.240  1.00  0.00     0.016 C 
HETATM   25  C22 UNL     1       3.556   9.518  16.893  1.00  0.00     0.020 C 
HETATM   26  C24 UNL     1       4.346   9.230  19.782  1.00  0.00     0.007 C 
HETATM   27  C25 UNL     1       5.254   9.031  21.003  1.00  0.00     0.010 C 
HETATM   28  C27 UNL     1       7.368  10.352  21.095  1.00  0.00     0.016 C 
BRANCH  22  29
HETATM   29  O1  UNL     1       1.826  12.918  15.890  1.00  0.00    -0.254 OA
BRANCH  29  30
HETATM   30  S1  UNL     1       2.023  12.006  14.514  1.00  0.00     0.355 S 
HETATM   31  O2  UNL     1       2.033  10.557  14.900  1.00  0.00    -0.176 OA
HETATM   32  O3  UNL     1       0.892  12.303  13.555  1.00  0.00    -0.176 OA
BRANCH  30  33
HETATM   33  N2  UNL     1       3.498  12.356  13.699  1.00  0.00    -0.306 N 
ATOM     34  H22 UNL     1       4.386  11.918  13.947  1.00  0.00     0.171 HD
ATOM     35  H21 UNL     1       3.378  13.040  12.953  1.00  0.00     0.171 HD
ENDBRANCH  30  33
ENDBRANCH  29  30
ENDBRANCH  22  29
ENDBRANCH   8  10
ENDBRANCH   7   8
ENDBRANCH   6   7
ENDBRANCH   5   6
ENDBRANCH   4   5
ENDBRANCH   1   4
TORSDOF 9
ENDMDL
MODEL 4
REMARK VINA RESULT: -5.858235274      2.760      4.611
REMARK  9 active torsions:
REMARK  status: ('A' for Active; 'I' for Inactive)
REMARK    1  A    between atoms: C2_2  and  C3_3 
REMARK    2  A    between atoms: C2_2  and  C9_10 
REMARK    3  A    between atoms: C3_3  and  C4_4 
REMARK    4  A    between atoms: C4_4  and  C5_5 
REMARK    5  A    between atoms: C5_5  and  C6_6 
REMARK    6  A    between atoms: C6_6  and  C7_7 
REMARK    7  A    between atoms: C18_19  and  O1_20 
REMARK    8  A    between atoms: O1_20  and  S1_21 
REMARK    9  A    between atoms: S1_21  and  N2_22 
ROOT
HETATM    1  C7  UNL     1       2.283   6.252  16.997  1.00  0.00     0.124 C 
HETATM    2  C8  UNL     1       0.894   6.045  17.478  1.00  0.00     0.059 C 
HETATM    3  N1  UNL     1      -0.181   5.886  17.871  1.00  0.00    -0.197 NA
ENDROOT
BRANCH   1   4
HETATM    4  C6  UNL     1       2.175   7.188  15.835  1.00  0.00     0.014 C 
BRANCH   4   5
HETATM    5  C5  UNL     1       2.912   6.657  14.596  1.00  0.00     0.001 C 
BRANCH   5   6
HETATM    6  C4  UNL     1       3.503   7.745  13.820  1.00  0.00     0.000 C 
BRANCH   6   7
HETATM    7  C3  UNL     1       2.780   8.983  13.511  1.00  0.00     0.005 C 
BRANCH   7   8
HETATM    8  C2  UNL     1       3.464  10.294  13.465  1.00  0.00    -0.014 C 
HETATM    9  C1  UNL     1       4.936  10.054  13.186  1.00  0.00     0.010 C 
BRANCH   8  10
HETATM   10  C9  UNL     1       3.389  10.983  14.803  1.00  0.00    -0.002 C 
HETATM   11  C10 UNL     1       2.038  10.733  15.501  1.00  0.00     0.006 C 
HETATM   12  C11 UNL     1       2.434  11.200  16.937  1.00  0.00     0.006 C 
HETATM   13  C12 UNL     1       3.609  10.308  17.058  1.00  0.00    -0.001 C 
HETATM   14  C13 UNL     1       4.302  10.157  18.308  1.00  0.00    -0.001 C 
HETATM   15  C26 UNL     1       4.426  10.607  15.812  1.00  0.00    -0.036 C 
HETATM   16  C14 UNL     1       4.785  11.320  19.087  1.00  0.00     0.033 C 
HETATM   17  C23 UNL     1       5.528   9.263  18.079  1.00  0.00     0.003 C 
HETATM   18  C15 UNL     1       5.295  10.713  20.383  1.00  0.00    -0.023 C 
HETATM   19  C16 UNL     1       5.714   9.476  20.469  1.00  0.00    -0.072 C 
HETATM   20  C17 UNL     1       6.200   8.958  21.789  1.00  0.00     0.068 C 
HETATM   21  C21 UNL     1       5.754   8.496  19.324  1.00  0.00    -0.017 C 
HETATM   22  C18 UNL     1       7.642   8.558  21.625  1.00  0.00     0.148 C 
HETATM   23  C19 UNL     1       8.067   8.621  20.183  1.00  0.00     0.035 C 
HETATM   24  C20 UNL     1       7.142   7.885  19.270  1.00  0.00     0.016 C 
HETATM   25  C22 UNL     1       4.762   7.417  19.601  1.00  0.00     0.020 C 
HETATM   26  C24 UNL     1       5.337   8.479  16.846  1.00  0.00     0.007 C 
HETATM   27  C25 UNL     1       5.243   9.396  15.619  1.00  0.00     0.010 C 
HETATM   28  C27 UNL     1       5.292  11.858  16.012  1.00  0.00     0.016 C 
BRANCH  22  29
HETATM   29  O1  UNL     1       7.826   7.260  22.082  1.00  0.00    -0.254 OA
BRANCH  29  30
HETATM   30  S1  UNL     1       7.365   7.184  23.676  1.00  0.00     0.355 S 
HETATM   31  O2  UNL     1       8.230   6.178  24.375  1.00  0.00    -0.176 OA
HETATM   32  O3  UNL     1       7.513   8.553  24.303  1.00  0.00    -0.176 OA
BRANCH  30  33
HETATM   33  N2  UNL     1       5.722   6.704  23.865  1.00  0.00    -0.306 N 
ATOM     34  H22 UNL     1       5.171   6.303  23.105  1.00  0.00     0.171 HD
ATOM     35  H21 UNL     1       5.375   6.867  24.809  1.00  0.00     0.171 HD
ENDBRANCH  30  33
ENDBRANCH  29  30
ENDBRANCH  22  29
ENDBRANCH   8  10
ENDBRANCH   7   8
ENDBRANCH   6   7
ENDBRANCH   5   6
ENDBRANCH   4   5
ENDBRANCH   1   4
TORSDOF 9
ENDMDL
MODEL 5
REMARK VINA RESULT: -5.700755552      2.761      4.590
REMARK  9 active torsions:
REMARK  status: ('A' for Active; 'I' for Inactive)
REMARK    1  A    between atoms: C2_2  and  C3_3 
REMARK    2  A    between atoms: C2_2  and  C9_10 
REMARK    3  A    between atoms: C3_3  and  C4_4 
REMARK    4  A    between atoms: C4_4  and  C5_5 
REMARK    5  A    between atoms: C5_5  and  C6_6 
REMARK    6  A    between atoms: C6_6  and  C7_7 
REMARK    7  A    between atoms: C18_19  and  O1_20 
REMARK    8  A    between atoms: O1_20  and  S1_21 
REMARK    9  A    between atoms: S1_21  and  N2_22 
ROOT
HETATM    1  C7  UNL     1       2.517   6.123  16.680  1.00  0.00     0.124 C 
HETATM    2  C8  UNL     1       3.794   5.427  16.387  1.00  0.00     0.059 C 
HETATM    3  N1  UNL     1       4.780   4.868  16.161  1.00  0.00    -0.197 NA
ENDROOT
BRANCH   1   4
HETATM    4  C6  UNL     1       2.460   7.281  15.734  1.00  0.00     0.014 C 
BRANCH   4   5
HETATM    5  C5  UNL     1       2.916   6.893  14.319  1.00  0.00     0.001 C 
BRANCH   5   6
HETATM    6  C4  UNL     1       3.538   8.022  13.631  1.00  0.00     0.000 C 
BRANCH   6   7
HETATM    7  C3  UNL     1       2.848   9.296  13.411  1.00  0.00     0.005 C 
BRANCH   7   8
HETATM    8  C2  UNL     1       3.564  10.590  13.460  1.00  0.00    -0.014 C 
HETATM    9  C1  UNL     1       5.040  10.326  13.229  1.00  0.00     0.010 C 
BRANCH   8  10
HETATM   10  C9  UNL     1       3.450  11.213  14.827  1.00  0.00    -0.002 C 
HETATM   11  C10 UNL     1       2.095  10.897  15.490  1.00  0.00     0.006 C 
HETATM   12  C11 UNL     1       2.456  11.306  16.952  1.00  0.00     0.006 C 
HETATM   13  C12 UNL     1       3.651  10.439  17.052  1.00  0.00    -0.001 C 
HETATM   14  C13 UNL     1       4.328  10.246  18.305  1.00  0.00    -0.001 C 
HETATM   15  C26 UNL     1       4.481  10.815  15.835  1.00  0.00    -0.036 C 
HETATM   16  C14 UNL     1       4.768  11.382  19.146  1.00  0.00     0.033 C 
HETATM   17  C23 UNL     1       5.580   9.394  18.055  1.00  0.00     0.003 C 
HETATM   18  C15 UNL     1       5.273  10.727  20.421  1.00  0.00    -0.023 C 
HETATM   19  C16 UNL     1       5.722   9.498  20.456  1.00  0.00    -0.072 C 
HETATM   20  C17 UNL     1       6.200   8.931  21.759  1.00  0.00     0.068 C 
HETATM   21  C21 UNL     1       5.805   8.574  19.268  1.00  0.00    -0.017 C 
HETATM   22  C18 UNL     1       7.654   8.574  21.601  1.00  0.00     0.148 C 
HETATM   23  C19 UNL     1       8.100   8.715  20.171  1.00  0.00     0.035 C 
HETATM   24  C20 UNL     1       7.209   8.001  19.209  1.00  0.00     0.016 C 
HETATM   25  C22 UNL     1       4.837   7.460  19.476  1.00  0.00     0.020 C 
HETATM   26  C24 UNL     1       5.428   8.664  16.784  1.00  0.00     0.007 C 
HETATM   27  C25 UNL     1       5.331   9.635  15.600  1.00  0.00     0.010 C 
HETATM   28  C27 UNL     1       5.311  12.076  16.109  1.00  0.00     0.016 C 
BRANCH  22  29
HETATM   29  O1  UNL     1       7.863   7.261  21.999  1.00  0.00    -0.254 OA
BRANCH  29  30
HETATM   30  S1  UNL     1       7.376   7.098  23.580  1.00  0.00     0.355 S 
HETATM   31  O2  UNL     1       8.241   6.067  24.241  1.00  0.00    -0.176 OA
HETATM   32  O3  UNL     1       7.497   8.434  24.278  1.00  0.00    -0.176 OA
BRANCH  30  33
HETATM   33  N2  UNL     1       5.737   6.590  23.714  1.00  0.00    -0.306 N 
ATOM     34  H22 UNL     1       5.129   6.459  22.905  1.00  0.00     0.171 HD
ATOM     35  H21 UNL     1       5.454   6.440  24.682  1.00  0.00     0.171 HD
ENDBRANCH  30  33
ENDBRANCH  29  30
ENDBRANCH  22  29
ENDBRANCH   8  10
ENDBRANCH   7   8
ENDBRANCH   6   7
ENDBRANCH   5   6
ENDBRANCH   4   5
ENDBRANCH   1   4
TORSDOF 9
ENDMDL
