MODEL 1
REMARK VINA RESULT: -7.541794871      0.000      0.000
REMARK  8 active torsions:
REMARK  status: ('A' for Active; 'I' for Inactive)
REMARK    1  A    between atoms: N1_2  and  C2_4 
REMARK    2  A    between atoms: C2_4  and  O1_5 
REMARK    3  A    between atoms: C2_4  and  C6_16 
REMARK    4  A    between atoms: O1_5  and  C3_6 
REMARK    5  A    between atoms: C5_11  and  O2_12 
REMARK    6  A    between atoms: C5_11  and  O3_14 
REMARK    7  A    between atoms: C7_19  and  N4_20 
REMARK    8  A    between atoms: C9_27  and  N6_28 
ROOT
HETATM    1  C6  UNL     1      12.071 -10.155 -13.110  1.00  0.00     0.104 A 
HETATM    2  N3  UNL     1      10.918 -10.017 -12.444  1.00  0.00    -0.189 N 
ATOM      3  H3  UNL     1      10.549  -9.070 -12.362  1.00  0.00     0.184 HD
HETATM    4  C7  UNL     1      10.198 -10.986 -11.876  1.00  0.00     0.677 A 
HETATM    5  N5  UNL     1      10.675 -12.234 -11.976  1.00  0.00    -0.183 N 
ATOM      6  H5  UNL     1      10.161 -13.009 -11.557  1.00  0.00     0.185 HD
HETATM    7  C8  UNL     1      11.849 -12.476 -12.640  1.00  0.00     0.122 A 
HETATM    8  S1  UNL     1      12.775 -13.861 -13.019  1.00  0.00    -0.027 SA
HETATM    9  C9  UNL     1      14.048 -13.088 -13.903  1.00  0.00     0.218 A 
HETATM   10  N7  UNL     1      13.672 -11.827 -13.841  1.00  0.00    -0.328 N 
ATOM     11  H7  UNL     1      14.246 -11.112 -14.287  1.00  0.00     0.168 HD
HETATM   12  C10 UNL     1      12.584 -11.479 -13.222  1.00  0.00     0.097 A 
ENDROOT
BRANCH   1  13
HETATM   13  C2  UNL     1      12.809  -9.004 -13.598  1.00  0.00     0.273 C 
BRANCH  13  14
HETATM   14  N1  UNL     1      13.443  -8.231 -12.622  1.00  0.00    -0.396 N 
HETATM   15  C1  UNL     1      14.285  -8.706 -11.631  1.00  0.00     0.143 C 
ATOM     16  H1  UNL     1      13.270  -7.226 -12.642  1.00  0.00     0.155 HD
ENDBRANCH  13  14
BRANCH  13  17
HETATM   17  O1  UNL     1      12.146  -8.165 -14.498  1.00  0.00    -0.324 OA
BRANCH  17  18
HETATM   18  C3  UNL     1      12.541  -6.854 -14.336  1.00  0.00     0.387 C 
HETATM   19  N2  UNL     1      11.496  -5.853 -14.203  1.00  0.00    -0.038 N 
HETATM   20  C4  UNL     1      12.484  -4.923 -14.800  1.00  0.00     0.308 C 
ATOM     21  H22 UNL     1      10.566  -5.984 -14.600  1.00  0.00     0.280 HD
ATOM     22  H21 UNL     1      11.039  -5.661 -13.312  1.00  0.00     0.280 HD
HETATM   23  C5  UNL     1      12.941  -6.170 -15.598  1.00  0.00     0.237 C 
BRANCH  23  24
HETATM   24  O2  UNL     1      12.054  -6.459 -16.634  1.00  0.00    -0.361 OA
ATOM     25  H2  UNL     1      11.787  -5.671 -17.090  1.00  0.00     0.213 HD
ENDBRANCH  23  24
BRANCH  23  26
HETATM   26  O3  UNL     1      14.275  -6.171 -15.915  1.00  0.00    -0.361 OA
ATOM     27  H3  UNL     1      14.514  -5.870 -16.784  1.00  0.00     0.213 HD
ENDBRANCH  23  26
ENDBRANCH  17  18
ENDBRANCH  13  17
ENDBRANCH   1  13
BRANCH   4  28
HETATM   28  N4  UNL     1       9.109 -10.695 -11.271  1.00  0.00    -0.234 N 
ATOM     29  H42 UNL     1       8.807  -9.738 -11.088  1.00  0.00     0.174 HD
ATOM     30  H41 UNL     1       8.496 -11.443 -10.947  1.00  0.00     0.174 HD
ENDBRANCH   4  28
BRANCH   9  31
HETATM   31  N6  UNL     1      15.182 -13.714 -14.523  1.00  0.00    -0.090 N 
HETATM   32  O4  UNL     1      16.105 -14.068 -13.769  1.00  0.00    -0.530 OA
HETATM   33  O5  UNL     1      15.210 -13.889 -15.850  1.00  0.00    -0.530 OA
ENDBRANCH   9  31
TORSDOF 8
ENDMDL
MODEL 2
REMARK VINA RESULT: -7.352123977      2.305      5.852
REMARK  8 active torsions:
REMARK  status: ('A' for Active; 'I' for Inactive)
REMARK    1  A    between atoms: N1_2  and  C2_4 
REMARK    2  A    between atoms: C2_4  and  O1_5 
REMARK    3  A    between atoms: C2_4  and  C6_16 
REMARK    4  A    between atoms: O1_5  and  C3_6 
REMARK    5  A    between atoms: C5_11  and  O2_12 
REMARK    6  A    between atoms: C5_11  and  O3_14 
REMARK    7  A    between atoms: C7_19  and  N4_20 
REMARK    8  A    between atoms: C9_27  and  N6_28 
ROOT
HETATM    1  C6  UNL     1      12.621 -11.920 -11.625  1.00  0.00     0.104 A 
HETATM    2  N3  UNL     1      11.730 -12.474 -10.794  1.00  0.00    -0.189 N 
ATOM      3  H3  UNL     1      11.987 -13.372 -10.385  1.00  0.00     0.184 HD
HETATM    4  C7  UNL     1      10.542 -11.979 -10.444  1.00  0.00     0.677 A 
HETATM    5  N5  UNL     1      10.195 -10.800 -10.978  1.00  0.00    -0.183 N 
ATOM      6  H5  UNL     1       9.296 -10.382 -10.742  1.00  0.00     0.185 HD
HETATM    7  C8  UNL     1      11.041 -10.155 -11.841  1.00  0.00     0.122 A 
HETATM    8  S1  UNL     1      11.015  -8.678 -12.700  1.00  0.00    -0.027 SA
HETATM    9  C9  UNL     1      12.565  -8.796 -13.465  1.00  0.00     0.218 A 
HETATM   10  N7  UNL     1      12.987  -9.958 -13.008  1.00  0.00    -0.328 N 
ATOM     11  H7  UNL     1      13.901 -10.306 -13.296  1.00  0.00     0.168 HD
HETATM   12  C10 UNL     1      12.260 -10.666 -12.197  1.00  0.00     0.097 A 
ENDROOT
BRANCH   1  13
HETATM   13  C2  UNL     1      13.841 -12.610 -12.004  1.00  0.00     0.273 C 
BRANCH  13  14
HETATM   14  N1  UNL     1      14.992 -12.233 -11.309  1.00  0.00    -0.396 N 
HETATM   15  C1  UNL     1      15.062 -11.921  -9.963  1.00  0.00     0.143 C 
ATOM     16  H1  UNL     1      15.861 -12.185 -11.843  1.00  0.00     0.155 HD
ENDBRANCH  13  14
BRANCH  13  17
HETATM   17  O1  UNL     1      14.125 -12.681 -13.371  1.00  0.00    -0.324 OA
BRANCH  17  18
HETATM   18  C3  UNL     1      14.528 -13.951 -13.728  1.00  0.00     0.387 C 
HETATM   19  N2  UNL     1      15.536 -14.063 -14.769  1.00  0.00    -0.038 N 
HETATM   20  C4  UNL     1      14.907 -15.373 -15.062  1.00  0.00     0.308 C 
ATOM     21  H22 UNL     1      15.658 -13.348 -15.485  1.00  0.00     0.280 HD
ATOM     22  H21 UNL     1      16.532 -13.972 -14.572  1.00  0.00     0.280 HD
HETATM   23  C5  UNL     1      13.595 -14.659 -14.649  1.00  0.00     0.237 C 
BRANCH  23  24
HETATM   24  O2  UNL     1      13.142 -13.812 -15.659  1.00  0.00    -0.361 OA
ATOM     25  H2  UNL     1      12.252 -14.025 -15.915  1.00  0.00     0.213 HD
ENDBRANCH  23  24
BRANCH  23  26
HETATM   26  O3  UNL     1      12.663 -15.488 -14.081  1.00  0.00    -0.361 OA
ATOM     27  H3  UNL     1      12.578 -15.461 -13.135  1.00  0.00     0.213 HD
ENDBRANCH  23  26
ENDBRANCH  17  18
ENDBRANCH  13  17
ENDBRANCH   1  13
BRANCH   4  28
HETATM   28  N4  UNL     1       9.798 -12.631  -9.633  1.00  0.00    -0.234 N 
ATOM     29  H42 UNL     1       9.972 -13.601  -9.367  1.00  0.00     0.174 HD
ATOM     30  H41 UNL     1       8.984 -12.177  -9.218  1.00  0.00     0.174 HD
ENDBRANCH   4  28
BRANCH   9  31
HETATM   31  N6  UNL     1      13.176  -7.842 -14.347  1.00  0.00    -0.090 N 
HETATM   32  O4  UNL     1      13.310  -8.187 -15.534  1.00  0.00    -0.530 OA
HETATM   33  O5  UNL     1      13.571  -6.651 -13.879  1.00  0.00    -0.530 OA
ENDBRANCH   9  31
TORSDOF 8
ENDMDL
MODEL 3
REMARK VINA RESULT: -7.312021954      2.287      5.641
REMARK  8 active torsions:
REMARK  status: ('A' for Active; 'I' for Inactive)
REMARK    1  A    between atoms: N1_2  and  C2_4 
REMARK    2  A    between atoms: C2_4  and  O1_5 
REMARK    3  A    between atoms: C2_4  and  C6_16 
REMARK    4  A    between atoms: O1_5  and  C3_6 
REMARK    5  A    between atoms: C5_11  and  O2_12 
REMARK    6  A    between atoms: C5_11  and  O3_14 
REMARK    7  A    between atoms: C7_19  and  N4_20 
REMARK    8  A    between atoms: C9_27  and  N6_28 
ROOT
HETATM    1  C6  UNL     1      12.488 -11.940 -11.540  1.00  0.00     0.104 A 
HETATM    2  N3  UNL     1      11.585 -12.474 -10.709  1.00  0.00    -0.189 N 
ATOM      3  H3  UNL     1      11.801 -13.397 -10.333  1.00  0.00     0.184 HD
HETATM    4  C7  UNL     1      10.431 -11.929 -10.320  1.00  0.00     0.677 A 
HETATM    5  N5  UNL     1      10.137 -10.718 -10.811  1.00  0.00    -0.183 N 
ATOM      6  H5  UNL     1       9.265 -10.260 -10.544  1.00  0.00     0.185 HD
HETATM    7  C8  UNL     1      11.000 -10.090 -11.669  1.00  0.00     0.122 A 
HETATM    8  S1  UNL     1      11.036  -8.587 -12.483  1.00  0.00    -0.027 SA
HETATM    9  C9  UNL     1      12.563  -8.761 -13.281  1.00  0.00     0.218 A 
HETATM   10  N7  UNL     1      12.932  -9.957 -12.869  1.00  0.00    -0.328 N 
ATOM     11  H7  UNL     1      13.821 -10.343 -13.186  1.00  0.00     0.168 HD
HETATM   12  C10 UNL     1      12.183 -10.652 -12.066  1.00  0.00     0.097 A 
ENDROOT
BRANCH   1  13
HETATM   13  C2  UNL     1      13.663 -12.681 -11.965  1.00  0.00     0.273 C 
BRANCH  13  14
HETATM   14  N1  UNL     1      14.768 -12.606 -11.114  1.00  0.00    -0.396 N 
HETATM   15  C1  UNL     1      15.104 -11.528 -10.313  1.00  0.00     0.143 C 
ATOM     16  H1  UNL     1      15.383 -13.419 -11.081  1.00  0.00     0.155 HD
ENDBRANCH  13  14
BRANCH  13  17
HETATM   17  O1  UNL     1      14.079 -12.497 -13.286  1.00  0.00    -0.324 OA
BRANCH  17  18
HETATM   18  C3  UNL     1      13.517 -13.441 -14.119  1.00  0.00     0.387 C 
HETATM   19  N2  UNL     1      13.469 -14.812 -13.638  1.00  0.00    -0.038 N 
HETATM   20  C4  UNL     1      13.527 -15.185 -15.072  1.00  0.00     0.308 C 
ATOM     21  H22 UNL     1      14.137 -15.171 -12.957  1.00  0.00     0.280 HD
ATOM     22  H21 UNL     1      12.729 -15.144 -13.021  1.00  0.00     0.280 HD
HETATM   23  C5  UNL     1      14.420 -13.925 -15.202  1.00  0.00     0.237 C 
BRANCH  23  24
HETATM   24  O2  UNL     1      15.705 -14.165 -14.719  1.00  0.00    -0.361 OA
ATOM     25  H2  UNL     1      15.848 -15.091 -14.563  1.00  0.00     0.213 HD
ENDBRANCH  23  24
BRANCH  23  26
HETATM   26  O3  UNL     1      14.329 -13.300 -16.419  1.00  0.00    -0.361 OA
ATOM     27  H3  UNL     1      14.137 -13.845 -17.173  1.00  0.00     0.213 HD
ENDBRANCH  23  26
ENDBRANCH  17  18
ENDBRANCH  13  17
ENDBRANCH   1  13
BRANCH   4  28
HETATM   28  N4  UNL     1       9.668 -12.567  -9.515  1.00  0.00    -0.234 N 
ATOM     29  H42 UNL     1      10.013 -13.087  -8.708  1.00  0.00     0.174 HD
ATOM     30  H41 UNL     1       8.660 -12.568  -9.669  1.00  0.00     0.174 HD
ENDBRANCH   4  28
BRANCH   9  31
HETATM   31  N6  UNL     1      13.208  -7.813 -14.145  1.00  0.00    -0.090 N 
HETATM   32  O4  UNL     1      13.645  -6.779 -13.610  1.00  0.00    -0.530 OA
HETATM   33  O5  UNL     1      13.315  -8.062 -15.457  1.00  0.00    -0.530 OA
ENDBRANCH   9  31
TORSDOF 8
ENDMDL
MODEL 4
REMARK VINA RESULT: -7.064863996      4.209      5.772
REMARK  8 active torsions:
REMARK  status: ('A' for Active; 'I' for Inactive)
REMARK    1  A    between atoms: N1_2  and  C2_4 
REMARK    2  A    between atoms: C2_4  and  O1_5 
REMARK    3  A    between atoms: C2_4  and  C6_16 
REMARK    4  A    between atoms: O1_5  and  C3_6 
REMARK    5  A    between atoms: C5_11  and  O2_12 
REMARK    6  A    between atoms: C5_11  and  O3_14 
REMARK    7  A    between atoms: C7_19  and  N4_20 
REMARK    8  A    between atoms: C9_27  and  N6_28 
ROOT
HETATM    1  C6  UNL     1      13.706 -11.550 -11.287  1.00  0.00     0.104 A 
HETATM    2  N3  UNL     1      12.458 -11.271 -10.893  1.00  0.00    -0.189 N 
ATOM      3  H3  UNL     1      12.357 -10.566 -10.163  1.00  0.00     0.184 HD
HETATM    4  C7  UNL     1      11.330 -11.817 -11.352  1.00  0.00     0.677 A 
HETATM    5  N5  UNL     1      11.452 -12.746 -12.309  1.00  0.00    -0.183 N 
ATOM      6  H5  UNL     1      10.619 -13.194 -12.691  1.00  0.00     0.185 HD
HETATM    7  C8  UNL     1      12.690 -13.099 -12.778  1.00  0.00     0.122 A 
HETATM    8  S1  UNL     1      13.285 -14.176 -13.964  1.00  0.00    -0.027 SA
HETATM    9  C9  UNL     1      14.976 -13.843 -13.791  1.00  0.00     0.218 A 
HETATM   10  N7  UNL     1      14.961 -12.935 -12.837  1.00  0.00    -0.328 N 
ATOM     11  H7  UNL     1      15.842 -12.538 -12.510  1.00  0.00     0.168 HD
HETATM   12  C10 UNL     1      13.844 -12.536 -12.305  1.00  0.00     0.097 A 
ENDROOT
BRANCH   1  13
HETATM   13  C2  UNL     1      14.860 -10.955 -10.637  1.00  0.00     0.273 C 
BRANCH  13  14
HETATM   14  N1  UNL     1      15.444  -9.877 -11.304  1.00  0.00    -0.396 N 
HETATM   15  C1  UNL     1      16.234  -8.897 -10.727  1.00  0.00     0.143 C 
ATOM     16  H1  UNL     1      15.274  -9.805 -12.307  1.00  0.00     0.155 HD
ENDBRANCH  13  14
BRANCH  13  17
HETATM   17  O1  UNL     1      15.859 -11.832 -10.205  1.00  0.00    -0.324 OA
BRANCH  17  18
HETATM   18  C3  UNL     1      15.722 -12.117  -8.862  1.00  0.00     0.387 C 
HETATM   19  N2  UNL     1      15.688 -10.993  -7.941  1.00  0.00    -0.038 N 
HETATM   20  C4  UNL     1      16.257 -11.944  -6.956  1.00  0.00     0.308 C 
ATOM     21  H22 UNL     1      16.134 -10.102  -8.156  1.00  0.00     0.280 HD
ATOM     22  H21 UNL     1      14.833 -10.469  -7.756  1.00  0.00     0.280 HD
HETATM   23  C5  UNL     1      16.982 -12.542  -8.189  1.00  0.00     0.237 C 
BRANCH  23  24
HETATM   24  O2  UNL     1      18.057 -11.745  -8.578  1.00  0.00    -0.361 OA
ATOM     25  H2  UNL     1      17.863 -10.823  -8.464  1.00  0.00     0.213 HD
ENDBRANCH  23  24
BRANCH  23  26
HETATM   26  O3  UNL     1      17.219 -13.889  -8.098  1.00  0.00    -0.361 OA
ATOM     27  H3  UNL     1      17.928 -14.167  -7.531  1.00  0.00     0.213 HD
ENDBRANCH  23  26
ENDBRANCH  17  18
ENDBRANCH  13  17
ENDBRANCH   1  13
BRANCH   4  28
HETATM   28  N4  UNL     1      10.204 -11.443 -10.873  1.00  0.00    -0.234 N 
ATOM     29  H42 UNL     1      10.043 -11.283  -9.878  1.00  0.00     0.174 HD
ATOM     30  H41 UNL     1       9.414 -11.290 -11.499  1.00  0.00     0.174 HD
ENDBRANCH   4  28
BRANCH   9  31
HETATM   31  N6  UNL     1      16.059 -14.430 -14.529  1.00  0.00    -0.090 N 
HETATM   32  O4  UNL     1      16.007 -14.332 -15.768  1.00  0.00    -0.530 OA
HETATM   33  O5  UNL     1      17.058 -15.043 -13.883  1.00  0.00    -0.530 OA
ENDBRANCH   9  31
TORSDOF 8
ENDMDL
MODEL 5
REMARK VINA RESULT: -7.010225371      2.939      5.729
REMARK  8 active torsions:
REMARK  status: ('A' for Active; 'I' for Inactive)
REMARK    1  A    between atoms: N1_2  and  C2_4 
REMARK    2  A    between atoms: C2_4  and  O1_5 
REMARK    3  A    between atoms: C2_4  and  C6_16 
REMARK    4  A    between atoms: O1_5  and  C3_6 
REMARK    5  A    between atoms: C5_11  and  O2_12 
REMARK    6  A    between atoms: C5_11  and  O3_14 
REMARK    7  A    between atoms: C7_19  and  N4_20 
REMARK    8  A    between atoms: C9_27  and  N6_28 
ROOT
HETATM    1  C6  UNL     1      12.215 -10.756 -12.625  1.00  0.00     0.104 A 
HETATM    2  N3  UNL     1      11.796  -9.779 -13.438  1.00  0.00    -0.189 N 
ATOM      3  H3  UNL     1      10.968  -9.978 -14.000  1.00  0.00     0.184 HD
HETATM    4  C7  UNL     1      12.343  -8.572 -13.592  1.00  0.00     0.677 A 
HETATM    5  N5  UNL     1      13.432  -8.302 -12.859  1.00  0.00    -0.183 N 
ATOM      6  H5  UNL     1      13.888  -7.394 -12.944  1.00  0.00     0.185 HD
HETATM    7  C8  UNL     1      13.937  -9.240 -11.998  1.00  0.00     0.122 A 
HETATM    8  S1  UNL     1      15.239  -9.308 -10.894  1.00  0.00    -0.027 SA
HETATM    9  C9  UNL     1      14.986 -10.913 -10.293  1.00  0.00     0.218 A 
HETATM   10  N7  UNL     1      13.925 -11.279 -10.983  1.00  0.00    -0.328 N 
ATOM     11  H7  UNL     1      13.532 -12.209 -10.839  1.00  0.00     0.168 HD
HETATM   12  C10 UNL     1      13.372 -10.477 -11.842  1.00  0.00     0.097 A 
ENDROOT
BRANCH   1  13
HETATM   13  C2  UNL     1      11.588 -12.065 -12.622  1.00  0.00     0.273 C 
BRANCH  13  14
HETATM   14  N1  UNL     1      10.445 -12.189 -11.828  1.00  0.00    -0.396 N 
HETATM   15  C1  UNL     1      10.143 -11.424 -10.715  1.00  0.00     0.143 C 
ATOM     16  H1  UNL     1       9.773 -12.909 -12.092  1.00  0.00     0.155 HD
ENDBRANCH  13  14
BRANCH  13  17
HETATM   17  O1  UNL     1      12.425 -13.164 -12.408  1.00  0.00    -0.324 OA
BRANCH  17  18
HETATM   18  C3  UNL     1      12.710 -13.808 -13.594  1.00  0.00     0.387 C 
HETATM   19  N2  UNL     1      13.228 -15.163 -13.510  1.00  0.00    -0.038 N 
HETATM   20  C4  UNL     1      13.901 -14.853 -14.793  1.00  0.00     0.308 C 
ATOM     21  H22 UNL     1      13.741 -15.498 -12.695  1.00  0.00     0.280 HD
ATOM     22  H21 UNL     1      12.616 -15.971 -13.400  1.00  0.00     0.280 HD
HETATM   23  C5  UNL     1      14.012 -13.422 -14.207  1.00  0.00     0.237 C 
BRANCH  23  24
HETATM   24  O2  UNL     1      15.021 -13.346 -13.249  1.00  0.00    -0.361 OA
ATOM     25  H2  UNL     1      15.853 -13.642 -13.599  1.00  0.00     0.213 HD
ENDBRANCH  23  24
BRANCH  23  26
HETATM   26  O3  UNL     1      13.989 -12.429 -15.153  1.00  0.00    -0.361 OA
ATOM     27  H3  UNL     1      13.303 -11.777 -15.080  1.00  0.00     0.213 HD
ENDBRANCH  23  26
ENDBRANCH  17  18
ENDBRANCH  13  17
ENDBRANCH   1  13
BRANCH   4  28
HETATM   28  N4  UNL     1      11.823  -7.740 -14.413  1.00  0.00    -0.234 N 
ATOM     29  H42 UNL     1      11.946  -7.797 -15.424  1.00  0.00     0.174 HD
ATOM     30  H41 UNL     1      11.252  -6.972 -14.060  1.00  0.00     0.174 HD
ENDBRANCH   4  28
BRANCH   9  31
HETATM   31  N6  UNL     1      15.758 -11.603  -9.298  1.00  0.00    -0.090 N 
HETATM   32  O4  UNL     1      16.980 -11.373  -9.283  1.00  0.00    -0.530 OA
HETATM   33  O5  UNL     1      15.158 -12.443  -8.445  1.00  0.00    -0.530 OA
ENDBRANCH   9  31
TORSDOF 8
ENDMDL
