MODEL 1
REMARK VINA RESULT: -9.727344811      0.000      0.000
REMARK  7 active torsions:
REMARK  status: ('A' for Active; 'I' for Inactive)
REMARK    1  A    between atoms: N1_1  and  C1_4 
REMARK    2  A    between atoms: C3_11  and  N5_12 
REMARK    3  A    between atoms: C6_15  and  N6_16 
REMARK    4  A    between atoms: N6_16  and  C7_18 
REMARK    5  A    between atoms: C7_18  and  O1_19 
REMARK    6  A    between atoms: C7_18  and  C8_21 
REMARK    7  A    between atoms: C8_21  and  C9_23 
ROOT
HETATM    1  N5  UNL     1      11.544  -9.105 -12.714  1.00  0.00    -0.215 N 
HETATM    2  C4  UNL     1      10.496  -9.823 -12.028  1.00  0.00     0.143 C 
HETATM    3  C5  UNL     1      10.844 -11.305 -12.191  1.00  0.00     0.047 C 
HETATM    4  C6  UNL     1      12.072 -11.314 -13.031  1.00  0.00     0.099 C 
HETATM    5  C13 UNL     1      12.717  -9.947 -12.606  1.00  0.00     0.166 C 
ENDROOT
BRANCH   4   6
HETATM    6  N6  UNL     1      12.992 -12.329 -12.890  1.00  0.00    -0.386 N 
ATOM      7  H6  UNL     1      13.625 -12.211 -12.100  1.00  0.00     0.156 HD
BRANCH   6   8
HETATM    8  C7  UNL     1      13.211 -13.461 -13.614  1.00  0.00     0.265 C 
BRANCH   8   9
HETATM    9  O1  UNL     1      12.116 -14.406 -13.450  1.00  0.00    -0.372 OA
ATOM     10  H1  UNL     1      12.148 -14.820 -12.595  1.00  0.00     0.212 HD
ENDBRANCH   8   9
BRANCH   8  11
HETATM   11  C8  UNL     1      14.440 -14.277 -13.572  1.00  0.00     0.099 C 
HETATM   12  N7  UNL     1      15.568 -13.799 -12.870  1.00  0.00    -0.100 NA
BRANCH  11  13
HETATM   13  C9  UNL     1      14.817 -14.914 -14.871  1.00  0.00     0.072 A 
HETATM   14  C10 UNL     1      14.004 -14.787 -15.989  1.00  0.00     0.036 A 
HETATM   15  C11 UNL     1      14.326 -15.382 -17.189  1.00  0.00     0.049 A 
HETATM   16  C12 UNL     1      15.495 -16.125 -17.268  1.00  0.00     0.130 A 
HETATM   17  N8  UNL     1      15.828 -16.740 -18.506  1.00  0.00    -0.081 NA
HETATM   18  N9  UNL     1      16.251 -16.223 -16.168  1.00  0.00    -0.287 N 
HETATM   19  N10 UNL     1      15.922 -15.640 -15.021  1.00  0.00    -0.298 N 
ATOM     20  H9  UNL     1      17.114 -16.766 -16.213  1.00  0.00     0.188 HD
ATOM     21  H10 UNL     1      16.543 -15.755 -14.220  1.00  0.00     0.187 HD
ENDBRANCH  11  13
ENDBRANCH   8  11
ENDBRANCH   6   8
ENDBRANCH   4   6
BRANCH   1  22
HETATM   22  C3  UNL     1      11.452  -7.850 -13.363  1.00  0.00     0.697 A 
HETATM   23  N4  UNL     1      10.999  -6.739 -12.802  1.00  0.00    -0.162 N 
HETATM   24  C2  UNL     1      10.925  -5.553 -13.443  1.00  0.00     0.221 A 
ATOM     25  H4  UNL     1      10.690  -6.782 -11.831  1.00  0.00     0.187 HD
HETATM   26  N2  UNL     1      11.337  -5.509 -14.725  1.00  0.00    -0.163 N 
HETATM   27  N3  UNL     1      10.438  -4.367 -12.840  1.00  0.00    -0.062 NA
HETATM   28  C1  UNL     1      11.810  -6.607 -15.354  1.00  0.00     0.692 A 
ATOM     29  H2  UNL     1      11.291  -4.626 -15.232  1.00  0.00     0.187 HD
HETATM   30  N11 UNL     1      11.859  -7.759 -14.662  1.00  0.00    -0.022 N 
ATOM     31  H11 UNL     1      12.214  -8.596 -15.125  1.00  0.00     0.203 HD
BRANCH  28  32
HETATM   32  N1  UNL     1      12.213  -6.559 -16.601  1.00  0.00    -0.234 N 
ATOM     33  H12 UNL     1      11.551  -6.369 -17.354  1.00  0.00     0.174 HD
ATOM     34  H11 UNL     1      13.191  -6.712 -16.850  1.00  0.00     0.174 HD
ENDBRANCH  28  32
ENDBRANCH   1  22
TORSDOF 7
ENDMDL
MODEL 2
REMARK VINA RESULT: -9.704557837      1.455      1.759
REMARK  7 active torsions:
REMARK  status: ('A' for Active; 'I' for Inactive)
REMARK    1  A    between atoms: N1_1  and  C1_4 
REMARK    2  A    between atoms: C3_11  and  N5_12 
REMARK    3  A    between atoms: C6_15  and  N6_16 
REMARK    4  A    between atoms: N6_16  and  C7_18 
REMARK    5  A    between atoms: C7_18  and  O1_19 
REMARK    6  A    between atoms: C7_18  and  C8_21 
REMARK    7  A    between atoms: C8_21  and  C9_23 
ROOT
HETATM    1  N5  UNL     1      13.217  -8.551 -12.808  1.00  0.00    -0.215 N 
HETATM    2  C4  UNL     1      13.939  -8.561 -11.557  1.00  0.00     0.143 C 
HETATM    3  C5  UNL     1      13.600  -9.903 -10.903  1.00  0.00     0.047 C 
HETATM    4  C6  UNL     1      12.638 -10.546 -11.839  1.00  0.00     0.099 C 
HETATM    5  C13 UNL     1      13.121  -9.940 -13.204  1.00  0.00     0.166 C 
ENDROOT
BRANCH   4   6
HETATM    6  N6  UNL     1      12.585 -11.920 -11.931  1.00  0.00    -0.386 N 
ATOM      7  H6  UNL     1      12.298 -12.385 -11.070  1.00  0.00     0.156 HD
BRANCH   6   8
HETATM    8  C7  UNL     1      12.844 -12.770 -12.962  1.00  0.00     0.265 C 
BRANCH   8   9
HETATM    9  O1  UNL     1      11.808 -13.787 -13.074  1.00  0.00    -0.372 OA
ATOM     10  H1  UNL     1      11.437 -13.801 -13.949  1.00  0.00     0.212 HD
ENDBRANCH   8   9
BRANCH   8  11
HETATM   11  C8  UNL     1      14.116 -13.485 -13.181  1.00  0.00     0.099 C 
HETATM   12  N7  UNL     1      15.325 -12.901 -12.740  1.00  0.00    -0.100 NA
BRANCH  11  13
HETATM   13  C9  UNL     1      14.258 -14.119 -14.527  1.00  0.00     0.072 A 
HETATM   14  C10 UNL     1      15.262 -15.044 -14.776  1.00  0.00     0.036 A 
HETATM   15  C11 UNL     1      15.419 -15.626 -16.016  1.00  0.00     0.049 A 
HETATM   16  C12 UNL     1      14.545 -15.267 -17.031  1.00  0.00     0.130 A 
HETATM   17  N8  UNL     1      14.706 -15.866 -18.311  1.00  0.00    -0.081 NA
HETATM   18  N9  UNL     1      13.590 -14.372 -16.750  1.00  0.00    -0.287 N 
HETATM   19  N10 UNL     1      13.456 -13.824 -15.548  1.00  0.00    -0.298 N 
ATOM     20  H9  UNL     1      12.940 -14.100 -17.488  1.00  0.00     0.188 HD
ATOM     21  H10 UNL     1      12.707 -13.148 -15.400  1.00  0.00     0.187 HD
ENDBRANCH  11  13
ENDBRANCH   8  11
ENDBRANCH   6   8
ENDBRANCH   4   6
BRANCH   1  22
HETATM   22  C3  UNL     1      12.704  -7.428 -13.502  1.00  0.00     0.697 A 
HETATM   23  N4  UNL     1      11.647  -6.725 -13.128  1.00  0.00    -0.162 N 
HETATM   24  C2  UNL     1      11.180  -5.655 -13.807  1.00  0.00     0.221 A 
ATOM     25  H4  UNL     1      11.156  -7.007 -12.279  1.00  0.00     0.187 HD
HETATM   26  N2  UNL     1      11.837  -5.292 -14.926  1.00  0.00    -0.163 N 
HETATM   27  N3  UNL     1      10.046  -4.907 -13.406  1.00  0.00    -0.062 NA
HETATM   28  C1  UNL     1      12.923  -5.967 -15.360  1.00  0.00     0.692 A 
ATOM     29  H2  UNL     1      11.505  -4.487 -15.458  1.00  0.00     0.187 HD
HETATM   30  N11 UNL     1      13.339  -7.024 -14.641  1.00  0.00    -0.022 N 
ATOM     31  H11 UNL     1      14.157  -7.543 -14.957  1.00  0.00     0.203 HD
BRANCH  28  32
HETATM   32  N1  UNL     1      13.561  -5.608 -16.449  1.00  0.00    -0.234 N 
ATOM     33  H12 UNL     1      14.577  -5.515 -16.448  1.00  0.00     0.174 HD
ATOM     34  H11 UNL     1      13.062  -5.412 -17.317  1.00  0.00     0.174 HD
ENDBRANCH  28  32
ENDBRANCH   1  22
TORSDOF 7
ENDMDL
MODEL 3
REMARK VINA RESULT: -9.669185115      1.106      1.365
REMARK  7 active torsions:
REMARK  status: ('A' for Active; 'I' for Inactive)
REMARK    1  A    between atoms: N1_1  and  C1_4 
REMARK    2  A    between atoms: C3_11  and  N5_12 
REMARK    3  A    between atoms: C6_15  and  N6_16 
REMARK    4  A    between atoms: N6_16  and  C7_18 
REMARK    5  A    between atoms: C7_18  and  O1_19 
REMARK    6  A    between atoms: C7_18  and  C8_21 
REMARK    7  A    between atoms: C8_21  and  C9_23 
ROOT
HETATM    1  N5  UNL     1      12.874  -8.709 -12.788  1.00  0.00    -0.215 N 
HETATM    2  C4  UNL     1      13.383  -8.779 -11.438  1.00  0.00     0.143 C 
HETATM    3  C5  UNL     1      12.958 -10.154 -10.915  1.00  0.00     0.047 C 
HETATM    4  C6  UNL     1      12.168 -10.752 -12.025  1.00  0.00     0.099 C 
HETATM    5  C13 UNL     1      12.859 -10.076 -13.262  1.00  0.00     0.166 C 
ENDROOT
BRANCH   4   6
HETATM    6  N6  UNL     1      12.146 -12.120 -12.191  1.00  0.00    -0.386 N 
ATOM      7  H6  UNL     1      11.496 -12.605 -11.573  1.00  0.00     0.156 HD
BRANCH   6   8
HETATM    8  C7  UNL     1      12.832 -12.941 -13.032  1.00  0.00     0.265 C 
BRANCH   8   9
HETATM    9  O1  UNL     1      12.044 -14.118 -13.370  1.00  0.00    -0.372 OA
ATOM     10  H1  UNL     1      11.432 -13.928 -14.072  1.00  0.00     0.212 HD
ENDBRANCH   8   9
BRANCH   8  11
HETATM   11  C8  UNL     1      14.203 -13.441 -12.808  1.00  0.00     0.099 C 
HETATM   12  N7  UNL     1      15.155 -12.601 -12.191  1.00  0.00    -0.100 NA
BRANCH  11  13
HETATM   13  C9  UNL     1      14.787 -14.209 -13.950  1.00  0.00     0.072 A 
HETATM   14  C10 UNL     1      14.169 -14.217 -15.192  1.00  0.00     0.036 A 
HETATM   15  C11 UNL     1      14.684 -14.933 -16.252  1.00  0.00     0.049 A 
HETATM   16  C12 UNL     1      15.848 -15.661 -16.056  1.00  0.00     0.130 A 
HETATM   17  N8  UNL     1      16.380 -16.401 -17.148  1.00  0.00    -0.081 NA
HETATM   18  N9  UNL     1      16.413 -15.627 -14.843  1.00  0.00    -0.287 N 
HETATM   19  N10 UNL     1      15.901 -14.929 -13.836  1.00  0.00    -0.298 N 
ATOM     20  H9  UNL     1      17.270 -16.157 -14.686  1.00  0.00     0.188 HD
ATOM     21  H10 UNL     1      16.381 -14.945 -12.936  1.00  0.00     0.187 HD
ENDBRANCH  11  13
ENDBRANCH   8  11
ENDBRANCH   6   8
ENDBRANCH   4   6
BRANCH   1  22
HETATM   22  C3  UNL     1      12.468  -7.554 -13.500  1.00  0.00     0.697 A 
HETATM   23  N4  UNL     1      11.458  -6.770 -13.158  1.00  0.00    -0.162 N 
HETATM   24  C2  UNL     1      11.094  -5.671 -13.854  1.00  0.00     0.221 A 
ATOM     25  H4  UNL     1      10.925  -7.008 -12.322  1.00  0.00     0.187 HD
HETATM   26  N2  UNL     1      11.806  -5.366 -14.956  1.00  0.00    -0.163 N 
HETATM   27  N3  UNL     1      10.011  -4.835 -13.487  1.00  0.00    -0.062 NA
HETATM   28  C1  UNL     1      12.849  -6.126 -15.358  1.00  0.00     0.692 A 
ATOM     29  H2  UNL     1      11.552  -4.542 -15.501  1.00  0.00     0.187 HD
HETATM   30  N11 UNL     1      13.162  -7.207 -14.623  1.00  0.00    -0.022 N 
ATOM     31  H11 UNL     1      13.947  -7.790 -14.915  1.00  0.00     0.203 HD
BRANCH  28  32
HETATM   32  N1  UNL     1      13.541  -5.824 -16.430  1.00  0.00    -0.234 N 
ATOM     33  H12 UNL     1      13.571  -4.864 -16.775  1.00  0.00     0.174 HD
ATOM     34  H11 UNL     1      14.062  -6.535 -16.944  1.00  0.00     0.174 HD
ENDBRANCH  28  32
ENDBRANCH   1  22
TORSDOF 7
ENDMDL
MODEL 4
REMARK VINA RESULT: -9.077091778      1.161      1.756
REMARK  7 active torsions:
REMARK  status: ('A' for Active; 'I' for Inactive)
REMARK    1  A    between atoms: N1_1  and  C1_4 
REMARK    2  A    between atoms: C3_11  and  N5_12 
REMARK    3  A    between atoms: C6_15  and  N6_16 
REMARK    4  A    between atoms: N6_16  and  C7_18 
REMARK    5  A    between atoms: C7_18  and  O1_19 
REMARK    6  A    between atoms: C7_18  and  C8_21 
REMARK    7  A    between atoms: C8_21  and  C9_23 
ROOT
HETATM    1  N5  UNL     1      11.714  -8.522 -12.814  1.00  0.00    -0.215 N 
HETATM    2  C4  UNL     1      10.581  -8.749 -11.947  1.00  0.00     0.143 C 
HETATM    3  C5  UNL     1      10.479 -10.270 -11.801  1.00  0.00     0.047 C 
HETATM    4  C6  UNL     1      11.563 -10.806 -12.668  1.00  0.00     0.099 C 
HETATM    5  C13 UNL     1      12.607  -9.636 -12.574  1.00  0.00     0.166 C 
ENDROOT
BRANCH   4   6
HETATM    6  N6  UNL     1      12.171 -12.000 -12.348  1.00  0.00    -0.386 N 
ATOM      7  H6  UNL     1      12.123 -12.240 -11.358  1.00  0.00     0.156 HD
BRANCH   6   8
HETATM    8  C7  UNL     1      12.822 -12.918 -13.112  1.00  0.00     0.265 C 
BRANCH   8   9
HETATM    9  O1  UNL     1      12.020 -14.122 -13.281  1.00  0.00    -0.372 OA
ATOM     10  H1  UNL     1      12.231 -14.768 -12.616  1.00  0.00     0.212 HD
ENDBRANCH   8   9
BRANCH   8  11
HETATM   11  C8  UNL     1      14.200 -13.397 -12.884  1.00  0.00     0.099 C 
HETATM   12  N7  UNL     1      15.147 -12.530 -12.295  1.00  0.00    -0.100 NA
BRANCH  11  13
HETATM   13  C9  UNL     1      14.786 -14.187 -14.010  1.00  0.00     0.072 A 
HETATM   14  C10 UNL     1      14.168 -14.223 -15.252  1.00  0.00     0.036 A 
HETATM   15  C11 UNL     1      14.684 -14.961 -16.296  1.00  0.00     0.049 A 
HETATM   16  C12 UNL     1      15.850 -15.681 -16.085  1.00  0.00     0.130 A 
HETATM   17  N8  UNL     1      16.383 -16.444 -17.161  1.00  0.00    -0.081 NA
HETATM   18  N9  UNL     1      16.415 -15.620 -14.873  1.00  0.00    -0.287 N 
HETATM   19  N10 UNL     1      15.901 -14.902 -13.881  1.00  0.00    -0.298 N 
ATOM     20  H9  UNL     1      17.273 -16.146 -14.705  1.00  0.00     0.188 HD
ATOM     21  H10 UNL     1      16.382 -14.899 -12.981  1.00  0.00     0.187 HD
ENDBRANCH  11  13
ENDBRANCH   8  11
ENDBRANCH   6   8
ENDBRANCH   4   6
BRANCH   1  22
HETATM   22  C3  UNL     1      11.913  -7.447 -13.714  1.00  0.00     0.697 A 
HETATM   23  N4  UNL     1      13.078  -7.107 -14.242  1.00  0.00    -0.162 N 
HETATM   24  C2  UNL     1      13.239  -6.078 -15.101  1.00  0.00     0.221 A 
ATOM     25  H4  UNL     1      13.901  -7.654 -13.986  1.00  0.00     0.187 HD
HETATM   26  N2  UNL     1      12.146  -5.364 -15.432  1.00  0.00    -0.163 N 
HETATM   27  N3  UNL     1      14.489  -5.715 -15.662  1.00  0.00    -0.062 NA
HETATM   28  C1  UNL     1      10.928  -5.660 -14.928  1.00  0.00     0.692 A 
ATOM     29  H2  UNL     1      12.240  -4.581 -16.079  1.00  0.00     0.187 HD
HETATM   30  N11 UNL     1      10.832  -6.697 -14.077  1.00  0.00    -0.022 N 
ATOM     31  H11 UNL     1       9.918  -6.932 -13.689  1.00  0.00     0.203 HD
BRANCH  28  32
HETATM   32  N1  UNL     1       9.865  -4.965 -15.256  1.00  0.00    -0.234 N 
ATOM     33  H12 UNL     1       9.111  -5.392 -15.794  1.00  0.00     0.174 HD
ATOM     34  H11 UNL     1       9.766  -3.986 -14.984  1.00  0.00     0.174 HD
ENDBRANCH  28  32
ENDBRANCH   1  22
TORSDOF 7
ENDMDL
MODEL 5
REMARK VINA RESULT: -8.950433502      1.831      2.512
REMARK  7 active torsions:
REMARK  status: ('A' for Active; 'I' for Inactive)
REMARK    1  A    between atoms: N1_1  and  C1_4 
REMARK    2  A    between atoms: C3_11  and  N5_12 
REMARK    3  A    between atoms: C6_15  and  N6_16 
REMARK    4  A    between atoms: N6_16  and  C7_18 
REMARK    5  A    between atoms: C7_18  and  O1_19 
REMARK    6  A    between atoms: C7_18  and  C8_21 
REMARK    7  A    between atoms: C8_21  and  C9_23 
ROOT
HETATM    1  N5  UNL     1      13.468  -8.090 -12.531  1.00  0.00    -0.215 N 
HETATM    2  C4  UNL     1      14.491  -7.915 -11.527  1.00  0.00     0.143 C 
HETATM    3  C5  UNL     1      14.239  -9.015 -10.493  1.00  0.00     0.047 C 
HETATM    4  C6  UNL     1      13.020  -9.717 -10.978  1.00  0.00     0.099 C 
HETATM    5  C13 UNL     1      13.169  -9.506 -12.527  1.00  0.00     0.166 C 
ENDROOT
BRANCH   4   6
HETATM    6  N6  UNL     1      12.843 -11.055 -10.703  1.00  0.00    -0.386 N 
ATOM      7  H6  UNL     1      12.554 -11.249  -9.745  1.00  0.00     0.156 HD
BRANCH   6   8
HETATM    8  C7  UNL     1      12.984 -12.165 -11.478  1.00  0.00     0.265 C 
BRANCH   8   9
HETATM    9  O1  UNL     1      12.133 -13.247 -11.000  1.00  0.00    -0.372 OA
ATOM     10  H1  UNL     1      12.636 -14.042 -10.866  1.00  0.00     0.212 HD
ENDBRANCH   8   9
BRANCH   8  11
HETATM   11  C8  UNL     1      14.267 -12.805 -11.829  1.00  0.00     0.099 C 
HETATM   12  N7  UNL     1      15.478 -12.175 -11.468  1.00  0.00    -0.100 NA
BRANCH  11  13
HETATM   13  C9  UNL     1      14.324 -13.386 -13.205  1.00  0.00     0.072 A 
HETATM   14  C10 UNL     1      15.486 -13.980 -13.679  1.00  0.00     0.036 A 
HETATM   15  C11 UNL     1      15.562 -14.505 -14.951  1.00  0.00     0.049 A 
HETATM   16  C12 UNL     1      14.444 -14.430 -15.767  1.00  0.00     0.130 A 
HETATM   17  N8  UNL     1      14.522 -14.970 -17.081  1.00  0.00    -0.081 NA
HETATM   18  N9  UNL     1      13.344 -13.849 -15.272  1.00  0.00    -0.287 N 
HETATM   19  N10 UNL     1      13.291 -13.351 -14.043  1.00  0.00    -0.298 N 
ATOM     20  H9  UNL     1      12.514 -13.788 -15.863  1.00  0.00     0.188 HD
ATOM     21  H10 UNL     1      12.421 -12.922 -13.727  1.00  0.00     0.187 HD
ENDBRANCH  11  13
ENDBRANCH   8  11
ENDBRANCH   6   8
ENDBRANCH   4   6
BRANCH   1  22
HETATM   22  C3  UNL     1      12.874  -7.094 -13.344  1.00  0.00     0.697 A 
HETATM   23  N4  UNL     1      11.760  -6.442 -13.051  1.00  0.00    -0.162 N 
HETATM   24  C2  UNL     1      11.217  -5.494 -13.845  1.00  0.00     0.221 A 
ATOM     25  H4  UNL     1      11.285  -6.669 -12.178  1.00  0.00     0.187 HD
HETATM   26  N2  UNL     1      11.854  -5.203 -14.996  1.00  0.00    -0.163 N 
HETATM   27  N3  UNL     1      10.023  -4.800 -13.529  1.00  0.00    -0.062 NA
HETATM   28  C1  UNL     1      12.995  -5.832 -15.352  1.00  0.00     0.692 A 
ATOM     29  H2  UNL     1      11.465  -4.491 -15.613  1.00  0.00     0.187 HD
HETATM   30  N11 UNL     1      13.486  -6.768 -14.520  1.00  0.00    -0.022 N 
ATOM     31  H11 UNL     1      14.347  -7.251 -14.776  1.00  0.00     0.203 HD
BRANCH  28  32
HETATM   32  N1  UNL     1      13.614  -5.544 -16.472  1.00  0.00    -0.234 N 
ATOM     33  H12 UNL     1      13.975  -4.605 -16.639  1.00  0.00     0.174 HD
ATOM     34  H11 UNL     1      13.747  -6.246 -17.201  1.00  0.00     0.174 HD
ENDBRANCH  28  32
ENDBRANCH   1  22
TORSDOF 7
ENDMDL
