MODEL 1
REMARK VINA RESULT: -5.249695027      0.000      0.000
REMARK  3 active torsions:
REMARK  status: ('A' for Active; 'I' for Inactive)
REMARK    1  A    between atoms: O1_2  and  C2_3 
REMARK    2  A    between atoms: C10_12  and  C11_13 
REMARK    3  A    between atoms: C17_21  and  O4_22 
ROOT
HETATM    1  C2  UNL     1      27.229 -30.349   0.483  1.00  0.00     0.092 C 
HETATM    2  C3  UNL     1      26.237 -31.482   0.876  1.00  0.00     0.049 C 
HETATM    3  C4  UNL     1      26.710 -29.178   1.190  1.00  0.00     0.185 A 
HETATM    4  O2  UNL     1      26.085 -28.080   0.869  1.00  0.00    -0.372 OA
HETATM    5  C5  UNL     1      27.332 -27.992   0.463  1.00  0.00     0.154 A 
HETATM    6  C6  UNL     1      28.630 -27.842   1.147  1.00  0.00     0.035 C 
HETATM    7  C7  UNL     1      29.645 -28.585   0.274  1.00  0.00     0.012 C 
HETATM    8  C8  UNL     1      29.785 -30.025   0.590  1.00  0.00    -0.029 C 
HETATM    9  C9  UNL     1      30.783 -30.059   1.769  1.00  0.00     0.016 C 
HETATM   10  C10 UNL     1      30.371 -30.707  -0.612  1.00  0.00     0.026 C 
HETATM   11  C15 UNL     1      30.650 -32.193  -0.391  1.00  0.00     0.048 C 
HETATM   12  C16 UNL     1      29.280 -32.822  -0.199  1.00  0.00     0.199 C 
HETATM   13  F1  UNL     1      29.475 -34.168  -0.012  1.00  0.00    -0.247 F 
HETATM   14  C17 UNL     1      28.774 -32.246   1.093  1.00  0.00     0.160 C 
HETATM   15  C18 UNL     1      28.577 -30.748   1.049  1.00  0.00     0.062 C 
ENDROOT
BRANCH  10  16
HETATM   16  C11 UNL     1      31.518 -30.152  -1.310  1.00  0.00     0.126 C 
HETATM   17  C12 UNL     1      31.429 -29.699  -2.708  1.00  0.00     0.034 C 
HETATM   18  C13 UNL     1      32.916 -29.462  -3.034  1.00  0.00     0.029 C 
HETATM   19  C14 UNL     1      33.642 -30.115  -1.904  1.00  0.00     0.168 C 
HETATM   20  O3  UNL     1      32.737 -30.840  -1.172  1.00  0.00    -0.385 OA
ENDBRANCH  10  16
BRANCH   1  21
HETATM   21  O1  UNL     1      27.179 -30.327  -0.874  1.00  0.00    -0.382 OA
HETATM   22  C1  UNL     1      26.239 -31.085  -1.502  1.00  0.00     0.202 C 
ENDBRANCH   1  21
BRANCH  14  23
HETATM   23  O4  UNL     1      29.764 -32.555   2.058  1.00  0.00    -0.392 OA
ATOM     24  H4  UNL     1      29.831 -31.785   2.609  1.00  0.00     0.210 HD
ENDBRANCH  14  23
TORSDOF 3
ENDMDL
MODEL 2
REMARK VINA RESULT: -5.239448982      2.685      4.801
REMARK  3 active torsions:
REMARK  status: ('A' for Active; 'I' for Inactive)
REMARK    1  A    between atoms: O1_2  and  C2_3 
REMARK    2  A    between atoms: C10_12  and  C11_13 
REMARK    3  A    between atoms: C17_21  and  O4_22 
ROOT
HETATM    1  C2  UNL     1      29.777 -30.454  -0.322  1.00  0.00     0.092 C 
HETATM    2  C3  UNL     1      28.766 -29.284  -0.147  1.00  0.00     0.049 C 
HETATM    3  C4  UNL     1      30.672 -29.978  -1.378  1.00  0.00     0.185 A 
HETATM    4  O2  UNL     1      30.878 -30.251  -2.636  1.00  0.00    -0.372 OA
HETATM    5  C5  UNL     1      31.338 -31.242  -1.906  1.00  0.00     0.154 A 
HETATM    6  C6  UNL     1      32.487 -31.404  -0.993  1.00  0.00     0.035 C 
HETATM    7  C7  UNL     1      32.026 -32.397   0.077  1.00  0.00     0.012 C 
HETATM    8  C8  UNL     1      31.349 -31.775   1.238  1.00  0.00    -0.029 C 
HETATM    9  C9  UNL     1      32.507 -31.329   2.158  1.00  0.00     0.016 C 
HETATM   10  C10 UNL     1      30.522 -32.831   1.911  1.00  0.00     0.026 C 
HETATM   11  C15 UNL     1      29.832 -32.343   3.184  1.00  0.00     0.048 C 
HETATM   12  C16 UNL     1      28.838 -31.295   2.710  1.00  0.00     0.199 C 
HETATM   13  F1  UNL     1      28.177 -30.834   3.821  1.00  0.00    -0.247 F 
HETATM   14  C17 UNL     1      29.689 -30.175   2.182  1.00  0.00     0.160 C 
HETATM   15  C18 UNL     1      30.529 -30.567   0.988  1.00  0.00     0.062 C 
ENDROOT
BRANCH  10  16
HETATM   16  C11 UNL     1      31.066 -34.149   2.195  1.00  0.00     0.126 C 
HETATM   17  C12 UNL     1      30.314 -35.378   1.895  1.00  0.00     0.034 C 
HETATM   18  C13 UNL     1      31.184 -36.435   2.602  1.00  0.00     0.029 C 
HETATM   19  C14 UNL     1      32.105 -35.628   3.458  1.00  0.00     0.168 C 
HETATM   20  O3  UNL     1      31.672 -34.327   3.451  1.00  0.00    -0.385 OA
ENDBRANCH  10  16
BRANCH   1  21
HETATM   21  O1  UNL     1      28.992 -31.524  -0.609  1.00  0.00    -0.382 OA
HETATM   22  C1  UNL     1      27.681 -31.309  -0.899  1.00  0.00     0.202 C 
ENDBRANCH   1  21
BRANCH  14  23
HETATM   23  O4  UNL     1      30.544 -29.812   3.252  1.00  0.00    -0.392 OA
ATOM     24  H4  UNL     1      30.986 -29.022   2.967  1.00  0.00     0.210 HD
ENDBRANCH  14  23
TORSDOF 3
ENDMDL
MODEL 3
REMARK VINA RESULT: -5.219012592      1.372      1.579
REMARK  3 active torsions:
REMARK  status: ('A' for Active; 'I' for Inactive)
REMARK    1  A    between atoms: O1_2  and  C2_3 
REMARK    2  A    between atoms: C10_12  and  C11_13 
REMARK    3  A    between atoms: C17_21  and  O4_22 
ROOT
HETATM    1  C2  UNL     1      27.831 -30.504   0.040  1.00  0.00     0.092 C 
HETATM    2  C3  UNL     1      26.616 -31.452  -0.176  1.00  0.00     0.049 C 
HETATM    3  C4  UNL     1      27.228 -29.297   0.607  1.00  0.00     0.185 A 
HETATM    4  O2  UNL     1      26.972 -28.087   0.197  1.00  0.00    -0.372 OA
HETATM    5  C5  UNL     1      28.268 -28.210   0.373  1.00  0.00     0.154 A 
HETATM    6  C6  UNL     1      29.140 -28.341   1.557  1.00  0.00     0.035 C 
HETATM    7  C7  UNL     1      30.318 -29.210   1.107  1.00  0.00     0.012 C 
HETATM    8  C8  UNL     1      30.096 -30.667   1.262  1.00  0.00    -0.029 C 
HETATM    9  C9  UNL     1      30.458 -30.950   2.737  1.00  0.00     0.016 C 
HETATM   10  C10 UNL     1      31.047 -31.378   0.344  1.00  0.00     0.026 C 
HETATM   11  C15 UNL     1      30.985 -32.901   0.466  1.00  0.00     0.048 C 
HETATM   12  C16 UNL     1      29.595 -33.273  -0.025  1.00  0.00     0.199 C 
HETATM   13  F1  UNL     1      29.493 -34.640   0.051  1.00  0.00    -0.247 F 
HETATM   14  C17 UNL     1      28.661 -32.685   0.995  1.00  0.00     0.160 C 
HETATM   15  C18 UNL     1      28.720 -31.176   1.067  1.00  0.00     0.062 C 
ENDROOT
BRANCH  10  16
HETATM   16  C11 UNL     1      32.451 -31.009   0.276  1.00  0.00     0.126 C 
HETATM   17  C12 UNL     1      33.153 -30.867  -1.009  1.00  0.00     0.034 C 
HETATM   18  C13 UNL     1      34.613 -30.734  -0.533  1.00  0.00     0.029 C 
HETATM   19  C14 UNL     1      34.561 -31.141   0.903  1.00  0.00     0.168 C 
HETATM   20  O3  UNL     1      33.323 -31.674   1.156  1.00  0.00    -0.385 OA
ENDBRANCH  10  16
BRANCH   1  21
HETATM   21  O1  UNL     1      28.387 -30.399  -1.194  1.00  0.00    -0.382 OA
HETATM   22  C1  UNL     1      27.615 -30.676  -2.280  1.00  0.00     0.202 C 
ENDBRANCH   1  21
BRANCH  14  23
HETATM   23  O4  UNL     1      29.069 -33.226   2.239  1.00  0.00    -0.392 OA
ATOM     24  H4  UNL     1      28.329 -33.732   2.551  1.00  0.00     0.210 HD
ENDBRANCH  14  23
TORSDOF 3
ENDMDL
MODEL 4
REMARK VINA RESULT: -5.167255834      3.139      4.948
REMARK  3 active torsions:
REMARK  status: ('A' for Active; 'I' for Inactive)
REMARK    1  A    between atoms: O1_2  and  C2_3 
REMARK    2  A    between atoms: C10_12  and  C11_13 
REMARK    3  A    between atoms: C17_21  and  O4_22 
ROOT
HETATM    1  C2  UNL     1      30.615 -33.505   2.876  1.00  0.00     0.092 C 
HETATM    2  C3  UNL     1      30.353 -33.476   4.410  1.00  0.00     0.049 C 
HETATM    3  C4  UNL     1      29.465 -34.237   2.345  1.00  0.00     0.185 A 
HETATM    4  O2  UNL     1      29.247 -35.419   1.843  1.00  0.00    -0.372 OA
HETATM    5  C5  UNL     1      29.917 -34.703   0.968  1.00  0.00     0.154 A 
HETATM    6  C6  UNL     1      29.588 -33.546   0.113  1.00  0.00     0.035 C 
HETATM    7  C7  UNL     1      30.885 -32.743  -0.012  1.00  0.00     0.012 C 
HETATM    8  C8  UNL     1      31.087 -31.739   1.058  1.00  0.00    -0.029 C 
HETATM    9  C9  UNL     1      30.286 -30.508   0.579  1.00  0.00     0.016 C 
HETATM   10  C10 UNL     1      32.552 -31.418   1.119  1.00  0.00     0.026 C 
HETATM   11  C15 UNL     1      32.893 -30.323   2.129  1.00  0.00     0.048 C 
HETATM   12  C16 UNL     1      32.556 -30.926   3.484  1.00  0.00     0.199 C 
HETATM   13  F1  UNL     1      32.861 -29.983   4.433  1.00  0.00    -0.247 F 
HETATM   14  C17 UNL     1      31.063 -31.094   3.464  1.00  0.00     0.160 C 
HETATM   15  C18 UNL     1      30.579 -32.064   2.410  1.00  0.00     0.062 C 
ENDROOT
BRANCH  10  16
HETATM   16  C11 UNL     1      33.316 -31.143  -0.087  1.00  0.00     0.126 C 
HETATM   17  C12 UNL     1      34.767 -30.898  -0.045  1.00  0.00     0.034 C 
HETATM   18  C13 UNL     1      35.025 -30.417  -1.486  1.00  0.00     0.029 C 
HETATM   19  C14 UNL     1      33.658 -30.153  -2.027  1.00  0.00     0.168 C 
HETATM   20  O3  UNL     1      32.763 -30.219  -0.990  1.00  0.00    -0.385 OA
ENDBRANCH  10  16
BRANCH   1  21
HETATM   21  O1  UNL     1      31.832 -34.097   2.765  1.00  0.00    -0.382 OA
HETATM   22  C1  UNL     1      32.368 -34.695   3.863  1.00  0.00     0.202 C 
ENDBRANCH   1  21
BRANCH  14  23
HETATM   23  O4  UNL     1      30.541 -29.807   3.185  1.00  0.00    -0.392 OA
ATOM     24  H4  UNL     1      30.058 -29.899   2.373  1.00  0.00     0.210 HD
ENDBRANCH  14  23
TORSDOF 3
ENDMDL
MODEL 5
REMARK VINA RESULT: -5.054545651      2.519      3.558
REMARK  3 active torsions:
REMARK  status: ('A' for Active; 'I' for Inactive)
REMARK    1  A    between atoms: O1_2  and  C2_3 
REMARK    2  A    between atoms: C10_12  and  C11_13 
REMARK    3  A    between atoms: C17_21  and  O4_22 
ROOT
HETATM    1  C2  UNL     1      29.515 -32.708   2.312  1.00  0.00     0.092 C 
HETATM    2  C3  UNL     1      29.220 -33.735   3.444  1.00  0.00     0.049 C 
HETATM    3  C4  UNL     1      28.278 -31.932   2.222  1.00  0.00     0.185 A 
HETATM    4  O2  UNL     1      27.281 -31.837   1.387  1.00  0.00    -0.372 OA
HETATM    5  C5  UNL     1      28.342 -31.279   0.847  1.00  0.00     0.154 A 
HETATM    6  C6  UNL     1      29.106 -30.045   1.114  1.00  0.00     0.035 C 
HETATM    7  C7  UNL     1      30.557 -30.371   0.748  1.00  0.00     0.012 C 
HETATM    8  C8  UNL     1      31.350 -30.956   1.853  1.00  0.00    -0.029 C 
HETATM    9  C9  UNL     1      31.836 -29.731   2.660  1.00  0.00     0.016 C 
HETATM   10  C10 UNL     1      32.517 -31.681   1.250  1.00  0.00     0.026 C 
HETATM   11  C15 UNL     1      33.474 -32.264   2.290  1.00  0.00     0.048 C 
HETATM   12  C16 UNL     1      32.664 -33.331   3.009  1.00  0.00     0.199 C 
HETATM   13  F1  UNL     1      33.487 -33.899   3.949  1.00  0.00    -0.247 F 
HETATM   14  C17 UNL     1      31.592 -32.569   3.736  1.00  0.00     0.160 C 
HETATM   15  C18 UNL     1      30.645 -31.833   2.815  1.00  0.00     0.062 C 
ENDROOT
BRANCH  10  16
HETATM   16  C11 UNL     1      33.331 -31.072   0.211  1.00  0.00     0.126 C 
HETATM   17  C12 UNL     1      33.149 -31.406  -1.210  1.00  0.00     0.034 C 
HETATM   18  C13 UNL     1      34.381 -30.721  -1.833  1.00  0.00     0.029 C 
HETATM   19  C14 UNL     1      35.238 -30.385  -0.657  1.00  0.00     0.168 C 
HETATM   20  O3  UNL     1      34.715 -31.004   0.449  1.00  0.00    -0.385 OA
ENDBRANCH  10  16
BRANCH   1  21
HETATM   21  O1  UNL     1      29.842 -33.482   1.246  1.00  0.00    -0.382 OA
HETATM   22  C1  UNL     1      29.706 -34.831   1.356  1.00  0.00     0.202 C 
ENDBRANCH   1  21
BRANCH  14  23
HETATM   23  O4  UNL     1      32.278 -31.629   4.545  1.00  0.00    -0.392 OA
ATOM     24  H4  UNL     1      33.187 -31.677   4.275  1.00  0.00     0.210 HD
ENDBRANCH  14  23
TORSDOF 3
ENDMDL
