MODEL 1
REMARK VINA RESULT: -5.826498711      0.000      0.000
REMARK  3 active torsions:
REMARK  status: ('A' for Active; 'I' for Inactive)
REMARK    1  A    between atoms: C2_3  and  C3_4 
REMARK    2  A    between atoms: C3_4  and  N2_5 
REMARK    3  A    between atoms: N2_5  and  C4_7 
ROOT
HETATM    1  N1  UNL     1      38.098  58.182  16.852  1.00  0.00    -0.197 NA
HETATM    2  C1  UNL     1      37.420  57.284  16.655  1.00  0.00     0.061 C 
HETATM    3  C2  UNL     1      36.539  56.154  16.430  1.00  0.00     0.154 C 
ENDROOT
BRANCH   3   4
HETATM    4  C3  UNL     1      37.245  54.817  16.306  1.00  0.00     0.045 C 
HETATM    5  C5  UNL     1      36.347  53.721  15.874  1.00  0.00     0.059 C 
HETATM    6  C6  UNL     1      36.646  52.433  16.630  1.00  0.00     0.235 C 
HETATM    7  N4  UNL     1      36.354  52.620  18.042  1.00  0.00    -0.075 N 
HETATM    8  C7  UNL     1      37.003  53.749  18.609  1.00  0.00     0.235 C 
ATOM      9  H42 UNL     1      35.348  52.664  18.200  1.00  0.00     0.277 HD
ATOM     10  H41 UNL     1      36.573  51.775  18.570  1.00  0.00     0.277 HD
HETATM   11  C8  UNL     1      37.837  54.491  17.651  1.00  0.00     0.059 C 
BRANCH   4  12
HETATM   12  N2  UNL     1      38.392  55.047  15.482  1.00  0.00    -0.378 N 
ATOM     13  H2  UNL     1      38.287  55.507  14.578  1.00  0.00     0.160 HD
BRANCH  12  14
HETATM   14  C4  UNL     1      39.652  54.641  15.916  1.00  0.00     0.185 C 
HETATM   15  N3  UNL     1      40.593  55.726  15.673  1.00  0.00    -0.097 NA
ENDBRANCH  12  14
ENDBRANCH   4  12
ENDBRANCH   3   4
TORSDOF 3
ENDMDL
MODEL 2
REMARK VINA RESULT: -5.732512694      1.640      4.385
REMARK  3 active torsions:
REMARK  status: ('A' for Active; 'I' for Inactive)
REMARK    1  A    between atoms: C2_3  and  C3_4 
REMARK    2  A    between atoms: C3_4  and  N2_5 
REMARK    3  A    between atoms: N2_5  and  C4_7 
ROOT
HETATM    1  N1  UNL     1      35.967  52.870  14.085  1.00  0.00    -0.197 NA
HETATM    2  C1  UNL     1      36.066  52.874  15.224  1.00  0.00     0.061 C 
HETATM    3  C2  UNL     1      36.161  52.867  16.670  1.00  0.00     0.154 C 
ENDROOT
BRANCH   3   4
HETATM    4  C3  UNL     1      36.679  54.157  17.276  1.00  0.00     0.045 C 
HETATM    5  C5  UNL     1      36.312  55.358  16.490  1.00  0.00     0.059 C 
HETATM    6  C6  UNL     1      37.467  56.350  16.427  1.00  0.00     0.235 C 
HETATM    7  N4  UNL     1      38.578  55.755  15.703  1.00  0.00    -0.075 N 
HETATM    8  C7  UNL     1      38.972  54.489  16.212  1.00  0.00     0.235 C 
ATOM      9  H42 UNL     1      38.370  55.695  14.707  1.00  0.00     0.277 HD
ATOM     10  H41 UNL     1      39.372  56.394  15.672  1.00  0.00     0.277 HD
HETATM   11  C8  UNL     1      38.177  54.046  17.368  1.00  0.00     0.059 C 
BRANCH   4  12
HETATM   12  N2  UNL     1      36.259  54.153  18.644  1.00  0.00    -0.378 N 
ATOM     13  H2  UNL     1      36.370  54.991  19.214  1.00  0.00     0.160 HD
BRANCH  12  14
HETATM   14  C4  UNL     1      35.698  53.003  19.195  1.00  0.00     0.185 C 
HETATM   15  N3  UNL     1      34.835  53.398  20.300  1.00  0.00    -0.097 NA
ENDBRANCH  12  14
ENDBRANCH   4  12
ENDBRANCH   3   4
TORSDOF 3
ENDMDL
MODEL 3
REMARK VINA RESULT: -5.719844765      6.669      8.125
REMARK  3 active torsions:
REMARK  status: ('A' for Active; 'I' for Inactive)
REMARK    1  A    between atoms: C2_3  and  C3_4 
REMARK    2  A    between atoms: C3_4  and  N2_5 
REMARK    3  A    between atoms: N2_5  and  C4_7 
ROOT
HETATM    1  N1  UNL     1      37.957  47.186  21.051  1.00  0.00    -0.197 NA
HETATM    2  C1  UNL     1      37.283  48.064  21.335  1.00  0.00     0.061 C 
HETATM    3  C2  UNL     1      36.423  49.164  21.726  1.00  0.00     0.154 C 
ENDROOT
BRANCH   3   4
HETATM    4  C3  UNL     1      35.357  49.525  20.710  1.00  0.00     0.045 C 
HETATM    5  C5  UNL     1      35.440  50.931  20.251  1.00  0.00     0.059 C 
HETATM    6  C6  UNL     1      34.055  51.550  20.114  1.00  0.00     0.235 C 
HETATM    7  N4  UNL     1      33.424  51.621  21.422  1.00  0.00    -0.075 N 
HETATM    8  C7  UNL     1      33.402  50.377  22.108  1.00  0.00     0.235 C 
ATOM      9  H42 UNL     1      33.861  52.342  21.996  1.00  0.00     0.277 HD
ATOM     10  H41 UNL     1      32.483  52.009  21.348  1.00  0.00     0.277 HD
HETATM   11  C8  UNL     1      34.018  49.276  21.350  1.00  0.00     0.059 C 
BRANCH   4  12
HETATM   12  N2  UNL     1      35.428  48.529  19.686  1.00  0.00    -0.378 N 
ATOM     13  H2  UNL     1      36.293  48.008  19.540  1.00  0.00     0.160 HD
BRANCH  12  14
HETATM   14  C4  UNL     1      34.316  48.269  18.889  1.00  0.00     0.185 C 
HETATM   15  N3  UNL     1      34.682  47.265  17.900  1.00  0.00    -0.097 NA
ENDBRANCH  12  14
ENDBRANCH   4  12
ENDBRANCH   3   4
TORSDOF 3
ENDMDL
MODEL 4
REMARK VINA RESULT: -5.693303086      5.745      8.024
REMARK  3 active torsions:
REMARK  status: ('A' for Active; 'I' for Inactive)
REMARK    1  A    between atoms: C2_3  and  C3_4 
REMARK    2  A    between atoms: C3_4  and  N2_5 
REMARK    3  A    between atoms: N2_5  and  C4_7 
ROOT
HETATM    1  N1  UNL     1      37.445  47.686  21.342  1.00  0.00    -0.197 NA
HETATM    2  C1  UNL     1      36.849  48.659  21.390  1.00  0.00     0.061 C 
HETATM    3  C2  UNL     1      36.100  49.897  21.483  1.00  0.00     0.154 C 
ENDROOT
BRANCH   3   4
HETATM    4  C3  UNL     1      34.730  49.858  20.832  1.00  0.00     0.045 C 
HETATM    5  C5  UNL     1      34.585  48.761  19.847  1.00  0.00     0.059 C 
HETATM    6  C6  UNL     1      33.812  49.222  18.618  1.00  0.00     0.235 C 
HETATM    7  N4  UNL     1      34.572  50.248  17.924  1.00  0.00    -0.075 N 
HETATM    8  C7  UNL     1      34.963  51.327  18.761  1.00  0.00     0.235 C 
ATOM      9  H42 UNL     1      35.383  49.843  17.456  1.00  0.00     0.277 HD
ATOM     10  H41 UNL     1      34.060  50.589  17.111  1.00  0.00     0.277 HD
HETATM   11  C8  UNL     1      34.512  51.184  20.154  1.00  0.00     0.059 C 
BRANCH   4  12
HETATM   12  N2  UNL     1      33.780  49.868  21.901  1.00  0.00    -0.378 N 
ATOM     13  H2  UNL     1      33.607  49.018  22.438  1.00  0.00     0.160 HD
BRANCH  12  14
HETATM   14  C4  UNL     1      33.093  51.040  22.210  1.00  0.00     0.185 C 
HETATM   15  N3  UNL     1      33.488  51.466  23.545  1.00  0.00    -0.097 NA
ENDBRANCH  12  14
ENDBRANCH   4  12
ENDBRANCH   3   4
TORSDOF 3
ENDMDL
MODEL 5
REMARK VINA RESULT: -5.638156531      4.795      7.015
REMARK  3 active torsions:
REMARK  status: ('A' for Active; 'I' for Inactive)
REMARK    1  A    between atoms: C2_3  and  C3_4 
REMARK    2  A    between atoms: C3_4  and  N2_5 
REMARK    3  A    between atoms: N2_5  and  C4_7 
ROOT
HETATM    1  N1  UNL     1      33.991  48.932  16.132  1.00  0.00    -0.197 NA
HETATM    2  C1  UNL     1      33.966  48.877  17.273  1.00  0.00     0.061 C 
HETATM    3  C2  UNL     1      33.903  48.799  18.719  1.00  0.00     0.154 C 
ENDROOT
BRANCH   3   4
HETATM    4  C3  UNL     1      34.529  49.975  19.444  1.00  0.00     0.045 C 
HETATM    5  C5  UNL     1      35.441  49.567  20.539  1.00  0.00     0.059 C 
HETATM    6  C6  UNL     1      35.278  50.468  21.756  1.00  0.00     0.235 C 
HETATM    7  N4  UNL     1      33.941  50.307  22.304  1.00  0.00    -0.075 N 
HETATM    8  C7  UNL     1      32.910  50.493  21.345  1.00  0.00     0.235 C 
ATOM      9  H42 UNL     1      33.846  49.402  22.765  1.00  0.00     0.277 HD
ATOM     10  H41 UNL     1      33.803  50.922  23.106  1.00  0.00     0.277 HD
HETATM   11  C8  UNL     1      33.410  50.814  19.999  1.00  0.00     0.059 C 
BRANCH   4  12
HETATM   12  N2  UNL     1      35.102  50.808  18.432  1.00  0.00    -0.378 N 
ATOM     13  H2  UNL     1      35.731  50.407  17.736  1.00  0.00     0.160 HD
BRANCH  12  14
HETATM   14  C4  UNL     1      34.799  52.168  18.396  1.00  0.00     0.185 C 
HETATM   15  N3  UNL     1      34.467  52.529  17.026  1.00  0.00    -0.097 NA
ENDBRANCH  12  14
ENDBRANCH   4  12
ENDBRANCH   3   4
TORSDOF 3
ENDMDL
