MODEL 1
REMARK VINA RESULT: -6.765214337      0.000      0.000
REMARK  6 active torsions:
REMARK  status: ('A' for Active; 'I' for Inactive)
REMARK    1  A    between atoms: C3_3  and  O1_5 
REMARK    2  A    between atoms: C3_3  and  N1_7 
REMARK       I    between atoms: N1_7  and  C5_9 
REMARK    3  A    between atoms: C5_9  and  C6_11 
REMARK    4  A    between atoms: C15_23  and  C16_24 
REMARK    5  A    between atoms: C16_24  and  C18_26 
REMARK    6  A    between atoms: C18_26  and  N3_27 
ROOT
HETATM    1  C1  UNL     1      20.675  14.703  30.085  1.00  0.00     0.017 C 
HETATM    2  C2  UNL     1      21.296  13.991  30.843  1.00  0.00    -0.057 C 
HETATM    3  C3  UNL     1      22.039  13.133  31.786  1.00  0.00     0.196 C 
HETATM    4  C4  UNL     1      21.103  12.880  32.949  1.00  0.00     0.086 C 
ENDROOT
BRANCH   3   5
HETATM    5  O1  UNL     1      23.173  13.803  32.209  1.00  0.00    -0.361 OA
ATOM      6  H1  UNL     1      23.922  13.481  31.722  1.00  0.00     0.213 HD
ENDBRANCH   3   5
BRANCH   3   7
HETATM    7  N1  UNL     1      22.453  11.908  31.157  1.00  0.00    -0.319 N 
HETATM    8  C5  UNL     1      23.327  11.930  30.054  1.00  0.00     0.226 C 
HETATM    9  O2  UNL     1      23.717  13.090  29.662  1.00  0.00    -0.273 OA
ATOM     10  H1  UNL     1      22.111  11.015  31.513  1.00  0.00     0.166 HD
BRANCH   8  11
HETATM   11  C6  UNL     1      23.804  10.701  29.345  1.00  0.00     0.093 C 
HETATM   12  C7  UNL     1      23.107   9.522  30.017  1.00  0.00     0.042 C 
HETATM   13  C8  UNL     1      24.134   8.445  29.950  1.00  0.00    -0.022 C 
HETATM   14  C9  UNL     1      25.324   8.950  29.709  1.00  0.00    -0.069 C 
HETATM   15  C10 UNL     1      26.527   8.059  29.595  1.00  0.00     0.087 C 
HETATM   16  C28 UNL     1      25.275  10.432  29.573  1.00  0.00    -0.008 C 
HETATM   17  C11 UNL     1      27.555   8.701  28.726  1.00  0.00    -0.002 C 
HETATM   18  N2  UNL     1      27.770   8.056  27.604  1.00  0.00    -0.333 N 
HETATM   19  C25 UNL     1      28.302   9.927  28.968  1.00  0.00     0.041 C 
HETATM   20  C12 UNL     1      28.768   8.661  26.737  1.00  0.00     0.231 C 
ATOM     21  H2  UNL     1      27.275   7.199  27.359  1.00  0.00     0.168 HD
HETATM   22  O3  UNL     1      28.472   8.889  25.560  1.00  0.00    -0.272 OA
HETATM   23  C13 UNL     1      30.041   8.920  27.428  1.00  0.00     0.049 C 
HETATM   24  C14 UNL     1      30.487   7.633  28.083  1.00  0.00     0.027 C 
HETATM   25  C15 UNL     1      31.101   9.610  26.627  1.00  0.00     0.009 C 
HETATM   26  C23 UNL     1      29.727   9.949  28.502  1.00  0.00    -0.019 C 
HETATM   27  C21 UNL     1      30.545  10.990  26.493  1.00  0.00     0.007 C 
HETATM   28  C22 UNL     1      30.161  11.271  27.969  1.00  0.00     0.011 C 
HETATM   29  C24 UNL     1      30.656   9.627  29.685  1.00  0.00     0.017 C 
HETATM   30  C26 UNL     1      27.464  11.074  28.449  1.00  0.00     0.012 C 
HETATM   31  C27 UNL     1      26.013  10.791  28.319  1.00  0.00     0.015 C 
HETATM   32  C29 UNL     1      25.670  11.163  30.797  1.00  0.00     0.021 C 
BRANCH  25  33
HETATM   33  C16 UNL     1      31.508   8.978  25.383  1.00  0.00     0.015 C 
HETATM   34  C17 UNL     1      32.927   8.415  25.396  1.00  0.00     0.012 C 
BRANCH  33  35
HETATM   35  C18 UNL     1      31.482   9.908  24.211  1.00  0.00     0.275 C 
BRANCH  35  36
HETATM   36  N3  UNL     1      30.773   9.503  23.050  1.00  0.00     0.080 N 
HETATM   37  C19 UNL     1      29.813  10.580  22.762  1.00  0.00     0.309 C 
HETATM   38  C20 UNL     1      31.641   9.304  21.895  1.00  0.00     0.309 C 
ENDBRANCH  35  36
ENDBRANCH  33  35
ENDBRANCH  25  33
ENDBRANCH   8  11
ENDBRANCH   3   7
TORSDOF 6
ENDMDL
MODEL 2
REMARK VINA RESULT: -6.737353914      2.627      4.560
REMARK  6 active torsions:
REMARK  status: ('A' for Active; 'I' for Inactive)
REMARK    1  A    between atoms: C3_3  and  O1_5 
REMARK    2  A    between atoms: C3_3  and  N1_7 
REMARK       I    between atoms: N1_7  and  C5_9 
REMARK    3  A    between atoms: C5_9  and  C6_11 
REMARK    4  A    between atoms: C15_23  and  C16_24 
REMARK    5  A    between atoms: C16_24  and  C18_26 
REMARK    6  A    between atoms: C18_26  and  N3_27 
ROOT
HETATM    1  C1  UNL     1      21.882   6.136  32.036  1.00  0.00     0.017 C 
HETATM    2  C2  UNL     1      21.808   7.340  32.145  1.00  0.00    -0.057 C 
HETATM    3  C3  UNL     1      21.702   8.804  32.299  1.00  0.00     0.196 C 
HETATM    4  C4  UNL     1      21.447   9.054  33.770  1.00  0.00     0.086 C 
ENDROOT
BRANCH   3   5
HETATM    5  O1  UNL     1      20.643   9.263  31.535  1.00  0.00    -0.361 OA
ATOM      6  H1  UNL     1      20.971   9.871  30.884  1.00  0.00     0.213 HD
ENDBRANCH   3   5
BRANCH   3   7
HETATM    7  N1  UNL     1      22.897   9.460  31.843  1.00  0.00    -0.319 N 
HETATM    8  C5  UNL     1      22.924  10.857  31.666  1.00  0.00     0.226 C 
HETATM    9  O2  UNL     1      21.835  11.483  31.933  1.00  0.00    -0.273 OA
ATOM     10  H1  UNL     1      23.733   8.910  31.646  1.00  0.00     0.166 HD
BRANCH   8  11
HETATM   11  C6  UNL     1      24.127  11.614  31.196  1.00  0.00     0.093 C 
HETATM   12  C7  UNL     1      23.600  12.873  30.513  1.00  0.00     0.042 C 
HETATM   13  C8  UNL     1      24.579  13.090  29.412  1.00  0.00    -0.022 C 
HETATM   14  C9  UNL     1      25.276  11.998  29.185  1.00  0.00    -0.069 C 
HETATM   15  C10 UNL     1      26.331  11.968  28.118  1.00  0.00     0.087 C 
HETATM   16  C28 UNL     1      24.875  10.891  30.098  1.00  0.00    -0.008 C 
HETATM   17  C11 UNL     1      27.368  10.951  28.457  1.00  0.00    -0.002 C 
HETATM   18  N2  UNL     1      28.547  11.468  28.708  1.00  0.00    -0.333 N 
HETATM   19  C25 UNL     1      27.216   9.507  28.553  1.00  0.00     0.041 C 
HETATM   20  C12 UNL     1      29.578  10.497  29.040  1.00  0.00     0.231 C 
ATOM     21  H2  UNL     1      28.727  12.471  28.674  1.00  0.00     0.168 HD
HETATM   22  O3  UNL     1      30.228  10.654  30.078  1.00  0.00    -0.272 OA
HETATM   23  C13 UNL     1      29.694   9.425  28.040  1.00  0.00     0.049 C 
HETATM   24  C14 UNL     1      29.864  10.068  26.684  1.00  0.00     0.027 C 
HETATM   25  C15 UNL     1      30.682   8.341  28.342  1.00  0.00     0.009 C 
HETATM   26  C23 UNL     1      28.371   8.676  28.080  1.00  0.00    -0.019 C 
HETATM   27  C21 UNL     1      30.024   7.625  29.477  1.00  0.00     0.007 C 
HETATM   28  C22 UNL     1      28.598   7.450  28.896  1.00  0.00     0.011 C 
HETATM   29  C24 UNL     1      28.106   8.202  26.641  1.00  0.00     0.017 C 
HETATM   30  C26 UNL     1      26.765   9.195  29.963  1.00  0.00     0.012 C 
HETATM   31  C27 UNL     1      26.130  10.322  30.688  1.00  0.00     0.015 C 
HETATM   32  C29 UNL     1      23.938   9.921  29.493  1.00  0.00     0.021 C 
BRANCH  25  33
HETATM   33  C16 UNL     1      32.059   8.746  28.574  1.00  0.00     0.015 C 
HETATM   34  C17 UNL     1      33.025   8.360  27.458  1.00  0.00     0.012 C 
BRANCH  33  35
HETATM   35  C18 UNL     1      32.651   8.146  29.810  1.00  0.00     0.275 C 
BRANCH  35  36
HETATM   36  N3  UNL     1      33.177   9.024  30.795  1.00  0.00     0.080 N 
HETATM   37  C19 UNL     1      32.486   8.691  32.050  1.00  0.00     0.309 C 
HETATM   38  C20 UNL     1      34.616   8.874  30.979  1.00  0.00     0.309 C 
ENDBRANCH  35  36
ENDBRANCH  33  35
ENDBRANCH  25  33
ENDBRANCH   8  11
ENDBRANCH   3   7
TORSDOF 6
ENDMDL
MODEL 3
REMARK VINA RESULT: -6.687798530      3.394      8.719
REMARK  6 active torsions:
REMARK  status: ('A' for Active; 'I' for Inactive)
REMARK    1  A    between atoms: C3_3  and  O1_5 
REMARK    2  A    between atoms: C3_3  and  N1_7 
REMARK       I    between atoms: N1_7  and  C5_9 
REMARK    3  A    between atoms: C5_9  and  C6_11 
REMARK    4  A    between atoms: C15_23  and  C16_24 
REMARK    5  A    between atoms: C16_24  and  C18_26 
REMARK    6  A    between atoms: C18_26  and  N3_27 
ROOT
HETATM    1  C1  UNL     1      26.663  18.048  25.258  1.00  0.00     0.017 C 
HETATM    2  C2  UNL     1      27.432  17.119  25.148  1.00  0.00    -0.057 C 
HETATM    3  C3  UNL     1      28.385  16.002  25.000  1.00  0.00     0.196 C 
HETATM    4  C4  UNL     1      29.750  16.635  24.833  1.00  0.00     0.086 C 
ENDROOT
BRANCH   3   5
HETATM    5  O1  UNL     1      28.047  15.267  23.878  1.00  0.00    -0.361 OA
ATOM      6  H1  UNL     1      27.385  14.628  24.114  1.00  0.00     0.213 HD
ENDBRANCH   3   5
BRANCH   3   7
HETATM    7  N1  UNL     1      28.337  15.126  26.139  1.00  0.00    -0.319 N 
HETATM    8  C5  UNL     1      29.061  13.919  26.144  1.00  0.00     0.226 C 
HETATM    9  O2  UNL     1      29.747  13.664  25.089  1.00  0.00    -0.273 OA
ATOM     10  H1  UNL     1      27.773  15.380  26.950  1.00  0.00     0.166 HD
BRANCH   8  11
HETATM   11  C6  UNL     1      29.062  12.954  27.289  1.00  0.00     0.093 C 
HETATM   12  C7  UNL     1      30.163  11.939  26.991  1.00  0.00     0.042 C 
HETATM   13  C8  UNL     1      29.610  10.674  27.551  1.00  0.00    -0.022 C 
HETATM   14  C9  UNL     1      28.313  10.775  27.741  1.00  0.00    -0.069 C 
HETATM   15  C10 UNL     1      27.527   9.626  28.301  1.00  0.00     0.087 C 
HETATM   16  C28 UNL     1      27.803  12.118  27.346  1.00  0.00    -0.008 C 
HETATM   17  C11 UNL     1      26.317  10.134  29.009  1.00  0.00    -0.002 C 
HETATM   18  N2  UNL     1      26.335   9.915  30.303  1.00  0.00    -0.333 N 
HETATM   19  C25 UNL     1      25.172  10.835  28.447  1.00  0.00     0.041 C 
HETATM   20  C12 UNL     1      25.166  10.400  31.018  1.00  0.00     0.231 C 
ATOM     21  H2  UNL     1      27.109   9.443  30.770  1.00  0.00     0.168 HD
HETATM   22  O3  UNL     1      25.332  11.134  31.997  1.00  0.00    -0.272 OA
HETATM   23  C13 UNL     1      23.903   9.919  30.437  1.00  0.00     0.049 C 
HETATM   24  C14 UNL     1      23.982   8.414  30.330  1.00  0.00     0.027 C 
HETATM   25  C15 UNL     1      22.646  10.432  31.069  1.00  0.00     0.009 C 
HETATM   26  C23 UNL     1      23.832  10.521  29.043  1.00  0.00    -0.019 C 
HETATM   27  C21 UNL     1      22.645  11.865  30.647  1.00  0.00     0.007 C 
HETATM   28  C22 UNL     1      22.926  11.700  29.131  1.00  0.00     0.011 C 
HETATM   29  C24 UNL     1      23.114   9.481  28.166  1.00  0.00     0.017 C 
HETATM   30  C26 UNL     1      25.511  12.309  28.430  1.00  0.00     0.012 C 
HETATM   31  C27 UNL     1      26.959  12.626  28.476  1.00  0.00     0.015 C 
HETATM   32  C29 UNL     1      27.189  12.157  26.001  1.00  0.00     0.021 C 
BRANCH  25  33
HETATM   33  C16 UNL     1      22.479  10.202  32.495  1.00  0.00     0.015 C 
HETATM   34  C17 UNL     1      21.685   8.945  32.842  1.00  0.00     0.012 C 
BRANCH  33  35
HETATM   35  C18 UNL     1      21.756  11.310  33.192  1.00  0.00     0.275 C 
BRANCH  35  36
HETATM   36  N3  UNL     1      20.444  11.055  33.673  1.00  0.00     0.080 N 
HETATM   37  C19 UNL     1      20.518  11.167  35.138  1.00  0.00     0.309 C 
HETATM   38  C20 UNL     1      19.458  12.001  33.162  1.00  0.00     0.309 C 
ENDBRANCH  35  36
ENDBRANCH  33  35
ENDBRANCH  25  33
ENDBRANCH   8  11
ENDBRANCH   3   7
TORSDOF 6
ENDMDL
MODEL 4
REMARK VINA RESULT: -6.531476261      2.753      4.746
REMARK  6 active torsions:
REMARK  status: ('A' for Active; 'I' for Inactive)
REMARK    1  A    between atoms: C3_3  and  O1_5 
REMARK    2  A    between atoms: C3_3  and  N1_7 
REMARK       I    between atoms: N1_7  and  C5_9 
REMARK    3  A    between atoms: C5_9  and  C6_11 
REMARK    4  A    between atoms: C15_23  and  C16_24 
REMARK    5  A    between atoms: C16_24  and  C18_26 
REMARK    6  A    between atoms: C18_26  and  N3_27 
ROOT
HETATM    1  C1  UNL     1      21.569   6.134  32.357  1.00  0.00     0.017 C 
HETATM    2  C2  UNL     1      21.672   7.338  32.282  1.00  0.00    -0.057 C 
HETATM    3  C3  UNL     1      21.779   8.808  32.207  1.00  0.00     0.196 C 
HETATM    4  C4  UNL     1      21.299   9.332  33.544  1.00  0.00     0.086 C 
ENDROOT
BRANCH   3   5
HETATM    5  O1  UNL     1      20.968   9.268  31.184  1.00  0.00    -0.361 OA
ATOM      6  H1  UNL     1      20.114   9.483  31.540  1.00  0.00     0.213 HD
ENDBRANCH   3   5
BRANCH   3   7
HETATM    7  N1  UNL     1      23.128   9.216  31.924  1.00  0.00    -0.319 N 
HETATM    8  C5  UNL     1      23.402  10.524  31.484  1.00  0.00     0.226 C 
HETATM    9  O2  UNL     1      22.390  11.304  31.356  1.00  0.00    -0.273 OA
ATOM     10  H1  UNL     1      23.893   8.552  32.044  1.00  0.00     0.166 HD
BRANCH   8  11
HETATM   11  C6  UNL     1      24.778  11.025  31.169  1.00  0.00     0.093 C 
HETATM   12  C7  UNL     1      24.605  12.450  30.650  1.00  0.00     0.042 C 
HETATM   13  C8  UNL     1      25.682  12.565  29.627  1.00  0.00    -0.022 C 
HETATM   14  C9  UNL     1      26.121  11.376  29.276  1.00  0.00    -0.069 C 
HETATM   15  C10 UNL     1      27.211  11.231  28.255  1.00  0.00     0.087 C 
HETATM   16  C28 UNL     1      25.413  10.291  30.009  1.00  0.00    -0.008 C 
HETATM   17  C11 UNL     1      27.958   9.961  28.486  1.00  0.00    -0.002 C 
HETATM   18  N2  UNL     1      29.205  10.144  28.850  1.00  0.00    -0.333 N 
HETATM   19  C25 UNL     1      27.469   8.595  28.373  1.00  0.00     0.041 C 
HETATM   20  C12 UNL     1      29.957   8.922  29.081  1.00  0.00     0.231 C 
ATOM     21  H2  UNL     1      29.614  11.072  28.963  1.00  0.00     0.168 HD
HETATM   22  O3  UNL     1      30.553   8.786  30.154  1.00  0.00    -0.272 OA
HETATM   23  C13 UNL     1      29.890   7.989  27.946  1.00  0.00     0.049 C 
HETATM   24  C14 UNL     1      30.297   8.740  26.700  1.00  0.00     0.027 C 
HETATM   25  C15 UNL     1      30.577   6.671  28.130  1.00  0.00     0.009 C 
HETATM   26  C23 UNL     1      28.430   7.579  27.832  1.00  0.00    -0.019 C 
HETATM   27  C21 UNL     1      29.694   5.994  29.128  1.00  0.00     0.007 C 
HETATM   28  C22 UNL     1      28.310   6.241  28.476  1.00  0.00     0.011 C 
HETATM   29  C24 UNL     1      28.162   7.369  26.332  1.00  0.00     0.017 C 
HETATM   30  C26 UNL     1      26.862   8.223  29.708  1.00  0.00     0.012 C 
HETATM   31  C27 UNL     1      26.458   9.368  30.560  1.00  0.00     0.015 C 
HETATM   32  C29 UNL     1      24.320   9.657  29.240  1.00  0.00     0.021 C 
BRANCH  25  33
HETATM   33  C16 UNL     1      31.990   6.702  28.467  1.00  0.00     0.015 C 
HETATM   34  C17 UNL     1      32.915   6.229  27.348  1.00  0.00     0.012 C 
BRANCH  33  35
HETATM   35  C18 UNL     1      32.339   5.836  29.636  1.00  0.00     0.275 C 
BRANCH  35  36
HETATM   36  N3  UNL     1      33.049   6.423  30.716  1.00  0.00     0.080 N 
HETATM   37  C19 UNL     1      32.261   6.140  31.926  1.00  0.00     0.309 C 
HETATM   38  C20 UNL     1      34.394   5.878  30.874  1.00  0.00     0.309 C 
ENDBRANCH  35  36
ENDBRANCH  33  35
ENDBRANCH  25  33
ENDBRANCH   8  11
ENDBRANCH   3   7
TORSDOF 6
ENDMDL
MODEL 5
REMARK VINA RESULT: -6.425621514      0.736      1.066
REMARK  6 active torsions:
REMARK  status: ('A' for Active; 'I' for Inactive)
REMARK    1  A    between atoms: C3_3  and  O1_5 
REMARK    2  A    between atoms: C3_3  and  N1_7 
REMARK       I    between atoms: N1_7  and  C5_9 
REMARK    3  A    between atoms: C5_9  and  C6_11 
REMARK    4  A    between atoms: C15_23  and  C16_24 
REMARK    5  A    between atoms: C16_24  and  C18_26 
REMARK    6  A    between atoms: C18_26  and  N3_27 
ROOT
HETATM    1  C1  UNL     1      20.336  12.250  33.966  1.00  0.00     0.017 C 
HETATM    2  C2  UNL     1      21.130  12.516  33.091  1.00  0.00    -0.057 C 
HETATM    3  C3  UNL     1      22.107  12.861  32.040  1.00  0.00     0.196 C 
HETATM    4  C4  UNL     1      23.272  13.517  32.749  1.00  0.00     0.086 C 
ENDROOT
BRANCH   3   5
HETATM    5  O1  UNL     1      21.519  13.741  31.149  1.00  0.00    -0.361 OA
ATOM      6  H1  UNL     1      22.128  13.918  30.442  1.00  0.00     0.213 HD
ENDBRANCH   3   5
BRANCH   3   7
HETATM    7  N1  UNL     1      22.515  11.692  31.309  1.00  0.00    -0.319 N 
HETATM    8  C5  UNL     1      23.395  11.803  30.216  1.00  0.00     0.226 C 
HETATM    9  O2  UNL     1      23.795  12.988  29.927  1.00  0.00    -0.273 OA
ATOM     10  H1  UNL     1      22.163  10.775  31.584  1.00  0.00     0.166 HD
BRANCH   8  11
HETATM   11  C6  UNL     1      23.865  10.636  29.404  1.00  0.00     0.093 C 
HETATM   12  C7  UNL     1      23.119   9.416  29.936  1.00  0.00     0.042 C 
HETATM   13  C8  UNL     1      24.122   8.323  29.796  1.00  0.00    -0.022 C 
HETATM   14  C9  UNL     1      25.331   8.817  29.641  1.00  0.00    -0.069 C 
HETATM   15  C10 UNL     1      26.516   7.910  29.477  1.00  0.00     0.087 C 
HETATM   16  C28 UNL     1      25.321  10.306  29.650  1.00  0.00    -0.008 C 
HETATM   17  C11 UNL     1      27.586   8.606  28.706  1.00  0.00    -0.002 C 
HETATM   18  N2  UNL     1      27.822   8.067  27.533  1.00  0.00    -0.333 N 
HETATM   19  C25 UNL     1      28.353   9.782  29.089  1.00  0.00     0.041 C 
HETATM   20  C12 UNL     1      28.862   8.726  26.760  1.00  0.00     0.231 C 
ATOM     21  H2  UNL     1      27.316   7.251  27.191  1.00  0.00     0.168 HD
HETATM   22  O3  UNL     1      28.610   9.075  25.603  1.00  0.00    -0.272 OA
HETATM   23  C13 UNL     1      30.118   8.883  27.512  1.00  0.00     0.049 C 
HETATM   24  C14 UNL     1      30.512   7.528  28.050  1.00  0.00     0.027 C 
HETATM   25  C15 UNL     1      31.219   9.619  26.814  1.00  0.00     0.009 C 
HETATM   26  C23 UNL     1      29.793   9.811  28.671  1.00  0.00    -0.019 C 
HETATM   27  C21 UNL     1      30.700  11.020  26.799  1.00  0.00     0.007 C 
HETATM   28  C22 UNL     1      30.275  11.166  28.282  1.00  0.00     0.011 C 
HETATM   29  C24 UNL     1      30.676   9.352  29.845  1.00  0.00     0.017 C 
HETATM   30  C26 UNL     1      27.560  10.996  28.659  1.00  0.00     0.012 C 
HETATM   31  C27 UNL     1      26.108  10.765  28.459  1.00  0.00     0.015 C 
HETATM   32  C29 UNL     1      25.693  10.904  30.950  1.00  0.00     0.021 C 
BRANCH  25  33
HETATM   33  C16 UNL     1      31.651   9.100  25.527  1.00  0.00     0.015 C 
HETATM   34  C17 UNL     1      33.059   8.511  25.525  1.00  0.00     0.012 C 
BRANCH  33  35
HETATM   35  C18 UNL     1      31.675  10.137  24.449  1.00  0.00     0.275 C 
BRANCH  35  36
HETATM   36  N3  UNL     1      31.008   9.849  23.228  1.00  0.00     0.080 N 
HETATM   37  C19 UNL     1      30.087  10.971  22.991  1.00  0.00     0.309 C 
HETATM   38  C20 UNL     1      31.923   9.725  22.098  1.00  0.00     0.309 C 
ENDBRANCH  35  36
ENDBRANCH  33  35
ENDBRANCH  25  33
ENDBRANCH   8  11
ENDBRANCH   3   7
TORSDOF 6
ENDMDL
