MODEL 1
REMARK VINA RESULT: -6.738083561      0.000      0.000
REMARK  2 active torsions:
REMARK  status: ('A' for Active; 'I' for Inactive)
REMARK    1  A    between atoms: C4_4  and  C5_5 
REMARK    2  A    between atoms: N1_6  and  N2_8 
ROOT
HETATM    1  C1  UNL     1     -20.766   1.128  56.743  1.00  0.00     0.068 C 
HETATM    2  C2  UNL     1     -21.934   0.876  57.629  1.00  0.00     0.007 A 
HETATM    3  C3  UNL     1     -21.865   0.916  59.021  1.00  0.00     0.041 A 
HETATM    4  C4  UNL     1     -23.114   0.640  59.541  1.00  0.00     0.024 A 
HETATM    5  C7  UNL     1     -23.922   0.435  58.441  1.00  0.00     0.128 A 
HETATM    6  N5  UNL     1     -25.302   0.122  58.540  1.00  0.00    -0.082 NA
HETATM    7  N6  UNL     1     -23.206   0.580  57.301  1.00  0.00    -0.348 N 
ATOM      8  H6  UNL     1     -23.568   0.481  56.353  1.00  0.00     0.167 HD
ENDROOT
BRANCH   4   9
HETATM    9  C5  UNL     1     -23.507   0.574  60.966  1.00  0.00     0.122 C 
HETATM   10  N1  UNL     1     -24.490   1.284  61.350  1.00  0.00    -0.309 N 
ATOM     11  H1  UNL     1     -24.983   1.876  60.681  1.00  0.00     0.186 HD
BRANCH  10  12
HETATM   12  N2  UNL     1     -24.890   1.253  62.669  1.00  0.00    -0.276 N 
HETATM   13  C6  UNL     1     -25.347   2.246  63.337  1.00  0.00     0.215 C 
HETATM   14  N3  UNL     1     -25.708   2.020  64.694  1.00  0.00    -0.065 NA
HETATM   15  N4  UNL     1     -25.481   3.510  62.741  1.00  0.00    -0.065 NA
ATOM     16  H2  UNL     1     -24.816   0.359  63.156  1.00  0.00     0.189 HD
ENDBRANCH  10  12
ENDBRANCH   4   9
TORSDOF 2
ENDMDL
MODEL 2
REMARK VINA RESULT: -6.568348962      1.500      2.139
REMARK  2 active torsions:
REMARK  status: ('A' for Active; 'I' for Inactive)
REMARK    1  A    between atoms: C4_4  and  C5_5 
REMARK    2  A    between atoms: N1_6  and  N2_8 
ROOT
HETATM    1  C1  UNL     1     -24.589  -0.319  56.685  1.00  0.00     0.068 C 
HETATM    2  C2  UNL     1     -23.787  -0.108  57.920  1.00  0.00     0.007 A 
HETATM    3  C3  UNL     1     -24.353   0.125  59.173  1.00  0.00     0.041 A 
HETATM    4  C4  UNL     1     -23.342   0.279  60.101  1.00  0.00     0.024 A 
HETATM    5  C7  UNL     1     -22.173   0.134  59.383  1.00  0.00     0.128 A 
HETATM    6  N5  UNL     1     -20.885   0.222  59.972  1.00  0.00    -0.082 NA
HETATM    7  N6  UNL     1     -22.451  -0.098  58.078  1.00  0.00    -0.348 N 
ATOM      8  H6  UNL     1     -21.762  -0.240  57.338  1.00  0.00     0.167 HD
ENDROOT
BRANCH   4   9
HETATM    9  C5  UNL     1     -23.477   0.541  61.550  1.00  0.00     0.122 C 
HETATM   10  N1  UNL     1     -24.647   0.661  62.032  1.00  0.00    -0.309 N 
ATOM     11  H1  UNL     1     -25.460   0.576  61.421  1.00  0.00     0.186 HD
BRANCH  10  12
HETATM   12  N2  UNL     1     -24.818   0.907  63.378  1.00  0.00    -0.276 N 
HETATM   13  C6  UNL     1     -25.482   1.879  63.884  1.00  0.00     0.215 C 
HETATM   14  N3  UNL     1     -25.546   1.967  65.302  1.00  0.00    -0.065 NA
HETATM   15  N4  UNL     1     -26.121   2.817  63.059  1.00  0.00    -0.065 NA
ATOM     16  H2  UNL     1     -24.377   0.256  64.029  1.00  0.00     0.189 HD
ENDBRANCH  10  12
ENDBRANCH   4   9
TORSDOF 2
ENDMDL
MODEL 3
REMARK VINA RESULT: -6.520978999      1.157      1.474
REMARK  2 active torsions:
REMARK  status: ('A' for Active; 'I' for Inactive)
REMARK    1  A    between atoms: C4_4  and  C5_5 
REMARK    2  A    between atoms: N1_6  and  N2_8 
ROOT
HETATM    1  C1  UNL     1     -20.102   1.545  57.517  1.00  0.00     0.068 C 
HETATM    2  C2  UNL     1     -21.414   1.540  58.217  1.00  0.00     0.007 A 
HETATM    3  C3  UNL     1     -21.627   2.145  59.455  1.00  0.00     0.041 A 
HETATM    4  C4  UNL     1     -22.944   1.960  59.825  1.00  0.00     0.024 A 
HETATM    5  C7  UNL     1     -23.508   1.239  58.793  1.00  0.00     0.128 A 
HETATM    6  N5  UNL     1     -24.868   0.836  58.780  1.00  0.00    -0.082 NA
HETATM    7  N6  UNL     1     -22.583   0.993  57.834  1.00  0.00    -0.348 N 
ATOM      8  H6  UNL     1     -22.745   0.479  56.968  1.00  0.00     0.167 HD
ENDROOT
BRANCH   4   9
HETATM    9  C5  UNL     1     -23.612   2.430  61.059  1.00  0.00     0.122 C 
HETATM   10  N1  UNL     1     -24.390   1.626  61.662  1.00  0.00    -0.309 N 
ATOM     11  H1  UNL     1     -24.539   0.687  61.293  1.00  0.00     0.186 HD
BRANCH  10  12
HETATM   12  N2  UNL     1     -25.033   2.022  62.816  1.00  0.00    -0.276 N 
HETATM   13  C6  UNL     1     -25.065   1.370  63.918  1.00  0.00     0.215 C 
HETATM   14  N3  UNL     1     -25.784   1.943  65.004  1.00  0.00    -0.065 NA
HETATM   15  N4  UNL     1     -24.410   0.135  64.039  1.00  0.00    -0.065 NA
ATOM     16  H2  UNL     1     -25.528   2.915  62.789  1.00  0.00     0.189 HD
ENDBRANCH  10  12
ENDBRANCH   4   9
TORSDOF 2
ENDMDL
MODEL 4
REMARK VINA RESULT: -6.361595490      2.332      6.215
REMARK  2 active torsions:
REMARK  status: ('A' for Active; 'I' for Inactive)
REMARK    1  A    between atoms: C4_4  and  C5_5 
REMARK    2  A    between atoms: N1_6  and  N2_8 
ROOT
HETATM    1  C1  UNL     1     -25.551   0.290  67.028  1.00  0.00     0.068 C 
HETATM    2  C2  UNL     1     -25.329   0.806  65.650  1.00  0.00     0.007 A 
HETATM    3  C3  UNL     1     -24.408   0.251  64.762  1.00  0.00     0.041 A 
HETATM    4  C4  UNL     1     -24.446   0.958  63.577  1.00  0.00     0.024 A 
HETATM    5  C7  UNL     1     -25.399   1.937  63.774  1.00  0.00     0.128 A 
HETATM    6  N5  UNL     1     -25.749   2.890  62.783  1.00  0.00    -0.082 NA
HETATM    7  N6  UNL     1     -25.922   1.836  65.019  1.00  0.00    -0.348 N 
ATOM      8  H6  UNL     1     -26.644   2.440  65.413  1.00  0.00     0.167 HD
ENDROOT
BRANCH   4   9
HETATM    9  C5  UNL     1     -23.642   0.723  62.357  1.00  0.00     0.122 C 
HETATM   10  N1  UNL     1     -23.095   1.725  61.798  1.00  0.00    -0.309 N 
ATOM     11  H1  UNL     1     -23.216   2.659  62.192  1.00  0.00     0.186 HD
BRANCH  10  12
HETATM   12  N2  UNL     1     -22.337   1.552  60.659  1.00  0.00    -0.276 N 
HETATM   13  C6  UNL     1     -21.975   2.478  59.851  1.00  0.00     0.215 C 
HETATM   14  N3  UNL     1     -21.193   2.103  58.724  1.00  0.00    -0.065 NA
HETATM   15  N4  UNL     1     -22.344   3.812  60.079  1.00  0.00    -0.065 NA
ATOM     16  H2  UNL     1     -22.037   0.601  60.441  1.00  0.00     0.189 HD
ENDBRANCH  10  12
ENDBRANCH   4   9
TORSDOF 2
ENDMDL
MODEL 5
REMARK VINA RESULT: -6.347943068      2.137      6.104
REMARK  2 active torsions:
REMARK  status: ('A' for Active; 'I' for Inactive)
REMARK    1  A    between atoms: C4_4  and  C5_5 
REMARK    2  A    between atoms: N1_6  and  N2_8 
ROOT
HETATM    1  C1  UNL     1     -24.963   0.075  65.631  1.00  0.00     0.068 C 
HETATM    2  C2  UNL     1     -24.876   1.049  64.510  1.00  0.00     0.007 A 
HETATM    3  C3  UNL     1     -23.833   1.064  63.585  1.00  0.00     0.041 A 
HETATM    4  C4  UNL     1     -24.049   2.085  62.680  1.00  0.00     0.024 A 
HETATM    5  C7  UNL     1     -25.231   2.673  63.081  1.00  0.00     0.128 A 
HETATM    6  N5  UNL     1     -25.816   3.777  62.408  1.00  0.00    -0.082 NA
HETATM    7  N6  UNL     1     -25.718   2.045  64.177  1.00  0.00    -0.348 N 
ATOM      8  H6  UNL     1     -26.579   2.286  64.669  1.00  0.00     0.167 HD
ENDROOT
BRANCH   4   9
HETATM    9  C5  UNL     1     -23.202   2.469  61.530  1.00  0.00     0.122 C 
HETATM   10  N1  UNL     1     -22.693   1.542  60.824  1.00  0.00    -0.309 N 
ATOM     11  H1  UNL     1     -22.875   0.566  61.057  1.00  0.00     0.186 HD
BRANCH  10  12
HETATM   12  N2  UNL     1     -21.898   1.856  59.742  1.00  0.00    -0.276 N 
HETATM   13  C6  UNL     1     -21.040   1.079  59.192  1.00  0.00     0.215 C 
HETATM   14  N3  UNL     1     -20.309   1.583  58.081  1.00  0.00    -0.065 NA
HETATM   15  N4  UNL     1     -20.838  -0.223  59.676  1.00  0.00    -0.065 NA
ATOM     16  H2  UNL     1     -22.001   2.790  59.345  1.00  0.00     0.189 HD
ENDBRANCH  10  12
ENDBRANCH   4   9
TORSDOF 2
ENDMDL
