MODEL 1
REMARK VINA RESULT: -7.332655360      0.000      0.000
REMARK  3 active torsions:
REMARK  status: ('A' for Active; 'I' for Inactive)
REMARK    1  A    between atoms: C7_7  and  N1_8 
REMARK       I    between atoms: C8_10  and  N3_12 
REMARK    2  A    between atoms: N3_12  and  N4_14 
REMARK    3  A    between atoms: N4_14  and  N5_15 
ROOT
HETATM    1  N1  UNL     1     -23.013   2.306  59.592  1.00  0.00    -0.329 N 
ATOM      2  H1  UNL     1     -21.997   2.304  59.507  1.00  0.00     0.168 HD
HETATM    3  C8  UNL     1     -23.246   3.096  60.484  1.00  0.00     0.206 C 
HETATM    4  N2  UNL     1     -22.202   3.809  61.197  1.00  0.00    -0.062 NA
HETATM    5  N3  UNL     1     -24.595   3.362  60.874  1.00  0.00    -0.258 N 
ATOM      6  H3  UNL     1     -25.330   3.531  60.188  1.00  0.00     0.187 HD
ENDROOT
BRANCH   1   7
HETATM    7  C7  UNL     1     -23.438   1.429  58.658  1.00  0.00     0.040 A 
HETATM    8  C2  UNL     1     -22.781   0.227  58.354  1.00  0.00    -0.035 A 
HETATM    9  C1  UNL     1     -21.560  -0.050  59.178  1.00  0.00     0.050 C 
HETATM   10  C3  UNL     1     -23.222  -0.638  57.407  1.00  0.00     0.009 A 
HETATM   11  C4  UNL     1     -24.364  -0.371  56.680  1.00  0.00     0.001 A 
HETATM   12  C5  UNL     1     -25.046   0.796  56.941  1.00  0.00     0.002 A 
HETATM   13  C6  UNL     1     -24.600   1.655  57.889  1.00  0.00     0.030 A 
ENDBRANCH   1   7
BRANCH   5  14
HETATM   14  N4  UNL     1     -24.852   3.378  62.251  1.00  0.00    -0.028 NA
BRANCH  14  15
HETATM   15  N5  UNL     1     -26.194   3.736  62.502  1.00  0.00    -0.329 N 
ATOM     16  H52 UNL     1     -26.576   4.666  62.328  1.00  0.00     0.174 HD
ATOM     17  H51 UNL     1     -26.714   2.941  62.876  1.00  0.00     0.174 HD
ENDBRANCH  14  15
ENDBRANCH   5  14
TORSDOF 3
ENDMDL
MODEL 2
REMARK VINA RESULT: -7.221907375      1.742      1.853
REMARK  3 active torsions:
REMARK  status: ('A' for Active; 'I' for Inactive)
REMARK    1  A    between atoms: C7_7  and  N1_8 
REMARK       I    between atoms: C8_10  and  N3_12 
REMARK    2  A    between atoms: N3_12  and  N4_14 
REMARK    3  A    between atoms: N4_14  and  N5_15 
ROOT
HETATM    1  N1  UNL     1     -23.548   0.159  60.743  1.00  0.00    -0.329 N 
ATOM      2  H1  UNL     1     -22.985  -0.636  61.045  1.00  0.00     0.168 HD
HETATM    3  C8  UNL     1     -23.693   0.831  61.743  1.00  0.00     0.206 C 
HETATM    4  N2  UNL     1     -23.136   0.458  63.030  1.00  0.00    -0.062 NA
HETATM    5  N3  UNL     1     -24.438   2.050  61.687  1.00  0.00    -0.258 N 
ATOM      6  H3  UNL     1     -24.299   2.731  60.941  1.00  0.00     0.187 HD
ENDROOT
BRANCH   1   7
HETATM    7  C7  UNL     1     -23.765  -0.055  59.427  1.00  0.00     0.040 A 
HETATM    8  C2  UNL     1     -22.779   0.074  58.439  1.00  0.00    -0.035 A 
HETATM    9  C1  UNL     1     -21.417   0.439  58.949  1.00  0.00     0.050 C 
HETATM   10  C3  UNL     1     -23.020  -0.138  57.120  1.00  0.00     0.009 A 
HETATM   11  C4  UNL     1     -24.277  -0.500  56.679  1.00  0.00     0.001 A 
HETATM   12  C5  UNL     1     -25.280  -0.639  57.611  1.00  0.00     0.002 A 
HETATM   13  C6  UNL     1     -25.032  -0.425  58.926  1.00  0.00     0.030 A 
ENDBRANCH   1   7
BRANCH   5  14
HETATM   14  N4  UNL     1     -25.370   2.256  62.712  1.00  0.00    -0.028 NA
BRANCH  14  15
HETATM   15  N5  UNL     1     -25.978   3.523  62.583  1.00  0.00    -0.329 N 
ATOM     16  H52 UNL     1     -26.871   3.771  63.011  1.00  0.00     0.174 HD
ATOM     17  H51 UNL     1     -25.403   4.142  62.010  1.00  0.00     0.174 HD
ENDBRANCH  14  15
ENDBRANCH   5  14
TORSDOF 3
ENDMDL
MODEL 3
REMARK VINA RESULT: -7.195475995      2.094      2.603
REMARK  3 active torsions:
REMARK  status: ('A' for Active; 'I' for Inactive)
REMARK    1  A    between atoms: C7_7  and  N1_8 
REMARK       I    between atoms: C8_10  and  N3_12 
REMARK    2  A    between atoms: N3_12  and  N4_14 
REMARK    3  A    between atoms: N4_14  and  N5_15 
ROOT
HETATM    1  N1  UNL     1     -24.257   0.119  60.946  1.00  0.00    -0.329 N 
ATOM      2  H1  UNL     1     -24.090  -0.850  61.218  1.00  0.00     0.168 HD
HETATM    3  C8  UNL     1     -24.391   0.714  61.996  1.00  0.00     0.206 C 
HETATM    4  N2  UNL     1     -24.317   0.058  63.289  1.00  0.00    -0.062 NA
HETATM    5  N3  UNL     1     -24.635   2.122  61.997  1.00  0.00    -0.258 N 
ATOM      6  H3  UNL     1     -24.098   2.761  61.411  1.00  0.00     0.187 HD
ENDROOT
BRANCH   1   7
HETATM    7  C7  UNL     1     -24.219   0.109  59.597  1.00  0.00     0.040 A 
HETATM    8  C2  UNL     1     -25.101  -0.629  58.793  1.00  0.00    -0.035 A 
HETATM    9  C1  UNL     1     -26.143  -1.402  59.544  1.00  0.00     0.050 C 
HETATM   10  C3  UNL     1     -25.042  -0.630  57.438  1.00  0.00     0.009 A 
HETATM   11  C4  UNL     1     -24.089   0.112  56.769  1.00  0.00     0.001 A 
HETATM   12  C5  UNL     1     -23.200   0.853  57.513  1.00  0.00     0.002 A 
HETATM   13  C6  UNL     1     -23.265   0.850  58.867  1.00  0.00     0.030 A 
ENDBRANCH   1   7
BRANCH   5  14
HETATM   14  N4  UNL     1     -25.651   2.577  62.847  1.00  0.00    -0.028 NA
BRANCH  14  15
HETATM   15  N5  UNL     1     -26.110   3.848  62.438  1.00  0.00    -0.329 N 
ATOM     16  H52 UNL     1     -27.093   4.120  62.428  1.00  0.00     0.174 HD
ATOM     17  H51 UNL     1     -25.327   4.440  62.160  1.00  0.00     0.174 HD
ENDBRANCH  14  15
ENDBRANCH   5  14
TORSDOF 3
ENDMDL
MODEL 4
REMARK VINA RESULT: -7.008806636      1.075      1.308
REMARK  3 active torsions:
REMARK  status: ('A' for Active; 'I' for Inactive)
REMARK    1  A    between atoms: C7_7  and  N1_8 
REMARK       I    between atoms: C8_10  and  N3_12 
REMARK    2  A    between atoms: N3_12  and  N4_14 
REMARK    3  A    between atoms: N4_14  and  N5_15 
ROOT
HETATM    1  N1  UNL     1     -22.933   2.341  59.090  1.00  0.00    -0.329 N 
ATOM      2  H1  UNL     1     -22.038   2.582  58.665  1.00  0.00     0.168 HD
HETATM    3  C8  UNL     1     -23.026   3.078  60.050  1.00  0.00     0.206 C 
HETATM    4  N2  UNL     1     -22.001   4.042  60.405  1.00  0.00    -0.062 NA
HETATM    5  N3  UNL     1     -24.181   3.021  60.889  1.00  0.00    -0.258 N 
ATOM      6  H3  UNL     1     -25.125   2.987  60.504  1.00  0.00     0.187 HD
ENDROOT
BRANCH   1   7
HETATM    7  C7  UNL     1     -23.431   1.359  58.309  1.00  0.00     0.040 A 
HETATM    8  C2  UNL     1     -22.651   0.558  57.461  1.00  0.00    -0.035 A 
HETATM    9  C1  UNL     1     -21.180   0.843  57.502  1.00  0.00     0.050 C 
HETATM   10  C3  UNL     1     -23.173  -0.419  56.679  1.00  0.00     0.009 A 
HETATM   11  C4  UNL     1     -24.529  -0.679  56.679  1.00  0.00     0.001 A 
HETATM   12  C5  UNL     1     -25.338   0.080  57.494  1.00  0.00     0.002 A 
HETATM   13  C6  UNL     1     -24.809   1.055  58.273  1.00  0.00     0.030 A 
ENDBRANCH   1   7
BRANCH   5  14
HETATM   14  N4  UNL     1     -23.948   3.015  62.270  1.00  0.00    -0.028 NA
BRANCH  14  15
HETATM   15  N5  UNL     1     -23.091   1.952  62.625  1.00  0.00    -0.329 N 
ATOM     16  H52 UNL     1     -22.101   1.913  62.380  1.00  0.00     0.174 HD
ATOM     17  H51 UNL     1     -23.599   1.242  63.154  1.00  0.00     0.174 HD
ENDBRANCH  14  15
ENDBRANCH   5  14
TORSDOF 3
ENDMDL
MODEL 5
REMARK VINA RESULT: -6.793971889      2.111      3.149
REMARK  3 active torsions:
REMARK  status: ('A' for Active; 'I' for Inactive)
REMARK    1  A    between atoms: C7_7  and  N1_8 
REMARK       I    between atoms: C8_10  and  N3_12 
REMARK    2  A    between atoms: N3_12  and  N4_14 
REMARK    3  A    between atoms: N4_14  and  N5_15 
ROOT
HETATM    1  N1  UNL     1     -23.261   0.383  59.775  1.00  0.00    -0.329 N 
ATOM      2  H1  UNL     1     -23.901  -0.199  59.234  1.00  0.00     0.168 HD
HETATM    3  C8  UNL     1     -23.738   0.411  60.891  1.00  0.00     0.206 C 
HETATM    4  N2  UNL     1     -24.969  -0.277  61.238  1.00  0.00    -0.062 NA
HETATM    5  N3  UNL     1     -23.088   1.141  61.932  1.00  0.00    -0.258 N 
ATOM      6  H3  UNL     1     -22.083   1.074  62.089  1.00  0.00     0.187 HD
ENDROOT
BRANCH   1   7
HETATM    7  C7  UNL     1     -22.300   0.744  58.898  1.00  0.00     0.040 A 
HETATM    8  C2  UNL     1     -22.300   0.385  57.542  1.00  0.00    -0.035 A 
HETATM    9  C1  UNL     1     -23.487  -0.419  57.102  1.00  0.00     0.050 C 
HETATM   10  C3  UNL     1     -21.320   0.753  56.679  1.00  0.00     0.009 A 
HETATM   11  C4  UNL     1     -20.251   1.515  57.104  1.00  0.00     0.001 A 
HETATM   12  C5  UNL     1     -20.204   1.894  58.427  1.00  0.00     0.002 A 
HETATM   13  C6  UNL     1     -21.187   1.523  59.283  1.00  0.00     0.030 A 
ENDBRANCH   1   7
BRANCH   5  14
HETATM   14  N4  UNL     1     -23.906   1.954  62.727  1.00  0.00    -0.028 NA
BRANCH  14  15
HETATM   15  N5  UNL     1     -24.615   2.878  61.929  1.00  0.00    -0.329 N 
ATOM     16  H52 UNL     1     -25.332   3.507  62.290  1.00  0.00     0.174 HD
ATOM     17  H51 UNL     1     -24.307   2.824  60.958  1.00  0.00     0.174 HD
ENDBRANCH  14  15
ENDBRANCH   5  14
TORSDOF 3
ENDMDL
