MODEL 1
REMARK VINA RESULT: -7.138370341      0.000      0.000
REMARK  6 active torsions:
REMARK  status: ('A' for Active; 'I' for Inactive)
REMARK    1  A    between atoms: C2_2  and  C4_4 
REMARK    2  A    between atoms: C4_4  and  N1_5 
REMARK    3  A    between atoms: N1_5  and  C5_7 
REMARK    4  A    between atoms: C6_10  and  N3_11 
REMARK    5  A    between atoms: N5_17  and  C8_19 
REMARK    6  A    between atoms: C8_19  and  C9_20 
ROOT
HETATM    1  C5  UNL     1     -17.717   3.279  13.396  1.00  0.00     0.707 A 
HETATM    2  N2  UNL     1     -17.111   3.190  14.600  1.00  0.00    -0.022 N 
ATOM      3  H2  UNL     1     -17.669   3.260  15.451  1.00  0.00     0.203 HD
HETATM    4  C6  UNL     1     -15.783   3.010  14.688  1.00  0.00     0.705 A 
HETATM    5  N4  UNL     1     -15.066   2.920  13.542  1.00  0.00    -0.022 N 
ATOM      6  H4  UNL     1     -14.057   2.784  13.605  1.00  0.00     0.203 HD
HETATM    7  C7  UNL     1     -15.629   3.003  12.328  1.00  0.00     0.707 A 
HETATM    8  N5  UNL     1     -15.002   2.924  11.213  1.00  0.00    -0.225 N 
ATOM      9  H5  UNL     1     -15.520   2.998  10.337  1.00  0.00     0.177 HD
HETATM   10  N7  UNL     1     -16.982   3.186  12.274  1.00  0.00    -0.022 N 
ATOM     11  H7  UNL     1     -17.442   3.253  11.366  1.00  0.00     0.203 HD
ENDROOT
BRANCH   8  12
HETATM   12  C8  UNL     1     -13.591   2.734  11.182  1.00  0.00     0.144 C 
BRANCH  12  13
HETATM   13  C9  UNL     1     -13.186   1.401  10.558  1.00  0.00     0.030 C 
HETATM   14  C10 UNL     1     -12.394   0.655  11.611  1.00  0.00     0.009 C 
HETATM   15  C11 UNL     1     -11.232  -0.055  10.949  1.00  0.00     0.028 C 
HETATM   16  C12 UNL     1     -11.643  -0.676   9.639  1.00  0.00     0.232 C 
HETATM   17  N6  UNL     1     -12.082   0.344   8.719  1.00  0.00    -0.075 N 
HETATM   18  C13 UNL     1     -12.282   1.621   9.361  1.00  0.00     0.238 C 
ATOM     19  H62 UNL     1     -11.440   0.427   7.931  1.00  0.00     0.277 HD
ATOM     20  H61 UNL     1     -12.920   0.049   8.219  1.00  0.00     0.277 HD
ENDBRANCH  12  13
ENDBRANCH   8  12
BRANCH   4  21
HETATM   21  N3  UNL     1     -15.191   2.924  15.828  1.00  0.00    -0.234 N 
ATOM     22  H32 UNL     1     -15.327   2.100  16.414  1.00  0.00     0.174 HD
ATOM     23  H31 UNL     1     -14.580   3.667  16.168  1.00  0.00     0.174 HD
ENDBRANCH   4  21
BRANCH   1  24
HETATM   24  N1  UNL     1     -18.993   3.451  13.327  1.00  0.00    -0.225 N 
ATOM     25  H1  UNL     1     -19.612   2.650  13.203  1.00  0.00     0.177 HD
BRANCH  24  26
HETATM   26  C4  UNL     1     -19.543   4.787  13.425  1.00  0.00     0.142 C 
BRANCH  26  27
HETATM   27  C2  UNL     1     -19.874   5.378  12.096  1.00  0.00    -0.004 C 
HETATM   28  C1  UNL     1     -21.328   5.838  12.035  1.00  0.00     0.011 C 
HETATM   29  C3  UNL     1     -19.034   6.639  11.933  1.00  0.00     0.011 C 
ENDBRANCH  26  27
ENDBRANCH  24  26
ENDBRANCH   1  24
TORSDOF 6
ENDMDL
MODEL 2
REMARK VINA RESULT: -7.095148302      3.523      5.309
REMARK  6 active torsions:
REMARK  status: ('A' for Active; 'I' for Inactive)
REMARK    1  A    between atoms: C2_2  and  C4_4 
REMARK    2  A    between atoms: C4_4  and  N1_5 
REMARK    3  A    between atoms: N1_5  and  C5_7 
REMARK    4  A    between atoms: C6_10  and  N3_11 
REMARK    5  A    between atoms: N5_17  and  C8_19 
REMARK    6  A    between atoms: C8_19  and  C9_20 
ROOT
HETATM    1  C5  UNL     1     -18.463   7.882  13.706  1.00  0.00     0.707 A 
HETATM    2  N2  UNL     1     -19.604   7.720  13.001  1.00  0.00    -0.022 N 
ATOM      3  H2  UNL     1     -20.201   8.526  12.818  1.00  0.00     0.203 HD
HETATM    4  C6  UNL     1     -19.960   6.510  12.540  1.00  0.00     0.705 A 
HETATM    5  N4  UNL     1     -19.149   5.456  12.798  1.00  0.00    -0.022 N 
ATOM      6  H4  UNL     1     -19.416   4.536  12.450  1.00  0.00     0.203 HD
HETATM    7  C7  UNL     1     -18.008   5.574  13.493  1.00  0.00     0.707 A 
HETATM    8  N5  UNL     1     -17.203   4.615  13.766  1.00  0.00    -0.225 N 
ATOM      9  H5  UNL     1     -16.356   4.805  14.302  1.00  0.00     0.177 HD
HETATM   10  N7  UNL     1     -17.675   6.819  13.947  1.00  0.00    -0.022 N 
ATOM     11  H7  UNL     1     -16.814   6.944  14.479  1.00  0.00     0.203 HD
ENDROOT
BRANCH   8  12
HETATM   12  C8  UNL     1     -17.477   3.288  13.329  1.00  0.00     0.144 C 
BRANCH  12  13
HETATM   13  C9  UNL     1     -16.226   2.548  12.861  1.00  0.00     0.030 C 
HETATM   14  C10 UNL     1     -15.239   2.600  14.008  1.00  0.00     0.009 C 
HETATM   15  C11 UNL     1     -13.847   2.827  13.457  1.00  0.00     0.028 C 
HETATM   16  C12 UNL     1     -13.613   2.016  12.208  1.00  0.00     0.232 C 
HETATM   17  N6  UNL     1     -14.535   2.412  11.175  1.00  0.00    -0.075 N 
HETATM   18  C13 UNL     1     -15.600   3.251  11.672  1.00  0.00     0.238 C 
ATOM     19  H62 UNL     1     -14.047   2.862  10.400  1.00  0.00     0.277 HD
ATOM     20  H61 UNL     1     -14.908   1.599  10.685  1.00  0.00     0.277 HD
ENDBRANCH  12  13
ENDBRANCH   8  12
BRANCH   4  21
HETATM   21  N3  UNL     1     -21.045   6.340  11.868  1.00  0.00    -0.234 N 
ATOM     22  H32 UNL     1     -21.842   5.867  12.294  1.00  0.00     0.174 HD
ATOM     23  H31 UNL     1     -21.132   6.671  10.907  1.00  0.00     0.174 HD
ENDBRANCH   4  21
BRANCH   1  24
HETATM   24  N1  UNL     1     -18.134   9.050  14.142  1.00  0.00    -0.225 N 
ATOM     25  H1  UNL     1     -18.702   9.864  13.907  1.00  0.00     0.177 HD
BRANCH  24  26
HETATM   26  C4  UNL     1     -16.953   9.200  14.966  1.00  0.00     0.142 C 
BRANCH  26  27
HETATM   27  C2  UNL     1     -16.962  10.458  15.770  1.00  0.00    -0.004 C 
HETATM   28  C1  UNL     1     -16.581  10.194  17.225  1.00  0.00     0.011 C 
HETATM   29  C3  UNL     1     -15.871  11.365  15.214  1.00  0.00     0.011 C 
ENDBRANCH  26  27
ENDBRANCH  24  26
ENDBRANCH   1  24
TORSDOF 6
ENDMDL
MODEL 3
REMARK VINA RESULT: -7.074789848      4.112      5.384
REMARK  6 active torsions:
REMARK  status: ('A' for Active; 'I' for Inactive)
REMARK    1  A    between atoms: C2_2  and  C4_4 
REMARK    2  A    between atoms: C4_4  and  N1_5 
REMARK    3  A    between atoms: N1_5  and  C5_7 
REMARK    4  A    between atoms: C6_10  and  N3_11 
REMARK    5  A    between atoms: N5_17  and  C8_19 
REMARK    6  A    between atoms: C8_19  and  C9_20 
ROOT
HETATM    1  C5  UNL     1     -16.862   8.317  14.485  1.00  0.00     0.707 A 
HETATM    2  N2  UNL     1     -18.054   8.463  13.868  1.00  0.00    -0.022 N 
ATOM      3  H2  UNL     1     -18.517   9.372  13.874  1.00  0.00     0.203 HD
HETATM    4  C6  UNL     1     -18.637   7.425  13.245  1.00  0.00     0.705 A 
HETATM    5  N4  UNL     1     -18.001   6.228  13.251  1.00  0.00    -0.022 N 
ATOM      6  H4  UNL     1     -18.441   5.438  12.780  1.00  0.00     0.203 HD
HETATM    7  C7  UNL     1     -16.817   6.042  13.851  1.00  0.00     0.707 A 
HETATM    8  N5  UNL     1     -16.171   4.936  13.889  1.00  0.00    -0.225 N 
ATOM      9  H5  UNL     1     -15.273   4.892  14.371  1.00  0.00     0.177 HD
HETATM   10  N7  UNL     1     -16.252   7.118  14.475  1.00  0.00    -0.022 N 
ATOM     11  H7  UNL     1     -15.351   7.011  14.942  1.00  0.00     0.203 HD
ENDROOT
BRANCH   8  12
HETATM   12  C8  UNL     1     -16.691   3.767  13.264  1.00  0.00     0.144 C 
BRANCH  12  13
HETATM   13  C9  UNL     1     -15.599   2.792  12.827  1.00  0.00     0.030 C 
HETATM   14  C10 UNL     1     -14.513   2.863  13.880  1.00  0.00     0.009 C 
HETATM   15  C11 UNL     1     -13.160   2.803  13.203  1.00  0.00     0.028 C 
HETATM   16  C12 UNL     1     -13.152   1.796  12.081  1.00  0.00     0.232 C 
HETATM   17  N6  UNL     1     -14.104   2.172  11.066  1.00  0.00    -0.075 N 
HETATM   18  C13 UNL     1     -14.996   3.220  11.503  1.00  0.00     0.238 C 
ATOM     19  H62 UNL     1     -13.634   2.429  10.199  1.00  0.00     0.277 HD
ATOM     20  H61 UNL     1     -14.626   1.360  10.736  1.00  0.00     0.277 HD
ENDBRANCH  12  13
ENDBRANCH   8  12
BRANCH   4  21
HETATM   21  N3  UNL     1     -19.773   7.549  12.653  1.00  0.00    -0.234 N 
ATOM     22  H32 UNL     1     -20.577   7.916  13.161  1.00  0.00     0.174 HD
ATOM     23  H31 UNL     1     -19.895   7.288  11.674  1.00  0.00     0.174 HD
ENDBRANCH   4  21
BRANCH   1  24
HETATM   24  N1  UNL     1     -16.314   9.322  15.078  1.00  0.00    -0.225 N 
ATOM     25  H1  UNL     1     -15.643   9.907  14.581  1.00  0.00     0.177 HD
BRANCH  24  26
HETATM   26  C4  UNL     1     -16.656   9.616  16.454  1.00  0.00     0.142 C 
BRANCH  26  27
HETATM   27  C2  UNL     1     -16.759  11.080  16.727  1.00  0.00    -0.004 C 
HETATM   28  C1  UNL     1     -17.790  11.747  15.819  1.00  0.00     0.011 C 
HETATM   29  C3  UNL     1     -17.288  11.246  18.146  1.00  0.00     0.011 C 
ENDBRANCH  26  27
ENDBRANCH  24  26
ENDBRANCH   1  24
TORSDOF 6
ENDMDL
MODEL 4
REMARK VINA RESULT: -7.040246518      0.778      1.060
REMARK  6 active torsions:
REMARK  status: ('A' for Active; 'I' for Inactive)
REMARK    1  A    between atoms: C2_2  and  C4_4 
REMARK    2  A    between atoms: C4_4  and  N1_5 
REMARK    3  A    between atoms: N1_5  and  C5_7 
REMARK    4  A    between atoms: C6_10  and  N3_11 
REMARK    5  A    between atoms: N5_17  and  C8_19 
REMARK    6  A    between atoms: C8_19  and  C9_20 
ROOT
HETATM    1  C5  UNL     1     -17.393   3.812  12.804  1.00  0.00     0.707 A 
HETATM    2  N2  UNL     1     -17.079   3.639  14.105  1.00  0.00    -0.022 N 
ATOM      3  H2  UNL     1     -17.738   3.933  14.826  1.00  0.00     0.203 HD
HETATM    4  C6  UNL     1     -15.909   3.083  14.461  1.00  0.00     0.705 A 
HETATM    5  N4  UNL     1     -15.052   2.702  13.484  1.00  0.00    -0.022 N 
ATOM      6  H4  UNL     1     -14.162   2.280  13.750  1.00  0.00     0.203 HD
HETATM    7  C7  UNL     1     -15.326   2.855  12.181  1.00  0.00     0.707 A 
HETATM    8  N5  UNL     1     -14.556   2.513  11.216  1.00  0.00    -0.225 N 
ATOM      9  H5  UNL     1     -14.854   2.670  10.252  1.00  0.00     0.177 HD
HETATM   10  N7  UNL     1     -16.525   3.423  11.854  1.00  0.00    -0.022 N 
ATOM     11  H7  UNL     1     -16.765   3.555  10.871  1.00  0.00     0.203 HD
ENDROOT
BRANCH   8  12
HETATM   12  C8  UNL     1     -13.289   1.915  11.471  1.00  0.00     0.144 C 
BRANCH  12  13
HETATM   13  C9  UNL     1     -12.892   0.891  10.409  1.00  0.00     0.030 C 
HETATM   14  C10 UNL     1     -11.973  -0.101  11.090  1.00  0.00     0.009 C 
HETATM   15  C11 UNL     1     -10.852  -0.472  10.143  1.00  0.00     0.028 C 
HETATM   16  C12 UNL     1     -11.361  -0.655   8.736  1.00  0.00     0.232 C 
HETATM   17  N6  UNL     1     -11.926   0.576   8.245  1.00  0.00    -0.075 N 
HETATM   18  C13 UNL     1     -12.116   1.555   9.288  1.00  0.00     0.238 C 
ATOM     19  H62 UNL     1     -11.366   0.958   7.482  1.00  0.00     0.277 HD
ATOM     20  H61 UNL     1     -12.796   0.405   7.740  1.00  0.00     0.277 HD
ENDBRANCH  12  13
ENDBRANCH   8  12
BRANCH   4  21
HETATM   21  N3  UNL     1     -15.595   2.913  15.698  1.00  0.00    -0.234 N 
ATOM     22  H32 UNL     1     -16.264   3.143  16.432  1.00  0.00     0.174 HD
ATOM     23  H31 UNL     1     -14.683   2.546  15.970  1.00  0.00     0.174 HD
ENDBRANCH   4  21
BRANCH   1  24
HETATM   24  N1  UNL     1     -18.521   4.346  12.477  1.00  0.00    -0.225 N 
ATOM     25  H1  UNL     1     -18.667   4.696  11.530  1.00  0.00     0.177 HD
BRANCH  24  26
HETATM   26  C4  UNL     1     -19.578   4.448  13.461  1.00  0.00     0.142 C 
BRANCH  26  27
HETATM   27  C2  UNL     1     -20.323   5.739  13.382  1.00  0.00    -0.004 C 
HETATM   28  C1  UNL     1     -19.370   6.929  13.296  1.00  0.00     0.011 C 
HETATM   29  C3  UNL     1     -21.105   5.738  12.075  1.00  0.00     0.011 C 
ENDBRANCH  26  27
ENDBRANCH  24  26
ENDBRANCH   1  24
TORSDOF 6
ENDMDL
MODEL 5
REMARK VINA RESULT: -7.027160899      4.592      8.805
REMARK  6 active torsions:
REMARK  status: ('A' for Active; 'I' for Inactive)
REMARK    1  A    between atoms: C2_2  and  C4_4 
REMARK    2  A    between atoms: C4_4  and  N1_5 
REMARK    3  A    between atoms: N1_5  and  C5_7 
REMARK    4  A    between atoms: C6_10  and  N3_11 
REMARK    5  A    between atoms: N5_17  and  C8_19 
REMARK    6  A    between atoms: C8_19  and  C9_20 
ROOT
HETATM    1  C5  UNL     1     -17.694   5.110  13.347  1.00  0.00     0.707 A 
HETATM    2  N2  UNL     1     -18.728   5.575  12.614  1.00  0.00    -0.022 N 
ATOM      3  H2  UNL     1     -19.308   4.921  12.090  1.00  0.00     0.203 HD
HETATM    4  C6  UNL     1     -19.001   6.890  12.568  1.00  0.00     0.705 A 
HETATM    5  N4  UNL     1     -18.215   7.738  13.275  1.00  0.00    -0.022 N 
ATOM      6  H4  UNL     1     -18.419   8.736  13.242  1.00  0.00     0.203 HD
HETATM    7  C7  UNL     1     -17.180   7.317  14.015  1.00  0.00     0.707 A 
HETATM    8  N5  UNL     1     -16.405   8.071  14.702  1.00  0.00    -0.225 N 
ATOM      9  H5  UNL     1     -15.641   7.656  15.237  1.00  0.00     0.177 HD
HETATM   10  N7  UNL     1     -16.930   5.974  14.040  1.00  0.00    -0.022 N 
ATOM     11  H7  UNL     1     -16.150   5.620  14.593  1.00  0.00     0.203 HD
ENDROOT
BRANCH   8  12
HETATM   12  C8  UNL     1     -16.597   9.482  14.730  1.00  0.00     0.144 C 
BRANCH  12  13
HETATM   13  C9  UNL     1     -17.229   9.969  16.032  1.00  0.00     0.030 C 
HETATM   14  C10 UNL     1     -17.692  11.388  15.782  1.00  0.00     0.009 C 
HETATM   15  C11 UNL     1     -17.411  12.227  17.011  1.00  0.00     0.028 C 
HETATM   16  C12 UNL     1     -17.729  11.470  18.275  1.00  0.00     0.232 C 
HETATM   17  N6  UNL     1     -16.899  10.297  18.378  1.00  0.00    -0.075 N 
HETATM   18  C13 UNL     1     -16.203  10.000  17.148  1.00  0.00     0.238 C 
ATOM     19  H62 UNL     1     -16.246  10.377  19.157  1.00  0.00     0.277 HD
ATOM     20  H61 UNL     1     -17.439   9.493  18.696  1.00  0.00     0.277 HD
ENDBRANCH  12  13
ENDBRANCH   8  12
BRANCH   4  21
HETATM   21  N3  UNL     1     -19.983   7.348  11.873  1.00  0.00    -0.234 N 
ATOM     22  H32 UNL     1     -20.903   7.460  12.299  1.00  0.00     0.174 HD
ATOM     23  H31 UNL     1     -19.866   7.608  10.894  1.00  0.00     0.174 HD
ENDBRANCH   4  21
BRANCH   1  24
HETATM   24  N1  UNL     1     -17.444   3.846  13.382  1.00  0.00    -0.225 N 
ATOM     25  H1  UNL     1     -18.113   3.203  13.806  1.00  0.00     0.177 HD
BRANCH  24  26
HETATM   26  C4  UNL     1     -16.209   3.344  12.817  1.00  0.00     0.142 C 
BRANCH  26  27
HETATM   27  C2  UNL     1     -15.474   2.434  13.744  1.00  0.00    -0.004 C 
HETATM   28  C1  UNL     1     -14.589   3.217  14.710  1.00  0.00     0.011 C 
HETATM   29  C3  UNL     1     -16.509   1.727  14.611  1.00  0.00     0.011 C 
ENDBRANCH  26  27
ENDBRANCH  24  26
ENDBRANCH   1  24
TORSDOF 6
ENDMDL
