MODEL 1
REMARK VINA RESULT: -6.889664456      0.000      0.000
REMARK  5 active torsions:
REMARK  status: ('A' for Active; 'I' for Inactive)
REMARK    1  A    between atoms: C4_4  and  O1_5 
REMARK    2  A    between atoms: O1_5  and  C5_6 
REMARK       I    between atoms: C5_6  and  N1_8 
REMARK    3  A    between atoms: N1_8  and  N2_10 
REMARK    4  A    between atoms: C9_16  and  C11_18 
REMARK    5  A    between atoms: C11_18  and  N3_19 
REMARK       I    between atoms: N3_19  and  C12_21 
ROOT
HETATM    1  C1  UNL     1     -15.378   3.018  15.565  1.00  0.00     0.010 C 
HETATM    2  C2  UNL     1     -14.398   3.373  14.486  1.00  0.00    -0.011 C 
HETATM    3  C3  UNL     1     -14.004   2.176  13.678  1.00  0.00     0.037 C 
HETATM    4  C4  UNL     1     -13.256   2.475  12.426  1.00  0.00     0.138 C 
HETATM    5  C6  UNL     1     -13.413   3.869  11.922  1.00  0.00     0.016 C 
HETATM    6  C7  UNL     1     -13.359   4.926  13.004  1.00  0.00     0.013 C 
HETATM    7  C8  UNL     1     -14.684   4.594  13.724  1.00  0.00    -0.001 C 
HETATM    8  C9  UNL     1     -15.607   4.595  12.574  1.00  0.00    -0.024 C 
HETATM    9  C10 UNL     1     -15.866   6.077  12.277  1.00  0.00     0.017 C 
HETATM   10  C13 UNL     1     -14.836   4.004  11.422  1.00  0.00     0.018 C 
ENDROOT
BRANCH   8  11
HETATM   11  C11 UNL     1     -16.886   3.899  12.710  1.00  0.00     0.132 C 
BRANCH  11  12
HETATM   12  N3  UNL     1     -17.917   4.694  13.308  1.00  0.00    -0.364 N 
HETATM   13  C12 UNL     1     -19.299   4.724  13.035  1.00  0.00     0.181 C 
HETATM   14  N4  UNL     1     -20.234   4.300  13.811  1.00  0.00    -0.374 N 
HETATM   15  N5  UNL     1     -19.762   5.292  11.794  1.00  0.00    -0.064 NA
ATOM     16  H42 UNL     1     -19.906   3.898  14.690  1.00  0.00     0.158 HD
ATOM     17  H41 UNL     1     -21.234   4.322  13.613  1.00  0.00     0.158 HD
ATOM     18  H3  UNL     1     -17.605   5.333  14.040  1.00  0.00     0.162 HD
ENDBRANCH  11  12
ENDBRANCH   8  11
BRANCH   4  19
HETATM   19  O1  UNL     1     -13.778   1.609  11.417  1.00  0.00    -0.297 OA
BRANCH  19  20
HETATM   20  C5  UNL     1     -13.006   0.664  10.755  1.00  0.00     0.379 C 
HETATM   21  O2  UNL     1     -13.113   0.576   9.508  1.00  0.00    -0.237 OA
HETATM   22  N1  UNL     1     -12.114  -0.190  11.449  1.00  0.00    -0.252 N 
ATOM     23  H1  UNL     1     -12.029  -0.117  12.463  1.00  0.00     0.191 HD
BRANCH  22  24
HETATM   24  N2  UNL     1     -11.360  -1.121  10.762  1.00  0.00    -0.341 N 
ATOM     25  H22 UNL     1     -11.661  -2.096  10.763  1.00  0.00     0.177 HD
ATOM     26  H21 UNL     1     -10.517  -0.836  10.262  1.00  0.00     0.177 HD
ENDBRANCH  22  24
ENDBRANCH  19  20
ENDBRANCH   4  19
TORSDOF 5
ENDMDL
MODEL 2
REMARK VINA RESULT: -6.752619686      3.487      6.638
REMARK  5 active torsions:
REMARK  status: ('A' for Active; 'I' for Inactive)
REMARK    1  A    between atoms: C4_4  and  O1_5 
REMARK    2  A    between atoms: O1_5  and  C5_6 
REMARK       I    between atoms: C5_6  and  N1_8 
REMARK    3  A    between atoms: N1_8  and  N2_10 
REMARK    4  A    between atoms: C9_16  and  C11_18 
REMARK    5  A    between atoms: C11_18  and  N3_19 
REMARK       I    between atoms: N3_19  and  C12_21 
ROOT
HETATM    1  C1  UNL     1     -16.576   1.750  14.535  1.00  0.00     0.010 C 
HETATM    2  C2  UNL     1     -16.507   2.734  13.403  1.00  0.00    -0.011 C 
HETATM    3  C3  UNL     1     -17.071   4.065  13.789  1.00  0.00     0.037 C 
HETATM    4  C4  UNL     1     -16.796   5.171  12.830  1.00  0.00     0.138 C 
HETATM    5  C6  UNL     1     -15.649   4.930  11.910  1.00  0.00     0.016 C 
HETATM    6  C7  UNL     1     -15.594   3.525  11.347  1.00  0.00     0.013 C 
HETATM    7  C8  UNL     1     -15.250   2.765  12.646  1.00  0.00    -0.001 C 
HETATM    8  C9  UNL     1     -14.087   3.549  13.101  1.00  0.00    -0.024 C 
HETATM    9  C10 UNL     1     -12.921   3.067  12.231  1.00  0.00     0.017 C 
HETATM   10  C13 UNL     1     -14.388   4.982  12.746  1.00  0.00     0.018 C 
ENDROOT
BRANCH   8  11
HETATM   11  C11 UNL     1     -13.704   3.468  14.510  1.00  0.00     0.132 C 
BRANCH  11  12
HETATM   12  N3  UNL     1     -12.570   2.626  14.754  1.00  0.00    -0.364 N 
HETATM   13  C12 UNL     1     -11.557   2.746  15.727  1.00  0.00     0.181 C 
HETATM   14  N4  UNL     1     -11.388   1.972  16.742  1.00  0.00    -0.374 N 
HETATM   15  N5  UNL     1     -10.584   3.801  15.608  1.00  0.00    -0.064 NA
ATOM     16  H42 UNL     1     -12.077   1.225  16.826  1.00  0.00     0.158 HD
ATOM     17  H41 UNL     1     -10.654   2.059  17.446  1.00  0.00     0.158 HD
ATOM     18  H3  UNL     1     -12.483   1.822  14.133  1.00  0.00     0.162 HD
ENDBRANCH  11  12
ENDBRANCH   8  11
BRANCH   4  19
HETATM   19  O1  UNL     1     -16.466   6.321  13.611  1.00  0.00    -0.297 OA
BRANCH  19  20
HETATM   20  C5  UNL     1     -17.407   7.258  14.017  1.00  0.00     0.379 C 
HETATM   21  O2  UNL     1     -17.253   7.810  15.133  1.00  0.00    -0.237 OA
HETATM   22  N1  UNL     1     -18.520   7.595  13.209  1.00  0.00    -0.252 N 
ATOM     23  H1  UNL     1     -18.643   7.144  12.302  1.00  0.00     0.191 HD
BRANCH  22  24
HETATM   24  N2  UNL     1     -19.440   8.530  13.641  1.00  0.00    -0.341 N 
ATOM     25  H22 UNL     1     -19.168   9.186  14.374  1.00  0.00     0.177 HD
ATOM     26  H21 UNL     1     -20.374   8.563  13.233  1.00  0.00     0.177 HD
ENDBRANCH  22  24
ENDBRANCH  19  20
ENDBRANCH   4  19
TORSDOF 5
ENDMDL
MODEL 3
REMARK VINA RESULT: -6.747408513      3.616      4.904
REMARK  5 active torsions:
REMARK  status: ('A' for Active; 'I' for Inactive)
REMARK    1  A    between atoms: C4_4  and  O1_5 
REMARK    2  A    between atoms: O1_5  and  C5_6 
REMARK       I    between atoms: C5_6  and  N1_8 
REMARK    3  A    between atoms: N1_8  and  N2_10 
REMARK    4  A    between atoms: C9_16  and  C11_18 
REMARK    5  A    between atoms: C11_18  and  N3_19 
REMARK       I    between atoms: N3_19  and  C12_21 
ROOT
HETATM    1  C1  UNL     1     -16.116   2.425  10.775  1.00  0.00     0.010 C 
HETATM    2  C2  UNL     1     -15.215   3.043  11.804  1.00  0.00    -0.011 C 
HETATM    3  C3  UNL     1     -15.253   4.538  11.748  1.00  0.00     0.037 C 
HETATM    4  C4  UNL     1     -14.611   5.231  12.899  1.00  0.00     0.138 C 
HETATM    5  C6  UNL     1     -14.454   4.396  14.124  1.00  0.00     0.016 C 
HETATM    6  C7  UNL     1     -13.992   2.980  13.850  1.00  0.00     0.013 C 
HETATM    7  C8  UNL     1     -15.259   2.451  13.146  1.00  0.00    -0.001 C 
HETATM    8  C9  UNL     1     -16.283   2.839  14.135  1.00  0.00    -0.024 C 
HETATM    9  C10 UNL     1     -16.175   1.790  15.247  1.00  0.00     0.017 C 
HETATM   10  C13 UNL     1     -15.841   4.169  14.688  1.00  0.00     0.018 C 
ENDROOT
BRANCH   8  11
HETATM   11  C11 UNL     1     -17.673   2.934  13.693  1.00  0.00     0.132 C 
BRANCH  11  12
HETATM   12  N3  UNL     1     -18.242   4.240  13.847  1.00  0.00    -0.364 N 
HETATM   13  C12 UNL     1     -19.404   4.787  13.266  1.00  0.00     0.181 C 
HETATM   14  N4  UNL     1     -20.496   5.073  13.884  1.00  0.00    -0.374 N 
HETATM   15  N5  UNL     1     -19.414   5.091  11.858  1.00  0.00    -0.064 NA
ATOM     16  H42 UNL     1     -20.489   4.857  14.881  1.00  0.00     0.158 HD
ATOM     17  H41 UNL     1     -21.337   5.469  13.463  1.00  0.00     0.158 HD
ATOM     18  H3  UNL     1     -17.731   4.867  14.469  1.00  0.00     0.162 HD
ENDBRANCH  11  12
ENDBRANCH   8  11
BRANCH   4  19
HETATM   19  O1  UNL     1     -15.462   6.324  13.249  1.00  0.00    -0.297 OA
BRANCH  19  20
HETATM   20  C5  UNL     1     -15.058   7.651  13.185  1.00  0.00     0.379 C 
HETATM   21  O2  UNL     1     -15.908   8.543  13.416  1.00  0.00    -0.237 OA
HETATM   22  N1  UNL     1     -13.725   8.010  12.867  1.00  0.00    -0.252 N 
ATOM     23  H1  UNL     1     -13.036   7.282  12.680  1.00  0.00     0.191 HD
BRANCH  22  24
HETATM   24  N2  UNL     1     -13.354   9.339  12.810  1.00  0.00    -0.341 N 
ATOM     25  H22 UNL     1     -14.079  10.048  12.694  1.00  0.00     0.177 HD
ATOM     26  H21 UNL     1     -12.372   9.605  12.883  1.00  0.00     0.177 HD
ENDBRANCH  22  24
ENDBRANCH  19  20
ENDBRANCH   4  19
TORSDOF 5
ENDMDL
MODEL 4
REMARK VINA RESULT: -6.594794202      2.706      6.356
REMARK  5 active torsions:
REMARK  status: ('A' for Active; 'I' for Inactive)
REMARK    1  A    between atoms: C4_4  and  O1_5 
REMARK    2  A    between atoms: O1_5  and  C5_6 
REMARK       I    between atoms: C5_6  and  N1_8 
REMARK    3  A    between atoms: N1_8  and  N2_10 
REMARK    4  A    between atoms: C9_16  and  C11_18 
REMARK    5  A    between atoms: C11_18  and  N3_19 
REMARK       I    between atoms: N3_19  and  C12_21 
ROOT
HETATM    1  C1  UNL     1     -14.303   6.436  12.845  1.00  0.00     0.010 C 
HETATM    2  C2  UNL     1     -15.188   5.458  13.561  1.00  0.00    -0.011 C 
HETATM    3  C3  UNL     1     -16.624   5.621  13.172  1.00  0.00     0.037 C 
HETATM    4  C4  UNL     1     -17.529   4.526  13.618  1.00  0.00     0.138 C 
HETATM    5  C6  UNL     1     -16.843   3.245  13.952  1.00  0.00     0.016 C 
HETATM    6  C7  UNL     1     -15.562   3.418  14.739  1.00  0.00     0.013 C 
HETATM    7  C8  UNL     1     -14.699   4.076  13.642  1.00  0.00    -0.001 C 
HETATM    8  C9  UNL     1     -14.903   3.113  12.543  1.00  0.00    -0.024 C 
HETATM    9  C10 UNL     1     -13.991   1.929  12.882  1.00  0.00     0.017 C 
HETATM   10  C13 UNL     1     -16.336   2.659  12.651  1.00  0.00     0.018 C 
ENDROOT
BRANCH   8  11
HETATM   11  C11 UNL     1     -14.635   3.555  11.175  1.00  0.00     0.132 C 
BRANCH  11  12
HETATM   12  N3  UNL     1     -13.313   3.247  10.716  1.00  0.00    -0.364 N 
HETATM   13  C12 UNL     1     -12.904   2.531   9.573  1.00  0.00     0.181 C 
HETATM   14  N4  UNL     1     -12.323   3.028   8.537  1.00  0.00    -0.374 N 
HETATM   15  N5  UNL     1     -13.113   1.107   9.519  1.00  0.00    -0.064 NA
ATOM     16  H42 UNL     1     -12.176   4.036   8.575  1.00  0.00     0.158 HD
ATOM     17  H41 UNL     1     -12.027   2.509   7.710  1.00  0.00     0.158 HD
ATOM     18  H3  UNL     1     -12.556   3.598  11.303  1.00  0.00     0.162 HD
ENDBRANCH  11  12
ENDBRANCH   8  11
BRANCH   4  19
HETATM   19  O1  UNL     1     -18.411   4.251  12.528  1.00  0.00    -0.297 OA
BRANCH  19  20
HETATM   20  C5  UNL     1     -19.565   4.984  12.284  1.00  0.00     0.379 C 
HETATM   21  O2  UNL     1     -19.743   5.447  11.132  1.00  0.00    -0.237 OA
HETATM   22  N1  UNL     1     -20.530   5.216  13.295  1.00  0.00    -0.252 N 
ATOM     23  H1  UNL     1     -20.383   4.838  14.231  1.00  0.00     0.191 HD
BRANCH  22  24
HETATM   24  N2  UNL     1     -21.667   5.950  13.021  1.00  0.00    -0.341 N 
ATOM     25  H22 UNL     1     -22.345   5.578  12.355  1.00  0.00     0.177 HD
ATOM     26  H21 UNL     1     -21.825   6.849  13.478  1.00  0.00     0.177 HD
ENDBRANCH  22  24
ENDBRANCH  19  20
ENDBRANCH   4  19
TORSDOF 5
ENDMDL
MODEL 5
REMARK VINA RESULT: -6.592342117      4.106      6.260
REMARK  5 active torsions:
REMARK  status: ('A' for Active; 'I' for Inactive)
REMARK    1  A    between atoms: C4_4  and  O1_5 
REMARK    2  A    between atoms: O1_5  and  C5_6 
REMARK       I    between atoms: C5_6  and  N1_8 
REMARK    3  A    between atoms: N1_8  and  N2_10 
REMARK    4  A    between atoms: C9_16  and  C11_18 
REMARK    5  A    between atoms: C11_18  and  N3_19 
REMARK       I    between atoms: N3_19  and  C12_21 
ROOT
HETATM    1  C1  UNL     1     -10.254  -0.213  11.353  1.00  0.00     0.010 C 
HETATM    2  C2  UNL     1      -9.689   0.381  10.095  1.00  0.00    -0.011 C 
HETATM    3  C3  UNL     1     -10.646   0.269   8.950  1.00  0.00     0.037 C 
HETATM    4  C4  UNL     1     -10.288   1.067   7.745  1.00  0.00     0.138 C 
HETATM    5  C6  UNL     1      -9.338   2.188   7.998  1.00  0.00     0.016 C 
HETATM    6  C7  UNL     1      -8.199   1.834   8.930  1.00  0.00     0.013 C 
HETATM    7  C8  UNL     1      -9.006   1.673  10.236  1.00  0.00    -0.001 C 
HETATM    8  C9  UNL     1      -9.748   2.948  10.238  1.00  0.00    -0.024 C 
HETATM    9  C10 UNL     1      -8.733   3.993  10.716  1.00  0.00     0.017 C 
HETATM   10  C13 UNL     1     -10.086   3.233   8.798  1.00  0.00     0.018 C 
ENDROOT
BRANCH   8  11
HETATM   11  C11 UNL     1     -10.960   3.045  11.051  1.00  0.00     0.132 C 
BRANCH  11  12
HETATM   12  N3  UNL     1     -12.171   3.051  10.285  1.00  0.00    -0.364 N 
HETATM   13  C12 UNL     1     -13.435   2.515  10.602  1.00  0.00     0.181 C 
HETATM   14  N4  UNL     1     -14.499   3.190  10.867  1.00  0.00    -0.374 N 
HETATM   15  N5  UNL     1     -13.611   1.085  10.625  1.00  0.00    -0.064 NA
ATOM     16  H42 UNL     1     -14.374   4.202  10.851  1.00  0.00     0.158 HD
ATOM     17  H41 UNL     1     -15.414   2.802  11.096  1.00  0.00     0.158 HD
ATOM     18  H3  UNL     1     -12.109   3.512   9.377  1.00  0.00     0.162 HD
ENDBRANCH  11  12
ENDBRANCH   8  11
BRANCH   4  19
HETATM   19  O1  UNL     1     -11.499   1.652   7.263  1.00  0.00    -0.297 OA
BRANCH  19  20
HETATM   20  C5  UNL     1     -12.425   0.955   6.498  1.00  0.00     0.379 C 
HETATM   21  O2  UNL     1     -13.204   1.610   5.765  1.00  0.00    -0.237 OA
HETATM   22  N1  UNL     1     -12.505  -0.459   6.529  1.00  0.00    -0.252 N 
ATOM     23  H1  UNL     1     -11.871  -0.989   7.126  1.00  0.00     0.191 HD
BRANCH  22  24
HETATM   24  N2  UNL     1     -13.439  -1.123   5.757  1.00  0.00    -0.341 N 
ATOM     25  H22 UNL     1     -14.368  -0.717   5.650  1.00  0.00     0.177 HD
ATOM     26  H21 UNL     1     -13.199  -2.005   5.302  1.00  0.00     0.177 HD
ENDBRANCH  22  24
ENDBRANCH  19  20
ENDBRANCH   4  19
TORSDOF 5
ENDMDL
