MODEL 1
REMARK VINA RESULT: -6.805902154      0.000      0.000
REMARK  4 active torsions:
REMARK  status: ('A' for Active; 'I' for Inactive)
REMARK    1  A    between atoms: C2_2  and  N1_3 
REMARK    2  A    between atoms: N1_3  and  C3_5 
REMARK    3  A    between atoms: C10_12  and  C11_13 
REMARK    4  A    between atoms: N3_15  and  N4_17 
ROOT
HETATM    1  C3  UNL     1     -13.349   3.474  13.229  1.00  0.00     0.027 C 
HETATM    2  C4  UNL     1     -13.997   2.388  12.386  1.00  0.00     0.035 C 
HETATM    3  C5  UNL     1     -15.493   2.392  12.634  1.00  0.00    -0.011 C 
HETATM    4  C6  UNL     1     -15.847   2.161  14.071  1.00  0.00     0.009 C 
HETATM    5  C7  UNL     1     -15.092   3.158  14.895  1.00  0.00    -0.011 C 
HETATM    6  C8  UNL     1     -13.585   3.083  14.667  1.00  0.00     0.035 C 
HETATM    7  C9  UNL     1     -15.584   4.532  14.599  1.00  0.00     0.021 C 
HETATM    8  C10 UNL     1     -15.478   4.827  13.119  1.00  0.00     0.020 C 
HETATM    9  C13 UNL     1     -15.985   3.771  12.210  1.00  0.00     0.021 C 
HETATM   10  C14 UNL     1     -13.938   4.821  12.884  1.00  0.00     0.047 C 
ENDROOT
BRANCH   8  11
HETATM   11  C11 UNL     1     -15.944   6.163  12.780  1.00  0.00     0.116 C 
HETATM   12  N2  UNL     1     -15.061   7.117  12.205  1.00  0.00    -0.085 NA
HETATM   13  N3  UNL     1     -17.130   6.562  12.999  1.00  0.00    -0.288 N 
ATOM     14  H3  UNL     1     -17.369   7.515  12.726  1.00  0.00     0.188 HD
BRANCH  13  15
HETATM   15  N4  UNL     1     -18.096   5.808  13.571  1.00  0.00    -0.275 N 
HETATM   16  C12 UNL     1     -19.094   5.214  13.069  1.00  0.00     0.215 C 
HETATM   17  N5  UNL     1     -19.328   5.292  11.678  1.00  0.00    -0.065 NA
HETATM   18  N6  UNL     1     -19.960   4.481  13.916  1.00  0.00    -0.065 NA
ATOM     19  H4  UNL     1     -18.003   5.699  14.581  1.00  0.00     0.189 HD
ENDBRANCH  13  15
ENDBRANCH   8  11
BRANCH   1  20
HETATM   20  N1  UNL     1     -11.968   3.533  12.867  1.00  0.00    -0.413 N 
ATOM     21  H1  UNL     1     -11.657   3.945  11.987  1.00  0.00     0.154 HD
BRANCH  20  22
HETATM   22  C2  UNL     1     -11.052   2.984  13.806  1.00  0.00     0.110 C 
HETATM   23  C1  UNL     1     -10.422   1.726  13.245  1.00  0.00     0.026 C 
ENDBRANCH  20  22
ENDBRANCH   1  20
TORSDOF 4
ENDMDL
MODEL 2
REMARK VINA RESULT: -6.756303510      2.980      5.316
REMARK  4 active torsions:
REMARK  status: ('A' for Active; 'I' for Inactive)
REMARK    1  A    between atoms: C2_2  and  N1_3 
REMARK    2  A    between atoms: N1_3  and  C3_5 
REMARK    3  A    between atoms: C10_12  and  C11_13 
REMARK    4  A    between atoms: N3_15  and  N4_17 
ROOT
HETATM    1  C3  UNL     1     -18.731   4.839  13.507  1.00  0.00     0.027 C 
HETATM    2  C4  UNL     1     -18.270   4.707  12.064  1.00  0.00     0.035 C 
HETATM    3  C5  UNL     1     -18.557   6.002  11.329  1.00  0.00    -0.011 C 
HETATM    4  C6  UNL     1     -20.010   6.369  11.339  1.00  0.00     0.009 C 
HETATM    5  C7  UNL     1     -20.475   6.362  12.762  1.00  0.00    -0.011 C 
HETATM    6  C8  UNL     1     -20.228   5.023  13.451  1.00  0.00     0.035 C 
HETATM    7  C9  UNL     1     -19.803   7.455  13.517  1.00  0.00     0.021 C 
HETATM    8  C10 UNL     1     -18.299   7.325  13.414  1.00  0.00     0.020 C 
HETATM    9  C13 UNL     1     -17.762   7.082  12.054  1.00  0.00     0.021 C 
HETATM   10  C14 UNL     1     -18.023   5.994  14.175  1.00  0.00     0.047 C 
ENDROOT
BRANCH   8  11
HETATM   11  C11 UNL     1     -17.597   8.372  14.141  1.00  0.00     0.116 C 
HETATM   12  N2  UNL     1     -18.302   9.487  14.673  1.00  0.00    -0.085 NA
HETATM   13  N3  UNL     1     -16.339   8.374  14.316  1.00  0.00    -0.288 N 
ATOM     14  H3  UNL     1     -15.932   9.148  14.841  1.00  0.00     0.188 HD
BRANCH  13  15
HETATM   15  N4  UNL     1     -15.503   7.418  13.851  1.00  0.00    -0.275 N 
HETATM   16  C12 UNL     1     -14.561   7.474  13.009  1.00  0.00     0.215 C 
HETATM   17  N5  UNL     1     -14.250   8.704  12.388  1.00  0.00    -0.065 NA
HETATM   18  N6  UNL     1     -13.834   6.297  12.704  1.00  0.00    -0.065 NA
ATOM     19  H4  UNL     1     -15.658   6.491  14.250  1.00  0.00     0.189 HD
ENDBRANCH  13  15
ENDBRANCH   8  11
BRANCH   1  20
HETATM   20  N1  UNL     1     -18.320   3.659  14.200  1.00  0.00    -0.413 N 
ATOM     21  H1  UNL     1     -18.581   3.483  15.170  1.00  0.00     0.154 HD
BRANCH  20  22
HETATM   22  C2  UNL     1     -17.524   2.745  13.456  1.00  0.00     0.110 C 
HETATM   23  C1  UNL     1     -16.500   2.091  14.361  1.00  0.00     0.026 C 
ENDBRANCH  20  22
ENDBRANCH   1  20
TORSDOF 4
ENDMDL
MODEL 3
REMARK VINA RESULT: -6.739419829      1.009      1.016
REMARK  4 active torsions:
REMARK  status: ('A' for Active; 'I' for Inactive)
REMARK    1  A    between atoms: C2_2  and  N1_3 
REMARK    2  A    between atoms: N1_3  and  C3_5 
REMARK    3  A    between atoms: C10_12  and  C11_13 
REMARK    4  A    between atoms: N3_15  and  N4_17 
ROOT
HETATM    1  C3  UNL     1     -13.344   3.540  12.955  1.00  0.00     0.027 C 
HETATM    2  C4  UNL     1     -14.052   2.468  12.143  1.00  0.00     0.035 C 
HETATM    3  C5  UNL     1     -15.524   2.459  12.508  1.00  0.00    -0.011 C 
HETATM    4  C6  UNL     1     -15.763   2.197  13.963  1.00  0.00     0.009 C 
HETATM    5  C7  UNL     1     -14.949   3.181  14.746  1.00  0.00    -0.011 C 
HETATM    6  C8  UNL     1     -13.465   3.119  14.399  1.00  0.00     0.035 C 
HETATM    7  C9  UNL     1     -15.468   4.558  14.519  1.00  0.00     0.021 C 
HETATM    8  C10 UNL     1     -15.480   4.884  13.041  1.00  0.00     0.020 C 
HETATM    9  C13 UNL     1     -16.053   3.844  12.153  1.00  0.00     0.021 C 
HETATM   10  C14 UNL     1     -13.963   4.891  12.686  1.00  0.00     0.047 C 
ENDROOT
BRANCH   8  11
HETATM   11  C11 UNL     1     -15.977   6.224  12.768  1.00  0.00     0.116 C 
HETATM   12  N2  UNL     1     -15.120   7.220  12.222  1.00  0.00    -0.085 NA
HETATM   13  N3  UNL     1     -17.166   6.590  13.022  1.00  0.00    -0.288 N 
ATOM     14  H3  UNL     1     -17.428   7.549  12.794  1.00  0.00     0.188 HD
BRANCH  13  15
HETATM   15  N4  UNL     1     -18.109   5.793  13.574  1.00  0.00    -0.275 N 
HETATM   16  C12 UNL     1     -19.115   5.220  13.066  1.00  0.00     0.215 C 
HETATM   17  N5  UNL     1     -19.390   5.379  11.689  1.00  0.00    -0.065 NA
HETATM   18  N6  UNL     1     -19.951   4.428  13.891  1.00  0.00    -0.065 NA
ATOM     19  H4  UNL     1     -17.986   5.624  14.573  1.00  0.00     0.189 HD
ENDBRANCH  13  15
ENDBRANCH   8  11
BRANCH   1  20
HETATM   20  N1  UNL     1     -11.996   3.615  12.486  1.00  0.00    -0.413 N 
ATOM     21  H1  UNL     1     -11.288   4.175  12.961  1.00  0.00     0.154 HD
BRANCH  20  22
HETATM   22  C2  UNL     1     -11.699   2.860  11.318  1.00  0.00     0.110 C 
HETATM   23  C1  UNL     1     -11.078   3.755  10.265  1.00  0.00     0.026 C 
ENDBRANCH  20  22
ENDBRANCH   1  20
TORSDOF 4
ENDMDL
MODEL 4
REMARK VINA RESULT: -6.686373297      1.802      2.174
REMARK  4 active torsions:
REMARK  status: ('A' for Active; 'I' for Inactive)
REMARK    1  A    between atoms: C2_2  and  N1_3 
REMARK    2  A    between atoms: N1_3  and  C3_5 
REMARK    3  A    between atoms: C10_12  and  C11_13 
REMARK    4  A    between atoms: N3_15  and  N4_17 
ROOT
HETATM    1  C3  UNL     1     -14.167   3.101  12.590  1.00  0.00     0.027 C 
HETATM    2  C4  UNL     1     -15.290   2.742  11.631  1.00  0.00     0.035 C 
HETATM    3  C5  UNL     1     -16.535   3.521  12.010  1.00  0.00    -0.011 C 
HETATM    4  C6  UNL     1     -16.992   3.246  13.410  1.00  0.00     0.009 C 
HETATM    5  C7  UNL     1     -15.829   3.478  14.325  1.00  0.00    -0.011 C 
HETATM    6  C8  UNL     1     -14.615   2.632  13.953  1.00  0.00     0.035 C 
HETATM    7  C9  UNL     1     -15.464   4.922  14.320  1.00  0.00     0.021 C 
HETATM    8  C10 UNL     1     -15.177   5.393  12.911  1.00  0.00     0.020 C 
HETATM    9  C13 UNL     1     -16.165   4.993  11.881  1.00  0.00     0.021 C 
HETATM   10  C14 UNL     1     -13.896   4.586  12.541  1.00  0.00     0.047 C 
ENDROOT
BRANCH   8  11
HETATM   11  C11 UNL     1     -14.811   6.800  12.855  1.00  0.00     0.116 C 
HETATM   12  N2  UNL     1     -13.445   7.197  12.842  1.00  0.00    -0.085 NA
HETATM   13  N3  UNL     1     -15.664   7.741  12.846  1.00  0.00    -0.288 N 
ATOM     14  H3  UNL     1     -15.317   8.699  12.802  1.00  0.00     0.188 HD
BRANCH  13  15
HETATM   15  N4  UNL     1     -17.003   7.557  12.890  1.00  0.00    -0.275 N 
HETATM   16  C12 UNL     1     -17.831   7.691  13.837  1.00  0.00     0.215 C 
HETATM   17  N5  UNL     1     -17.376   8.100  15.111  1.00  0.00    -0.065 NA
HETATM   18  N6  UNL     1     -19.202   7.427  13.601  1.00  0.00    -0.065 NA
ATOM     19  H4  UNL     1     -17.418   7.259  12.006  1.00  0.00     0.189 HD
ENDBRANCH  13  15
ENDBRANCH   8  11
BRANCH   1  20
HETATM   20  N1  UNL     1     -12.979   2.460  12.121  1.00  0.00    -0.413 N 
ATOM     21  H1  UNL     1     -12.060   2.674  12.508  1.00  0.00     0.154 HD
BRANCH  20  22
HETATM   22  C2  UNL     1     -13.155   1.504  11.082  1.00  0.00     0.110 C 
HETATM   23  C1  UNL     1     -12.255   0.309  11.318  1.00  0.00     0.026 C 
ENDBRANCH  20  22
ENDBRANCH   1  20
TORSDOF 4
ENDMDL
MODEL 5
REMARK VINA RESULT: -6.664803260      1.966      4.532
REMARK  4 active torsions:
REMARK  status: ('A' for Active; 'I' for Inactive)
REMARK    1  A    between atoms: C2_2  and  N1_3 
REMARK    2  A    between atoms: N1_3  and  C3_5 
REMARK    3  A    between atoms: C10_12  and  C11_13 
REMARK    4  A    between atoms: N3_15  and  N4_17 
ROOT
HETATM    1  C3  UNL     1     -17.179   4.037  12.551  1.00  0.00     0.027 C 
HETATM    2  C4  UNL     1     -17.182   3.379  13.921  1.00  0.00     0.035 C 
HETATM    3  C5  UNL     1     -15.752   3.094  14.339  1.00  0.00    -0.011 C 
HETATM    4  C6  UNL     1     -15.030   2.201  13.377  1.00  0.00     0.009 C 
HETATM    5  C7  UNL     1     -15.155   2.802  12.011  1.00  0.00    -0.011 C 
HETATM    6  C8  UNL     1     -16.608   3.016  11.598  1.00  0.00     0.035 C 
HETATM    7  C9  UNL     1     -14.415   4.093  11.959  1.00  0.00     0.021 C 
HETATM    8  C10 UNL     1     -14.910   5.033  13.036  1.00  0.00     0.020 C 
HETATM    9  C13 UNL     1     -15.053   4.448  14.391  1.00  0.00     0.021 C 
HETATM   10  C14 UNL     1     -16.376   5.316  12.590  1.00  0.00     0.047 C 
ENDROOT
BRANCH   8  11
HETATM   11  C11 UNL     1     -14.218   6.313  13.024  1.00  0.00     0.116 C 
HETATM   12  N2  UNL     1     -12.857   6.399  12.621  1.00  0.00    -0.085 NA
HETATM   13  N3  UNL     1     -14.761   7.401  13.390  1.00  0.00    -0.288 N 
ATOM     14  H3  UNL     1     -14.200   8.252  13.345  1.00  0.00     0.188 HD
BRANCH  13  15
HETATM   15  N4  UNL     1     -16.033   7.507  13.837  1.00  0.00    -0.275 N 
HETATM   16  C12 UNL     1     -16.641   8.465  14.395  1.00  0.00     0.215 C 
HETATM   17  N5  UNL     1     -15.961   9.679  14.639  1.00  0.00    -0.065 NA
HETATM   18  N6  UNL     1     -17.998   8.301  14.767  1.00  0.00    -0.065 NA
ATOM     19  H4  UNL     1     -16.599   6.670  13.700  1.00  0.00     0.189 HD
ENDBRANCH  13  15
ENDBRANCH   8  11
BRANCH   1  20
HETATM   20  N1  UNL     1     -18.525   4.416  12.252  1.00  0.00    -0.413 N 
ATOM     21  H1  UNL     1     -18.822   4.654  11.306  1.00  0.00     0.154 HD
BRANCH  20  22
HETATM   22  C2  UNL     1     -19.424   4.442  13.354  1.00  0.00     0.110 C 
HETATM   23  C1  UNL     1     -20.310   5.668  13.273  1.00  0.00     0.026 C 
ENDBRANCH  20  22
ENDBRANCH   1  20
TORSDOF 4
ENDMDL
