MODEL 1
REMARK VINA RESULT: -7.070228592      0.000      0.000
REMARK  9 active torsions:
REMARK  status: ('A' for Active; 'I' for Inactive)
REMARK    1  A    between atoms: N1_1  and  C1_4 
REMARK    2  A    between atoms: C3_12  and  C4_13 
REMARK    3  A    between atoms: C4_13  and  C5_14 
REMARK    4  A    between atoms: C5_14  and  C6_15 
REMARK    5  A    between atoms: C6_15  and  C7_16 
REMARK    6  A    between atoms: C7_16  and  O1_17 
REMARK    7  A    between atoms: C8_22  and  N7_23 
REMARK    8  A    between atoms: C11_28  and  N9_29 
REMARK    9  A    between atoms: C12_34  and  N11_35 
ROOT
HETATM    1  N7  UNL     1      17.983  18.771  50.616  1.00  0.00    -0.217 N 
HETATM    2  N8  UNL     1      18.746  17.869  50.040  1.00  0.00    -0.301 N 
ATOM      3  H8  UNL     1      19.765  17.861  50.063  1.00  0.00     0.186 HD
HETATM    4  C9  UNL     1      17.967  16.947  49.409  1.00  0.00     0.127 A 
HETATM    5  C10 UNL     1      16.643  17.312  49.614  1.00  0.00     0.071 A 
HETATM    6  C11 UNL     1      15.415  16.825  49.257  1.00  0.00     0.130 A 
HETATM    7  N10 UNL     1      14.294  17.443  49.636  1.00  0.00    -0.176 N 
ATOM      8  H10 UNL     1      13.390  17.062  49.359  1.00  0.00     0.186 HD
HETATM    9  C12 UNL     1      14.346  18.569  50.382  1.00  0.00     0.683 A 
HETATM   10  N13 UNL     1      15.536  19.076  50.751  1.00  0.00    -0.174 N 
ATOM     11  H13 UNL     1      15.576  19.926  51.314  1.00  0.00     0.186 HD
HETATM   12  C17 UNL     1      16.669  18.465  50.378  1.00  0.00     0.160 A 
ENDROOT
BRANCH   1  13
HETATM   13  C8  UNL     1      18.337  19.928  51.363  1.00  0.00     0.189 A 
HETATM   14  C1  UNL     1      18.556  21.156  50.741  1.00  0.00     0.162 A 
HETATM   15  N2  UNL     1      18.859  22.259  51.439  1.00  0.00    -0.170 N 
HETATM   16  C2  UNL     1      18.960  22.200  52.790  1.00  0.00     0.721 A 
ATOM     17  H2  UNL     1      19.014  23.143  50.954  1.00  0.00     0.186 HD
HETATM   18  N3  UNL     1      19.220  23.102  53.747  1.00  0.00    -0.129 N 
HETATM   19  N5  UNL     1      18.752  21.028  53.387  1.00  0.00    -0.069 N 
HETATM   20  N4  UNL     1      19.181  22.528  54.929  1.00  0.00    -0.272 N 
ATOM     21  H3  UNL     1      19.419  24.089  53.582  1.00  0.00     0.205 HD
HETATM   22  C3  UNL     1      18.891  21.235  54.734  1.00  0.00     0.140 A 
ATOM     23  H4  UNL     1      19.341  22.982  55.827  1.00  0.00     0.189 HD
HETATM   24  N6  UNL     1      18.449  19.918  52.699  1.00  0.00    -0.258 N 
ATOM     25  H6  UNL     1      18.300  19.045  53.204  1.00  0.00     0.190 HD
BRANCH  14  26
HETATM   26  N1  UNL     1      18.461  21.201  49.465  1.00  0.00    -0.382 N 
ATOM     27  H12 UNL     1      18.412  22.120  49.026  1.00  0.00     0.157 HD
ATOM     28  H11 UNL     1      18.435  20.340  48.917  1.00  0.00     0.157 HD
ENDBRANCH  14  26
BRANCH  22  29
HETATM   29  C4  UNL     1      18.700  20.117  55.703  1.00  0.00     0.107 C 
BRANCH  29  30
HETATM   30  C5  UNL     1      19.930  19.376  56.004  1.00  0.00    -0.021 C 
BRANCH  30  31
HETATM   31  C6  UNL     1      20.794  19.685  57.139  1.00  0.00    -0.005 C 
BRANCH  31  32
HETATM   32  C7  UNL     1      21.836  20.721  57.132  1.00  0.00     0.191 C 
BRANCH  32  33
HETATM   33  O1  UNL     1      21.286  21.985  57.222  1.00  0.00    -0.397 OA
ATOM     34  H1  UNL     1      21.310  22.431  56.384  1.00  0.00     0.209 HD
ENDBRANCH  32  33
ENDBRANCH  31  32
ENDBRANCH  30  31
ENDBRANCH  29  30
ENDBRANCH  22  29
ENDBRANCH   1  13
BRANCH   6  35
HETATM   35  N9  UNL     1      15.350  15.753  48.552  1.00  0.00    -0.384 N 
ATOM     36  H92 UNL     1      16.066  15.560  47.852  1.00  0.00     0.157 HD
ATOM     37  H91 UNL     1      14.574  15.109  48.702  1.00  0.00     0.157 HD
ENDBRANCH   6  35
BRANCH   9  38
HETATM   38  N11 UNL     1      13.114  19.164  50.729  1.00  0.00    -0.214 N 
HETATM   39  C13 UNL     1      11.891  18.443  50.534  1.00  0.00     0.168 C 
HETATM   40  C14 UNL     1      10.729  19.364  50.213  1.00  0.00     0.252 C 
HETATM   41  N12 UNL     1      10.660  20.466  51.153  1.00  0.00    -0.072 N 
HETATM   42  C15 UNL     1      11.860  21.261  50.971  1.00  0.00     0.252 C 
ATOM     43 2H12 UNL     1       9.803  21.011  51.068  1.00  0.00     0.277 HD
ATOM     44 1H12 UNL     1      10.526  20.160  52.117  1.00  0.00     0.277 HD
HETATM   45  C16 UNL     1      13.114  20.482  51.290  1.00  0.00     0.168 C 
ENDBRANCH   9  38
TORSDOF 9
ENDMDL
MODEL 2
REMARK VINA RESULT: -7.003183381      3.409      4.851
REMARK  9 active torsions:
REMARK  status: ('A' for Active; 'I' for Inactive)
REMARK    1  A    between atoms: N1_1  and  C1_4 
REMARK    2  A    between atoms: C3_12  and  C4_13 
REMARK    3  A    between atoms: C4_13  and  C5_14 
REMARK    4  A    between atoms: C5_14  and  C6_15 
REMARK    5  A    between atoms: C6_15  and  C7_16 
REMARK    6  A    between atoms: C7_16  and  O1_17 
REMARK    7  A    between atoms: C8_22  and  N7_23 
REMARK    8  A    between atoms: C11_28  and  N9_29 
REMARK    9  A    between atoms: C12_34  and  N11_35 
ROOT
HETATM    1  N7  UNL     1      17.918  19.597  53.085  1.00  0.00    -0.217 N 
HETATM    2  N8  UNL     1      18.072  18.303  52.919  1.00  0.00    -0.301 N 
ATOM      3  H8  UNL     1      17.984  17.601  53.654  1.00  0.00     0.186 HD
HETATM    4  C9  UNL     1      18.366  18.041  51.615  1.00  0.00     0.127 A 
HETATM    5  C10 UNL     1      18.394  19.257  50.944  1.00  0.00     0.071 A 
HETATM    6  C11 UNL     1      18.622  19.675  49.661  1.00  0.00     0.130 A 
HETATM    7  N10 UNL     1      18.569  20.969  49.341  1.00  0.00    -0.176 N 
ATOM      8  H10 UNL     1      18.742  21.258  48.378  1.00  0.00     0.186 HD
HETATM    9  C12 UNL     1      18.289  21.901  50.278  1.00  0.00     0.683 A 
HETATM   10  N13 UNL     1      18.059  21.526  51.550  1.00  0.00    -0.174 N 
ATOM     11  H13 UNL     1      17.847  22.228  52.259  1.00  0.00     0.186 HD
HETATM   12  C17 UNL     1      18.109  20.229  51.885  1.00  0.00     0.160 A 
ENDROOT
BRANCH   1  13
HETATM   13  C8  UNL     1      17.629  20.341  54.263  1.00  0.00     0.189 A 
HETATM   14  C1  UNL     1      16.341  20.794  54.539  1.00  0.00     0.162 A 
HETATM   15  N2  UNL     1      16.053  21.468  55.661  1.00  0.00    -0.170 N 
HETATM   16  C2  UNL     1      17.029  21.727  56.567  1.00  0.00     0.721 A 
ATOM     17  H2  UNL     1      15.100  21.787  55.834  1.00  0.00     0.186 HD
HETATM   18  N3  UNL     1      17.059  22.340  57.758  1.00  0.00    -0.129 N 
HETATM   19  N5  UNL     1      18.261  21.295  56.304  1.00  0.00    -0.069 N 
HETATM   20  N4  UNL     1      18.276  22.305  58.251  1.00  0.00    -0.272 N 
ATOM     21  H3  UNL     1      16.254  22.770  58.214  1.00  0.00     0.205 HD
HETATM   22  C3  UNL     1      19.046  21.660  57.366  1.00  0.00     0.140 A 
ATOM     23  H4  UNL     1      18.578  22.697  59.142  1.00  0.00     0.189 HD
HETATM   24  N6  UNL     1      18.561  20.621  55.186  1.00  0.00    -0.258 N 
ATOM     25  H6  UNL     1      19.521  20.313  55.033  1.00  0.00     0.190 HD
BRANCH  14  26
HETATM   26  N1  UNL     1      15.427  20.547  53.677  1.00  0.00    -0.382 N 
ATOM     27  H12 UNL     1      14.486  20.884  53.876  1.00  0.00     0.157 HD
ATOM     28  H11 UNL     1      15.645  20.030  52.825  1.00  0.00     0.157 HD
ENDBRANCH  14  26
BRANCH  22  29
HETATM   29  C4  UNL     1      20.496  21.308  57.402  1.00  0.00     0.107 C 
BRANCH  29  30
HETATM   30  C5  UNL     1      20.771  19.987  57.982  1.00  0.00    -0.021 C 
BRANCH  30  31
HETATM   31  C6  UNL     1      20.751  18.752  57.206  1.00  0.00    -0.005 C 
BRANCH  31  32
HETATM   32  C7  UNL     1      21.463  18.558  55.936  1.00  0.00     0.191 C 
BRANCH  32  33
HETATM   33  O1  UNL     1      20.581  18.472  54.875  1.00  0.00    -0.397 OA
ATOM     34  H1  UNL     1      20.505  19.305  54.424  1.00  0.00     0.209 HD
ENDBRANCH  32  33
ENDBRANCH  31  32
ENDBRANCH  30  31
ENDBRANCH  29  30
ENDBRANCH  22  29
ENDBRANCH   1  13
BRANCH   6  35
HETATM   35  N9  UNL     1      18.886  18.800  48.758  1.00  0.00    -0.384 N 
ATOM     36  H92 UNL     1      19.827  18.413  48.682  1.00  0.00     0.157 HD
ATOM     37  H91 UNL     1      18.145  18.506  48.122  1.00  0.00     0.157 HD
ENDBRANCH   6  35
BRANCH   9  38
HETATM   38  N11 UNL     1      18.263  23.247  49.856  1.00  0.00    -0.214 N 
HETATM   39  C13 UNL     1      17.741  24.260  50.725  1.00  0.00     0.168 C 
HETATM   40  C14 UNL     1      17.089  25.394  49.956  1.00  0.00     0.252 C 
HETATM   41  N12 UNL     1      17.954  25.869  48.894  1.00  0.00    -0.072 N 
HETATM   42  C15 UNL     1      18.106  24.782  47.945  1.00  0.00     0.252 C 
ATOM     43 2H12 UNL     1      17.621  26.731  48.463  1.00  0.00     0.277 HD
ATOM     44 1H12 UNL     1      18.845  26.229  49.236  1.00  0.00     0.277 HD
HETATM   45  C16 UNL     1      18.780  23.579  48.562  1.00  0.00     0.168 C 
ENDBRANCH   9  38
TORSDOF 9
ENDMDL
MODEL 3
REMARK VINA RESULT: -6.556587986      3.742      7.040
REMARK  9 active torsions:
REMARK  status: ('A' for Active; 'I' for Inactive)
REMARK    1  A    between atoms: N1_1  and  C1_4 
REMARK    2  A    between atoms: C3_12  and  C4_13 
REMARK    3  A    between atoms: C4_13  and  C5_14 
REMARK    4  A    between atoms: C5_14  and  C6_15 
REMARK    5  A    between atoms: C6_15  and  C7_16 
REMARK    6  A    between atoms: C7_16  and  O1_17 
REMARK    7  A    between atoms: C8_22  and  N7_23 
REMARK    8  A    between atoms: C11_28  and  N9_29 
REMARK    9  A    between atoms: C12_34  and  N11_35 
ROOT
HETATM    1  N7  UNL     1      18.897  21.048  54.585  1.00  0.00    -0.217 N 
HETATM    2  N8  UNL     1      20.002  20.748  55.229  1.00  0.00    -0.301 N 
ATOM      3  H8  UNL     1      20.866  20.425  54.795  1.00  0.00     0.186 HD
HETATM    4  C9  UNL     1      19.817  20.937  56.566  1.00  0.00     0.127 A 
HETATM    5  C10 UNL     1      18.514  21.379  56.746  1.00  0.00     0.071 A 
HETATM    6  C11 UNL     1      17.727  21.737  57.807  1.00  0.00     0.130 A 
HETATM    7  N10 UNL     1      16.465  22.132  57.625  1.00  0.00    -0.176 N 
ATOM      8  H10 UNL     1      15.898  22.394  58.430  1.00  0.00     0.186 HD
HETATM    9  C12 UNL     1      15.932  22.187  56.385  1.00  0.00     0.683 A 
HETATM   10  N13 UNL     1      16.676  21.843  55.317  1.00  0.00    -0.174 N 
ATOM     11  H13 UNL     1      16.275  21.884  54.381  1.00  0.00     0.186 HD
HETATM   12  C17 UNL     1      17.945  21.445  55.487  1.00  0.00     0.160 A 
ENDROOT
BRANCH   1  13
HETATM   13  C8  UNL     1      18.602  20.986  53.195  1.00  0.00     0.189 A 
HETATM   14  C1  UNL     1      18.777  22.092  52.364  1.00  0.00     0.162 A 
HETATM   15  N2  UNL     1      18.532  22.034  51.048  1.00  0.00    -0.170 N 
HETATM   16  C2  UNL     1      18.101  20.876  50.488  1.00  0.00     0.721 A 
ATOM     17  H2  UNL     1      18.670  22.861  50.468  1.00  0.00     0.186 HD
HETATM   18  N3  UNL     1      17.797  20.500  49.238  1.00  0.00    -0.129 N 
HETATM   19  N5  UNL     1      17.933  19.819  51.280  1.00  0.00    -0.069 N 
HETATM   20  N4  UNL     1      17.442  19.235  49.223  1.00  0.00    -0.272 N 
ATOM     21  H3  UNL     1      17.836  21.107  48.419  1.00  0.00     0.205 HD
HETATM   22  C3  UNL     1      17.517  18.785  50.482  1.00  0.00     0.140 A 
ATOM     23  H4  UNL     1      17.161  18.696  48.405  1.00  0.00     0.189 HD
HETATM   24  N6  UNL     1      18.174  19.865  52.597  1.00  0.00    -0.258 N 
ATOM     25  H6  UNL     1      18.028  19.026  53.159  1.00  0.00     0.190 HD
BRANCH  14  26
HETATM   26  N1  UNL     1      19.182  23.180  52.903  1.00  0.00    -0.382 N 
ATOM     27  H12 UNL     1      19.513  23.920  52.284  1.00  0.00     0.157 HD
ATOM     28  H11 UNL     1      19.169  23.292  53.917  1.00  0.00     0.157 HD
ENDBRANCH  14  26
BRANCH  22  29
HETATM   29  C4  UNL     1      17.254  17.434  51.057  1.00  0.00     0.107 C 
BRANCH  29  30
HETATM   30  C5  UNL     1      17.507  16.332  50.120  1.00  0.00    -0.021 C 
BRANCH  30  31
HETATM   31  C6  UNL     1      16.473  15.747  49.274  1.00  0.00    -0.005 C 
BRANCH  31  32
HETATM   32  C7  UNL     1      16.145  14.315  49.232  1.00  0.00     0.191 C 
BRANCH  32  33
HETATM   33  O1  UNL     1      15.039  14.031  50.010  1.00  0.00    -0.397 OA
ATOM     34  H1  UNL     1      15.278  13.517  50.773  1.00  0.00     0.209 HD
ENDBRANCH  32  33
ENDBRANCH  31  32
ENDBRANCH  30  31
ENDBRANCH  29  30
ENDBRANCH  22  29
ENDBRANCH   1  13
BRANCH   6  35
HETATM   35  N9  UNL     1      18.221  21.693  58.992  1.00  0.00    -0.384 N 
ATOM     36  H92 UNL     1      19.225  21.806  59.130  1.00  0.00     0.157 HD
ATOM     37  H91 UNL     1      17.596  21.541  59.784  1.00  0.00     0.157 HD
ENDBRANCH   6  35
BRANCH   9  38
HETATM   38  N11 UNL     1      14.588  22.605  56.283  1.00  0.00    -0.214 N 
HETATM   39  C13 UNL     1      13.990  22.785  54.993  1.00  0.00     0.168 C 
HETATM   40  C14 UNL     1      12.941  23.880  54.996  1.00  0.00     0.252 C 
HETATM   41  N12 UNL     1      12.012  23.711  56.096  1.00  0.00    -0.072 N 
HETATM   42  C15 UNL     1      12.765  23.879  57.324  1.00  0.00     0.252 C 
ATOM     43 2H12 UNL     1      11.204  24.330  56.035  1.00  0.00     0.277 HD
ATOM     44 1H12 UNL     1      11.503  22.827  56.056  1.00  0.00     0.277 HD
HETATM   45  C16 UNL     1      13.838  22.827  57.483  1.00  0.00     0.168 C 
ENDBRANCH   9  38
TORSDOF 9
ENDMDL
MODEL 4
REMARK VINA RESULT: -6.525782584      3.874      5.731
REMARK  9 active torsions:
REMARK  status: ('A' for Active; 'I' for Inactive)
REMARK    1  A    between atoms: N1_1  and  C1_4 
REMARK    2  A    between atoms: C3_12  and  C4_13 
REMARK    3  A    between atoms: C4_13  and  C5_14 
REMARK    4  A    between atoms: C5_14  and  C6_15 
REMARK    5  A    between atoms: C6_15  and  C7_16 
REMARK    6  A    between atoms: C7_16  and  O1_17 
REMARK    7  A    between atoms: C8_22  and  N7_23 
REMARK    8  A    between atoms: C11_28  and  N9_29 
REMARK    9  A    between atoms: C12_34  and  N11_35 
ROOT
HETATM    1  N7  UNL     1      18.144  19.070  53.553  1.00  0.00    -0.217 N 
HETATM    2  N8  UNL     1      18.113  17.768  53.379  1.00  0.00    -0.301 N 
ATOM      3  H8  UNL     1      18.091  17.076  54.127  1.00  0.00     0.186 HD
HETATM    4  C9  UNL     1      18.114  17.484  52.047  1.00  0.00     0.127 A 
HETATM    5  C10 UNL     1      18.149  18.693  51.365  1.00  0.00     0.071 A 
HETATM    6  C11 UNL     1      18.168  19.092  50.056  1.00  0.00     0.130 A 
HETATM    7  N10 UNL     1      18.201  20.386  49.732  1.00  0.00    -0.176 N 
ATOM      8  H10 UNL     1      18.214  20.660  48.750  1.00  0.00     0.186 HD
HETATM    9  C12 UNL     1      18.218  21.337  50.692  1.00  0.00     0.683 A 
HETATM   10  N13 UNL     1      18.201  20.982  51.990  1.00  0.00    -0.174 N 
ATOM     11  H13 UNL     1      18.214  21.699  52.715  1.00  0.00     0.186 HD
HETATM   12  C17 UNL     1      18.167  19.685  52.329  1.00  0.00     0.160 A 
ENDROOT
BRANCH   1  13
HETATM   13  C8  UNL     1      18.178  19.834  54.752  1.00  0.00     0.189 A 
HETATM   14  C1  UNL     1      19.293  19.823  55.589  1.00  0.00     0.162 A 
HETATM   15  N2  UNL     1      19.347  20.563  56.705  1.00  0.00    -0.170 N 
HETATM   16  C2  UNL     1      18.299  21.353  57.047  1.00  0.00     0.721 A 
ATOM     17  H2  UNL     1      20.177  20.533  57.296  1.00  0.00     0.186 HD
HETATM   18  N3  UNL     1      18.060  22.202  58.056  1.00  0.00    -0.129 N 
HETATM   19  N5  UNL     1      17.233  21.365  56.249  1.00  0.00    -0.069 N 
HETATM   20  N4  UNL     1      16.872  22.747  57.913  1.00  0.00    -0.272 N 
ATOM     21  H3  UNL     1      18.705  22.396  58.821  1.00  0.00     0.205 HD
HETATM   22  C3  UNL     1      16.335  22.243  56.795  1.00  0.00     0.140 A 
ATOM     23  H4  UNL     1      16.441  23.427  58.538  1.00  0.00     0.189 HD
HETATM   24  N6  UNL     1      17.167  20.628  55.131  1.00  0.00    -0.258 N 
ATOM     25  H6  UNL     1      16.327  20.673  54.555  1.00  0.00     0.190 HD
BRANCH  14  26
HETATM   26  N1  UNL     1      20.276  19.072  55.259  1.00  0.00    -0.382 N 
ATOM     27  H12 UNL     1      21.059  19.004  55.909  1.00  0.00     0.157 HD
ATOM     28  H11 UNL     1      20.266  18.565  54.373  1.00  0.00     0.157 HD
ENDBRANCH  14  26
BRANCH  22  29
HETATM   29  C4  UNL     1      15.026  22.510  56.131  1.00  0.00     0.107 C 
BRANCH  29  30
HETATM   30  C5  UNL     1      13.975  22.959  57.053  1.00  0.00    -0.021 C 
BRANCH  30  31
HETATM   31  C6  UNL     1      13.332  24.264  56.959  1.00  0.00    -0.005 C 
BRANCH  31  32
HETATM   32  C7  UNL     1      12.347  24.777  57.923  1.00  0.00     0.191 C 
BRANCH  32  33
HETATM   33  O1  UNL     1      12.479  24.158  59.151  1.00  0.00    -0.397 OA
ATOM     34  H1  UNL     1      12.724  24.781  59.826  1.00  0.00     0.209 HD
ENDBRANCH  32  33
ENDBRANCH  31  32
ENDBRANCH  30  31
ENDBRANCH  29  30
ENDBRANCH  22  29
ENDBRANCH   1  13
BRANCH   6  35
HETATM   35  N9  UNL     1      18.147  18.199  49.132  1.00  0.00    -0.384 N 
ATOM     36  H92 UNL     1      17.499  18.290  48.350  1.00  0.00     0.157 HD
ATOM     37  H91 UNL     1      18.783  17.404  49.198  1.00  0.00     0.157 HD
ENDBRANCH   6  35
BRANCH   9  38
HETATM   38  N11 UNL     1      18.265  22.680  50.262  1.00  0.00    -0.214 N 
HETATM   39  C13 UNL     1      17.847  23.729  51.145  1.00  0.00     0.168 C 
HETATM   40  C14 UNL     1      17.241  24.901  50.396  1.00  0.00     0.252 C 
HETATM   41  N12 UNL     1      18.091  25.313  49.296  1.00  0.00    -0.072 N 
HETATM   42  C15 UNL     1      18.131  24.215  48.349  1.00  0.00     0.252 C 
ATOM     43 2H12 UNL     1      17.798  26.194  48.874  1.00  0.00     0.277 HD
ATOM     44 1H12 UNL     1      19.017  25.615  49.598  1.00  0.00     0.277 HD
HETATM   45  C16 UNL     1      18.749  22.972  48.945  1.00  0.00     0.168 C 
ENDBRANCH   9  38
TORSDOF 9
ENDMDL
MODEL 5
REMARK VINA RESULT: -6.511973023      3.496      7.730
REMARK  9 active torsions:
REMARK  status: ('A' for Active; 'I' for Inactive)
REMARK    1  A    between atoms: N1_1  and  C1_4 
REMARK    2  A    between atoms: C3_12  and  C4_13 
REMARK    3  A    between atoms: C4_13  and  C5_14 
REMARK    4  A    between atoms: C5_14  and  C6_15 
REMARK    5  A    between atoms: C6_15  and  C7_16 
REMARK    6  A    between atoms: C7_16  and  O1_17 
REMARK    7  A    between atoms: C8_22  and  N7_23 
REMARK    8  A    between atoms: C11_28  and  N9_29 
REMARK    9  A    between atoms: C12_34  and  N11_35 
ROOT
HETATM    1  N7  UNL     1      15.713  21.633  52.680  1.00  0.00    -0.217 N 
HETATM    2  N8  UNL     1      14.487  22.009  52.393  1.00  0.00    -0.301 N 
ATOM      3  H8  UNL     1      14.072  21.997  51.462  1.00  0.00     0.186 HD
HETATM    4  C9  UNL     1      13.856  22.418  53.529  1.00  0.00     0.127 A 
HETATM    5  C10 UNL     1      14.758  22.282  54.575  1.00  0.00     0.071 A 
HETATM    6  C11 UNL     1      14.751  22.512  55.925  1.00  0.00     0.130 A 
HETATM    7  N10 UNL     1      15.830  22.263  56.670  1.00  0.00    -0.176 N 
ATOM      8  H10 UNL     1      15.802  22.442  57.673  1.00  0.00     0.186 HD
HETATM    9  C12 UNL     1      16.959  21.777  56.108  1.00  0.00     0.683 A 
HETATM   10  N13 UNL     1      17.002  21.539  54.784  1.00  0.00    -0.174 N 
ATOM     11  H13 UNL     1      17.854  21.173  54.359  1.00  0.00     0.186 HD
HETATM   12  C17 UNL     1      15.925  21.785  54.025  1.00  0.00     0.160 A 
ENDROOT
BRANCH   1  13
HETATM   13  C8  UNL     1      16.748  21.156  51.828  1.00  0.00     0.189 A 
HETATM   14  C1  UNL     1      17.760  21.999  51.372  1.00  0.00     0.162 A 
HETATM   15  N2  UNL     1      18.756  21.552  50.596  1.00  0.00    -0.170 N 
HETATM   16  C2  UNL     1      18.800  20.246  50.232  1.00  0.00     0.721 A 
ATOM     17  H2  UNL     1      19.482  22.194  50.278  1.00  0.00     0.186 HD
HETATM   18  N3  UNL     1      19.649  19.508  49.504  1.00  0.00    -0.129 N 
HETATM   19  N5  UNL     1      17.834  19.439  50.667  1.00  0.00    -0.069 N 
HETATM   20  N4  UNL     1      19.242  18.259  49.469  1.00  0.00    -0.272 N 
ATOM     21  H3  UNL     1      20.487  19.863  49.045  1.00  0.00     0.205 HD
HETATM   22  C3  UNL     1      18.113  18.187  50.186  1.00  0.00     0.140 A 
ATOM     23  H4  UNL     1      19.701  17.487  48.986  1.00  0.00     0.189 HD
HETATM   24  N6  UNL     1      16.832  19.875  51.443  1.00  0.00    -0.258 N 
ATOM     25  H6  UNL     1      16.116  19.216  51.748  1.00  0.00     0.190 HD
BRANCH  14  26
HETATM   26  N1  UNL     1      17.708  23.231  51.719  1.00  0.00    -0.382 N 
ATOM     27  H12 UNL     1      18.591  23.725  51.841  1.00  0.00     0.157 HD
ATOM     28  H11 UNL     1      16.809  23.690  51.865  1.00  0.00     0.157 HD
ENDBRANCH  14  26
BRANCH  22  29
HETATM   29  C4  UNL     1      17.229  17.029  50.508  1.00  0.00     0.107 C 
BRANCH  29  30
HETATM   30  C5  UNL     1      16.667  16.365  49.325  1.00  0.00    -0.021 C 
BRANCH  30  31
HETATM   31  C6  UNL     1      16.976  14.988  48.959  1.00  0.00    -0.005 C 
BRANCH  31  32
HETATM   32  C7  UNL     1      16.496  13.806  49.689  1.00  0.00     0.191 C 
BRANCH  32  33
HETATM   33  O1  UNL     1      15.163  13.935  50.030  1.00  0.00    -0.397 OA
ATOM     34  H1  UNL     1      14.810  14.764  49.729  1.00  0.00     0.209 HD
ENDBRANCH  32  33
ENDBRANCH  31  32
ENDBRANCH  30  31
ENDBRANCH  29  30
ENDBRANCH  22  29
ENDBRANCH   1  13
BRANCH   6  35
HETATM   35  N9  UNL     1      13.684  22.970  56.474  1.00  0.00    -0.384 N 
ATOM     36  H92 UNL     1      12.976  22.326  56.826  1.00  0.00     0.157 HD
ATOM     37  H91 UNL     1      13.558  23.979  56.546  1.00  0.00     0.157 HD
ENDBRANCH   6  35
BRANCH   9  38
HETATM   38  N11 UNL     1      18.056  21.553  56.966  1.00  0.00    -0.214 N 
HETATM   39  C13 UNL     1      17.927  21.798  58.372  1.00  0.00     0.168 C 
HETATM   40  C14 UNL     1      19.233  22.251  58.997  1.00  0.00     0.252 C 
HETATM   41  N12 UNL     1      20.325  21.378  58.614  1.00  0.00    -0.072 N 
HETATM   42  C15 UNL     1      20.503  21.514  57.181  1.00  0.00     0.252 C 
ATOM     43 2H12 UNL     1      21.181  21.554  59.141  1.00  0.00     0.277 HD
ATOM     44 1H12 UNL     1      20.186  20.412  58.910  1.00  0.00     0.277 HD
HETATM   45  C16 UNL     1      19.283  21.063  56.411  1.00  0.00     0.168 C 
ENDBRANCH   9  38
TORSDOF 9
ENDMDL
