MODEL 1
REMARK VINA RESULT: -7.030456995      0.000      0.000
REMARK  10 active torsions:
REMARK  status: ('A' for Active; 'I' for Inactive)
REMARK    1  A    between atoms: C1_4  and  N2_5 
REMARK    2  A    between atoms: C1_4  and  C9_29 
REMARK    3  A    between atoms: N2_5  and  O1_7 
REMARK    4  A    between atoms: O1_7  and  C2_8 
REMARK       I    between atoms: C2_8  and  N3_10 
REMARK    5  A    between atoms: N3_10  and  N4_12 
REMARK       I    between atoms: N4_12  and  C3_14 
REMARK       I    between atoms: C3_14  and  N6_19 
REMARK    6  A    between atoms: N5_15  and  O3_17 
REMARK    7  A    between atoms: N6_19  and  O4_21 
REMARK    8  A    between atoms: O4_21  and  C4_22 
REMARK    9  A    between atoms: C4_22  and  C5_23 
REMARK   10  A    between atoms: C5_23  and  C6_24 
ROOT
HETATM    1  C2  UNL     1      17.897  23.285  55.277  1.00  0.00     0.401 C 
HETATM    2  O2  UNL     1      18.361  24.297  54.718  1.00  0.00    -0.235 OA
HETATM    3  N3  UNL     1      17.315  22.272  54.478  1.00  0.00    -0.229 N 
ATOM      4  H3  UNL     1      16.939  21.449  54.949  1.00  0.00     0.193 HD
ENDROOT
BRANCH   3   5
HETATM    5  N4  UNL     1      17.226  22.326  53.108  1.00  0.00    -0.124 N 
HETATM    6  C3  UNL     1      18.257  21.925  52.202  1.00  0.00     0.736 C 
HETATM    7  N5  UNL     1      19.000  22.906  51.759  1.00  0.00    -0.096 N 
HETATM    8  N6  UNL     1      18.483  20.595  51.795  1.00  0.00    -0.093 N 
ATOM      9  H5  UNL     1      18.791  23.850  52.085  1.00  0.00     0.213 HD
ATOM     10  H6  UNL     1      18.636  19.904  52.529  1.00  0.00     0.213 HD
ATOM     11  H4  UNL     1      16.357  22.678  52.706  1.00  0.00     0.206 HD
BRANCH   7  12
HETATM   12  O3  UNL     1      20.032  22.745  50.893  1.00  0.00    -0.276 OA
ATOM     13  H3  UNL     1      20.019  23.041  49.990  1.00  0.00     0.245 HD
ENDBRANCH   7  12
BRANCH   8  14
HETATM   14  O4  UNL     1      18.514  20.155  50.527  1.00  0.00    -0.266 OA
BRANCH  14  15
HETATM   15  C4  UNL     1      18.904  18.845  50.406  1.00  0.00     0.203 C 
BRANCH  15  16
HETATM   16  C5  UNL     1      17.997  17.942  51.218  1.00  0.00     0.054 C 
BRANCH  16  17
HETATM   17  C6  UNL     1      17.125  17.190  50.263  1.00  0.00     0.110 C 
HETATM   18  S1  UNL     1      15.641  18.079  49.781  1.00  0.00    -0.153 SA
HETATM   19  C7  UNL     1      15.631  18.054  47.972  1.00  0.00     0.085 C 
HETATM   20  C8  UNL     1      16.529  16.949  47.528  1.00  0.00     0.085 C 
HETATM   21  S2  UNL     1      17.942  16.918  48.659  1.00  0.00    -0.153 SA
ENDBRANCH  16  17
ENDBRANCH  15  16
ENDBRANCH  14  15
ENDBRANCH   8  14
ENDBRANCH   3   5
BRANCH   1  22
HETATM   22  O1  UNL     1      17.956  23.158  56.664  1.00  0.00    -0.178 OA
BRANCH  22  23
HETATM   23  N2  UNL     1      17.989  21.907  57.181  1.00  0.00    -0.239 N 
ATOM     24  H2  UNL     1      17.119  21.388  57.305  1.00  0.00     0.196 HD
BRANCH  23  25
HETATM   25  C1  UNL     1      19.228  21.309  57.556  1.00  0.00     0.134 C 
HETATM   26  N1  UNL     1      19.844  21.660  58.643  1.00  0.00    -0.383 N 
ATOM     27  H12 UNL     1      19.419  22.379  59.229  1.00  0.00     0.157 HD
ATOM     28  H11 UNL     1      20.730  21.232  58.911  1.00  0.00     0.157 HD
BRANCH  25  29
HETATM   29  C9  UNL     1      19.832  20.291  56.726  1.00  0.00     0.067 A 
HETATM   30  C10 UNL     1      21.132  19.853  56.777  1.00  0.00     0.078 A 
HETATM   31  C11 UNL     1      21.265  18.880  55.809  1.00  0.00     0.226 A 
HETATM   32  O5  UNL     1      22.338  18.237  55.554  1.00  0.00    -0.284 OA
HETATM   33  C12 UNL     1      20.077  18.709  55.163  1.00  0.00     0.272 A 
HETATM   34  O6  UNL     1      19.787  17.917  54.218  1.00  0.00    -0.280 OA
HETATM   35  C13 UNL     1      19.183  19.592  55.738  1.00  0.00     0.239 A 
HETATM   36  O7  UNL     1      17.977  19.692  55.368  1.00  0.00    -0.283 OA
ENDBRANCH  25  29
ENDBRANCH  23  25
ENDBRANCH  22  23
ENDBRANCH   1  22
TORSDOF 10
ENDMDL
MODEL 2
REMARK VINA RESULT: -7.014399749      0.804      1.179
REMARK  10 active torsions:
REMARK  status: ('A' for Active; 'I' for Inactive)
REMARK    1  A    between atoms: C1_4  and  N2_5 
REMARK    2  A    between atoms: C1_4  and  C9_29 
REMARK    3  A    between atoms: N2_5  and  O1_7 
REMARK    4  A    between atoms: O1_7  and  C2_8 
REMARK       I    between atoms: C2_8  and  N3_10 
REMARK    5  A    between atoms: N3_10  and  N4_12 
REMARK       I    between atoms: N4_12  and  C3_14 
REMARK       I    between atoms: C3_14  and  N6_19 
REMARK    6  A    between atoms: N5_15  and  O3_17 
REMARK    7  A    between atoms: N6_19  and  O4_21 
REMARK    8  A    between atoms: O4_21  and  C4_22 
REMARK    9  A    between atoms: C4_22  and  C5_23 
REMARK   10  A    between atoms: C5_23  and  C6_24 
ROOT
HETATM    1  C2  UNL     1      17.670  23.259  55.552  1.00  0.00     0.401 C 
HETATM    2  O2  UNL     1      18.305  24.149  54.953  1.00  0.00    -0.235 OA
HETATM    3  N3  UNL     1      17.008  22.265  54.791  1.00  0.00    -0.229 N 
ATOM      4  H3  UNL     1      16.491  21.544  55.294  1.00  0.00     0.193 HD
ENDROOT
BRANCH   3   5
HETATM    5  N4  UNL     1      17.017  22.210  53.418  1.00  0.00    -0.124 N 
HETATM    6  C3  UNL     1      18.160  21.896  52.618  1.00  0.00     0.736 C 
HETATM    7  N5  UNL     1      18.796  22.938  52.149  1.00  0.00    -0.096 N 
HETATM    8  N6  UNL     1      18.593  20.585  52.334  1.00  0.00    -0.093 N 
ATOM      9  H5  UNL     1      18.437  23.864  52.383  1.00  0.00     0.213 HD
ATOM     10  H6  UNL     1      18.782  19.976  53.130  1.00  0.00     0.213 HD
ATOM     11  H4  UNL     1      16.143  22.408  52.933  1.00  0.00     0.206 HD
BRANCH   7  12
HETATM   12  O3  UNL     1      19.903  22.863  51.368  1.00  0.00    -0.276 OA
ATOM     13  H3  UNL     1      19.940  23.164  50.468  1.00  0.00     0.245 HD
ENDBRANCH   7  12
BRANCH   8  14
HETATM   14  O4  UNL     1      18.781  20.067  51.110  1.00  0.00    -0.266 OA
BRANCH  14  15
HETATM   15  C4  UNL     1      18.335  18.776  50.983  1.00  0.00     0.203 C 
BRANCH  15  16
HETATM   16  C5  UNL     1      18.919  18.128  49.744  1.00  0.00     0.054 C 
BRANCH  16  17
HETATM   17  C6  UNL     1      17.783  17.716  48.863  1.00  0.00     0.110 C 
HETATM   18  S1  UNL     1      17.726  15.951  48.529  1.00  0.00    -0.153 SA
HETATM   19  C7  UNL     1      16.043  15.437  48.948  1.00  0.00     0.085 C 
HETATM   20  C8  UNL     1      15.183  16.655  48.953  1.00  0.00     0.085 C 
HETATM   21  S2  UNL     1      16.167  18.005  49.649  1.00  0.00    -0.153 SA
ENDBRANCH  16  17
ENDBRANCH  15  16
ENDBRANCH  14  15
ENDBRANCH   8  14
ENDBRANCH   3   5
BRANCH   1  22
HETATM   22  O1  UNL     1      17.619  23.248  56.944  1.00  0.00    -0.178 OA
BRANCH  22  23
HETATM   23  N2  UNL     1      17.754  22.055  57.571  1.00  0.00    -0.239 N 
ATOM     24  H2  UNL     1      16.924  21.505  57.794  1.00  0.00     0.196 HD
BRANCH  23  25
HETATM   25  C1  UNL     1      19.045  21.560  57.920  1.00  0.00     0.134 C 
HETATM   26  N1  UNL     1      19.640  21.942  59.009  1.00  0.00    -0.383 N 
ATOM     27  H12 UNL     1      19.160  22.609  59.614  1.00  0.00     0.157 HD
ATOM     28  H11 UNL     1      20.563  21.588  59.259  1.00  0.00     0.157 HD
BRANCH  25  29
HETATM   29  C9  UNL     1      19.725  20.616  57.063  1.00  0.00     0.067 A 
HETATM   30  C10 UNL     1      21.048  20.252  57.128  1.00  0.00     0.078 A 
HETATM   31  C11 UNL     1      21.260  19.331  56.124  1.00  0.00     0.226 A 
HETATM   32  O5  UNL     1      22.373  18.763  55.868  1.00  0.00    -0.284 OA
HETATM   33  C12 UNL     1      20.098  19.120  55.441  1.00  0.00     0.272 A 
HETATM   34  O6  UNL     1      19.877  18.355  54.456  1.00  0.00    -0.280 OA
HETATM   35  C13 UNL     1      19.141  19.925  56.031  1.00  0.00     0.239 A 
HETATM   36  O7  UNL     1      17.940  19.971  55.635  1.00  0.00    -0.283 OA
ENDBRANCH  25  29
ENDBRANCH  23  25
ENDBRANCH  22  23
ENDBRANCH   1  22
TORSDOF 10
ENDMDL
MODEL 3
REMARK VINA RESULT: -6.993912594      0.832      1.004
REMARK  10 active torsions:
REMARK  status: ('A' for Active; 'I' for Inactive)
REMARK    1  A    between atoms: C1_4  and  N2_5 
REMARK    2  A    between atoms: C1_4  and  C9_29 
REMARK    3  A    between atoms: N2_5  and  O1_7 
REMARK    4  A    between atoms: O1_7  and  C2_8 
REMARK       I    between atoms: C2_8  and  N3_10 
REMARK    5  A    between atoms: N3_10  and  N4_12 
REMARK       I    between atoms: N4_12  and  C3_14 
REMARK       I    between atoms: C3_14  and  N6_19 
REMARK    6  A    between atoms: N5_15  and  O3_17 
REMARK    7  A    between atoms: N6_19  and  O4_21 
REMARK    8  A    between atoms: O4_21  and  C4_22 
REMARK    9  A    between atoms: C4_22  and  C5_23 
REMARK   10  A    between atoms: C5_23  and  C6_24 
ROOT
HETATM    1  C2  UNL     1      17.922  23.267  55.294  1.00  0.00     0.401 C 
HETATM    2  O2  UNL     1      18.408  24.263  54.722  1.00  0.00    -0.235 OA
HETATM    3  N3  UNL     1      17.305  22.265  54.508  1.00  0.00    -0.229 N 
ATOM      4  H3  UNL     1      16.911  21.456  54.989  1.00  0.00     0.193 HD
ENDROOT
BRANCH   3   5
HETATM    5  N4  UNL     1      17.202  22.311  53.138  1.00  0.00    -0.124 N 
HETATM    6  C3  UNL     1      18.229  21.917  52.225  1.00  0.00     0.736 C 
HETATM    7  N5  UNL     1      18.958  22.903  51.771  1.00  0.00    -0.096 N 
HETATM    8  N6  UNL     1      18.463  20.586  51.822  1.00  0.00    -0.093 N 
ATOM      9  H5  UNL     1      18.743  23.846  52.094  1.00  0.00     0.213 HD
ATOM     10  H6  UNL     1      18.630  19.901  52.558  1.00  0.00     0.213 HD
ATOM     11  H4  UNL     1      16.326  22.654  52.743  1.00  0.00     0.206 HD
BRANCH   7  12
HETATM   12  O3  UNL     1      19.983  22.747  50.896  1.00  0.00    -0.276 OA
ATOM     13  H3  UNL     1      20.100  23.276  50.115  1.00  0.00     0.245 HD
ENDBRANCH   7  12
BRANCH   8  14
HETATM   14  O4  UNL     1      18.487  20.141  50.556  1.00  0.00    -0.266 OA
BRANCH  14  15
HETATM   15  C4  UNL     1      18.945  18.854  50.432  1.00  0.00     0.203 C 
BRANCH  15  16
HETATM   16  C5  UNL     1      17.884  17.865  50.871  1.00  0.00     0.054 C 
BRANCH  16  17
HETATM   17  C6  UNL     1      17.200  17.352  49.643  1.00  0.00     0.110 C 
HETATM   18  S1  UNL     1      18.113  17.651  48.125  1.00  0.00    -0.153 SA
HETATM   19  C7  UNL     1      18.222  16.041  47.306  1.00  0.00     0.085 C 
HETATM   20  C8  UNL     1      17.160  15.166  47.880  1.00  0.00     0.085 C 
HETATM   21  S2  UNL     1      17.053  15.539  49.648  1.00  0.00    -0.153 SA
ENDBRANCH  16  17
ENDBRANCH  15  16
ENDBRANCH  14  15
ENDBRANCH   8  14
ENDBRANCH   3   5
BRANCH   1  22
HETATM   22  O1  UNL     1      17.993  23.149  56.680  1.00  0.00    -0.178 OA
BRANCH  22  23
HETATM   23  N2  UNL     1      18.012  21.901  57.206  1.00  0.00    -0.239 N 
ATOM     24  H2  UNL     1      17.135  21.400  57.349  1.00  0.00     0.196 HD
BRANCH  23  25
HETATM   25  C1  UNL     1      19.246  21.283  57.563  1.00  0.00     0.134 C 
HETATM   26  N1  UNL     1      19.874  21.609  58.651  1.00  0.00    -0.383 N 
ATOM     27  H12 UNL     1      19.460  22.323  59.252  1.00  0.00     0.157 HD
ATOM     28  H11 UNL     1      20.756  21.167  58.907  1.00  0.00     0.157 HD
BRANCH  25  29
HETATM   29  C9  UNL     1      19.832  20.272  56.712  1.00  0.00     0.067 A 
HETATM   30  C10 UNL     1      21.134  19.833  56.733  1.00  0.00     0.078 A 
HETATM   31  C11 UNL     1      21.246  18.867  55.756  1.00  0.00     0.226 A 
HETATM   32  O5  UNL     1      22.313  18.226  55.473  1.00  0.00    -0.284 OA
HETATM   33  C12 UNL     1      20.045  18.701  55.132  1.00  0.00     0.272 A 
HETATM   34  O6  UNL     1      19.736  17.917  54.187  1.00  0.00    -0.280 OA
HETATM   35  C13 UNL     1      19.163  19.581  55.733  1.00  0.00     0.239 A 
HETATM   36  O7  UNL     1      17.950  19.683  55.388  1.00  0.00    -0.283 OA
ENDBRANCH  25  29
ENDBRANCH  23  25
ENDBRANCH  22  23
ENDBRANCH   1  22
TORSDOF 10
ENDMDL
MODEL 4
REMARK VINA RESULT: -6.972446343      1.142      1.360
REMARK  10 active torsions:
REMARK  status: ('A' for Active; 'I' for Inactive)
REMARK    1  A    between atoms: C1_4  and  N2_5 
REMARK    2  A    between atoms: C1_4  and  C9_29 
REMARK    3  A    between atoms: N2_5  and  O1_7 
REMARK    4  A    between atoms: O1_7  and  C2_8 
REMARK       I    between atoms: C2_8  and  N3_10 
REMARK    5  A    between atoms: N3_10  and  N4_12 
REMARK       I    between atoms: N4_12  and  C3_14 
REMARK       I    between atoms: C3_14  and  N6_19 
REMARK    6  A    between atoms: N5_15  and  O3_17 
REMARK    7  A    between atoms: N6_19  and  O4_21 
REMARK    8  A    between atoms: O4_21  and  C4_22 
REMARK    9  A    between atoms: C4_22  and  C5_23 
REMARK   10  A    between atoms: C5_23  and  C6_24 
ROOT
HETATM    1  C2  UNL     1      17.677  23.252  55.531  1.00  0.00     0.401 C 
HETATM    2  O2  UNL     1      18.283  24.166  54.938  1.00  0.00    -0.235 OA
HETATM    3  N3  UNL     1      17.039  22.249  54.762  1.00  0.00    -0.229 N 
ATOM      4  H3  UNL     1      16.547  21.507  55.260  1.00  0.00     0.193 HD
ENDROOT
BRANCH   3   5
HETATM    5  N4  UNL     1      17.040  22.210  53.389  1.00  0.00    -0.124 N 
HETATM    6  C3  UNL     1      18.178  21.906  52.578  1.00  0.00     0.736 C 
HETATM    7  N5  UNL     1      18.811  22.954  52.117  1.00  0.00    -0.096 N 
HETATM    8  N6  UNL     1      18.610  20.599  52.275  1.00  0.00    -0.093 N 
ATOM      9  H5  UNL     1      18.453  23.877  52.365  1.00  0.00     0.213 HD
ATOM     10  H6  UNL     1      18.803  19.980  53.062  1.00  0.00     0.213 HD
ATOM     11  H4  UNL     1      16.162  22.414  52.911  1.00  0.00     0.206 HD
BRANCH   7  12
HETATM   12  O3  UNL     1      19.913  22.889  51.329  1.00  0.00    -0.276 OA
ATOM     13  H3  UNL     1      20.612  23.532  51.340  1.00  0.00     0.245 HD
ENDBRANCH   7  12
BRANCH   8  14
HETATM   14  O4  UNL     1      18.791  20.096  51.044  1.00  0.00    -0.266 OA
BRANCH  14  15
HETATM   15  C4  UNL     1      17.632  19.984  50.318  1.00  0.00     0.203 C 
BRANCH  15  16
HETATM   16  C5  UNL     1      17.487  18.584  49.755  1.00  0.00     0.054 C 
BRANCH  16  17
HETATM   17  C6  UNL     1      16.255  17.977  50.347  1.00  0.00     0.110 C 
HETATM   18  S1  UNL     1      15.293  19.118  51.348  1.00  0.00    -0.153 SA
HETATM   19  C7  UNL     1      13.606  19.019  50.700  1.00  0.00     0.085 C 
HETATM   20  C8  UNL     1      13.486  17.743  49.938  1.00  0.00     0.085 C 
HETATM   21  S2  UNL     1      15.054  17.484  49.072  1.00  0.00    -0.153 SA
ENDBRANCH  16  17
ENDBRANCH  15  16
ENDBRANCH  14  15
ENDBRANCH   8  14
ENDBRANCH   3   5
BRANCH   1  22
HETATM   22  O1  UNL     1      17.637  23.222  56.923  1.00  0.00    -0.178 OA
BRANCH  22  23
HETATM   23  N2  UNL     1      17.760  22.019  57.532  1.00  0.00    -0.239 N 
ATOM     24  H2  UNL     1      16.926  21.469  57.737  1.00  0.00     0.196 HD
BRANCH  23  25
HETATM   25  C1  UNL     1      19.045  21.514  57.888  1.00  0.00     0.134 C 
HETATM   26  N1  UNL     1      19.637  21.889  58.981  1.00  0.00    -0.383 N 
ATOM     27  H12 UNL     1      19.158  22.557  59.585  1.00  0.00     0.157 HD
ATOM     28  H11 UNL     1      20.556  21.527  59.236  1.00  0.00     0.157 HD
BRANCH  25  29
HETATM   29  C9  UNL     1      19.725  20.568  57.032  1.00  0.00     0.067 A 
HETATM   30  C10 UNL     1      21.041  20.184  57.112  1.00  0.00     0.078 A 
HETATM   31  C11 UNL     1      21.254  19.269  56.103  1.00  0.00     0.226 A 
HETATM   32  O5  UNL     1      22.363  18.687  55.858  1.00  0.00    -0.284 OA
HETATM   33  C12 UNL     1      20.099  19.081  55.402  1.00  0.00     0.272 A 
HETATM   34  O6  UNL     1      19.881  18.328  54.408  1.00  0.00    -0.280 OA
HETATM   35  C13 UNL     1      19.145  19.894  55.985  1.00  0.00     0.239 A 
HETATM   36  O7  UNL     1      17.951  19.961  55.574  1.00  0.00    -0.283 OA
ENDBRANCH  25  29
ENDBRANCH  23  25
ENDBRANCH  22  23
ENDBRANCH   1  22
TORSDOF 10
ENDMDL
MODEL 5
REMARK VINA RESULT: -6.871164337      0.961      1.773
REMARK  10 active torsions:
REMARK  status: ('A' for Active; 'I' for Inactive)
REMARK    1  A    between atoms: C1_4  and  N2_5 
REMARK    2  A    between atoms: C1_4  and  C9_29 
REMARK    3  A    between atoms: N2_5  and  O1_7 
REMARK    4  A    between atoms: O1_7  and  C2_8 
REMARK       I    between atoms: C2_8  and  N3_10 
REMARK    5  A    between atoms: N3_10  and  N4_12 
REMARK       I    between atoms: N4_12  and  C3_14 
REMARK       I    between atoms: C3_14  and  N6_19 
REMARK    6  A    between atoms: N5_15  and  O3_17 
REMARK    7  A    between atoms: N6_19  and  O4_21 
REMARK    8  A    between atoms: O4_21  and  C4_22 
REMARK    9  A    between atoms: C4_22  and  C5_23 
REMARK   10  A    between atoms: C5_23  and  C6_24 
ROOT
HETATM    1  C2  UNL     1      17.719  23.335  55.498  1.00  0.00     0.401 C 
HETATM    2  O2  UNL     1      18.216  24.303  54.890  1.00  0.00    -0.235 OA
HETATM    3  N3  UNL     1      17.163  22.272  54.746  1.00  0.00    -0.229 N 
ATOM      4  H3  UNL     1      16.759  21.487  55.256  1.00  0.00     0.193 HD
ENDROOT
BRANCH   3   5
HETATM    5  N4  UNL     1      17.133  22.231  53.373  1.00  0.00    -0.124 N 
HETATM    6  C3  UNL     1      18.246  21.905  52.537  1.00  0.00     0.736 C 
HETATM    7  N5  UNL     1      18.887  22.940  52.060  1.00  0.00    -0.096 N 
HETATM    8  N6  UNL     1      18.648  20.590  52.229  1.00  0.00    -0.093 N 
ATOM      9  H5  UNL     1      18.552  23.870  52.314  1.00  0.00     0.213 HD
ATOM     10  H6  UNL     1      18.848  19.969  53.013  1.00  0.00     0.213 HD
ATOM     11  H4  UNL     1      16.248  22.449  52.914  1.00  0.00     0.206 HD
BRANCH   7  12
HETATM   12  O3  UNL     1      19.971  22.853  51.248  1.00  0.00    -0.276 OA
ATOM     13  H3  UNL     1      20.769  23.353  51.373  1.00  0.00     0.245 HD
ENDBRANCH   7  12
BRANCH   8  14
HETATM   14  O4  UNL     1      18.792  20.080  50.995  1.00  0.00    -0.266 OA
BRANCH  14  15
HETATM   15  C4  UNL     1      18.245  18.831  50.846  1.00  0.00     0.203 C 
BRANCH  15  16
HETATM   16  C5  UNL     1      18.885  18.103  49.681  1.00  0.00     0.054 C 
BRANCH  16  17
HETATM   17  C6  UNL     1      17.790  17.628  48.780  1.00  0.00     0.110 C 
HETATM   18  S1  UNL     1      17.747  15.845  48.566  1.00  0.00    -0.153 SA
HETATM   19  C7  UNL     1      16.047  15.356  48.943  1.00  0.00     0.085 C 
HETATM   20  C8  UNL     1      15.188  16.569  48.825  1.00  0.00     0.085 C 
HETATM   21  S2  UNL     1      16.140  17.967  49.471  1.00  0.00    -0.153 SA
ENDBRANCH  16  17
ENDBRANCH  15  16
ENDBRANCH  14  15
ENDBRANCH   8  14
ENDBRANCH   3   5
BRANCH   1  22
HETATM   22  O1  UNL     1      17.717  23.305  56.891  1.00  0.00    -0.178 OA
BRANCH  22  23
HETATM   23  N2  UNL     1      17.778  22.095  57.495  1.00  0.00    -0.239 N 
ATOM     24  H2  UNL     1      16.916  21.619  57.761  1.00  0.00     0.196 HD
BRANCH  23  25
HETATM   25  C1  UNL     1      19.037  21.481  57.764  1.00  0.00     0.134 C 
HETATM   26  N1  UNL     1      19.722  21.784  58.824  1.00  0.00    -0.383 N 
ATOM     27  H12 UNL     1      19.337  22.477  59.466  1.00  0.00     0.157 HD
ATOM     28  H11 UNL     1      20.622  21.344  59.016  1.00  0.00     0.157 HD
BRANCH  25  29
HETATM   29  C9  UNL     1      19.583  20.499  56.854  1.00  0.00     0.067 A 
HETATM   30  C10 UNL     1      18.907  19.832  55.861  1.00  0.00     0.078 A 
HETATM   31  C11 UNL     1      19.817  18.999  55.247  1.00  0.00     0.226 A 
HETATM   32  O5  UNL     1      19.558  18.215  54.274  1.00  0.00    -0.284 OA
HETATM   33  C12 UNL     1      21.039  19.137  55.837  1.00  0.00     0.272 A 
HETATM   34  O6  UNL     1      22.128  18.551  55.567  1.00  0.00    -0.280 OA
HETATM   35  C13 UNL     1      20.889  20.076  56.842  1.00  0.00     0.239 A 
HETATM   36  O7  UNL     1      21.840  20.440  57.592  1.00  0.00    -0.283 OA
ENDBRANCH  25  29
ENDBRANCH  23  25
ENDBRANCH  22  23
ENDBRANCH   1  22
TORSDOF 10
ENDMDL
