MODEL 1
REMARK VINA RESULT: -7.986634988      0.000      0.000
REMARK  5 active torsions:
REMARK  status: ('A' for Active; 'I' for Inactive)
REMARK    1  A    between atoms: C2_2  and  C3_3 
REMARK    2  A    between atoms: C3_3  and  N1_5 
REMARK    3  A    between atoms: C10_12  and  C11_13 
REMARK       I    between atoms: C11_13  and  N2_15 
REMARK    4  A    between atoms: C15_19  and  C16_20 
REMARK    5  A    between atoms: C18_27  and  C19_28 
ROOT
HETATM    1  N1  UNL     1      11.940  19.843  45.395  1.00  0.00     0.095 N 
HETATM    2  C5  UNL     1      10.625  19.355  45.876  1.00  0.00     0.280 C 
HETATM    3  C6  UNL     1      10.832  19.554  47.312  1.00  0.00     0.052 C 
HETATM    4  C7  UNL     1       9.917  19.432  48.370  1.00  0.00     0.015 C 
HETATM    5  C8  UNL     1       8.796  18.399  48.303  1.00  0.00     0.179 C 
HETATM    6  O1  UNL     1       8.137  18.553  49.536  1.00  0.00    -0.389 OA
HETATM    7  C9  UNL     1       8.185  19.878  49.898  1.00  0.00     0.182 C 
HETATM    8  C10 UNL     1       9.117  20.599  48.887  1.00  0.00     0.114 C 
HETATM    9  C17 UNL     1      10.725  19.043  49.639  1.00  0.00     0.154 C 
HETATM   10  S1  UNL     1      12.399  19.514  49.128  1.00  0.00     0.156 S 
HETATM   11  O5  UNL     1      12.488  20.987  49.058  1.00  0.00    -0.227 OA
HETATM   12  O6  UNL     1      13.411  18.839  49.925  1.00  0.00    -0.227 OA
HETATM   13  C18 UNL     1      12.134  18.797  47.487  1.00  0.00     0.102 C 
HETATM   14  C23 UNL     1      12.898  19.462  46.414  1.00  0.00     0.299 C 
ENDROOT
BRANCH   8  15
HETATM   15  C11 UNL     1       8.267  21.363  48.035  1.00  0.00     0.227 C 
HETATM   16  O2  UNL     1       7.472  20.985  47.139  1.00  0.00    -0.273 OA
HETATM   17  N2  UNL     1       8.279  22.776  48.176  1.00  0.00    -0.337 N 
HETATM   18  C12 UNL     1       7.514  23.758  47.420  1.00  0.00     0.127 C 
HETATM   19  C15 UNL     1       9.064  23.565  49.095  1.00  0.00     0.188 C 
HETATM   20  C13 UNL     1       8.454  24.922  47.243  1.00  0.00     0.022 C 
HETATM   21  C14 UNL     1       9.636  24.660  48.176  1.00  0.00     0.038 C 
BRANCH  19  22
HETATM   22  C16 UNL     1       8.313  24.165  50.204  1.00  0.00     0.196 C 
HETATM   23  O3  UNL     1       7.563  23.465  50.930  1.00  0.00    -0.646 OA
HETATM   24  O4  UNL     1       8.390  25.510  50.508  1.00  0.00    -0.646 OA
ENDBRANCH  19  22
ENDBRANCH   8  15
BRANCH  13  25
HETATM   25  C19 UNL     1      12.203  17.393  47.645  1.00  0.00     0.037 C 
HETATM   26  C20 UNL     1      11.411  16.400  46.874  1.00  0.00     0.035 C 
HETATM   27  C21 UNL     1      12.230  15.127  47.159  1.00  0.00     0.168 C 
HETATM   28  O7  UNL     1      13.504  15.576  47.541  1.00  0.00    -0.391 OA
HETATM   29  C22 UNL     1      13.574  16.919  47.101  1.00  0.00     0.174 C 
ENDBRANCH  13  25
BRANCH   1  30
HETATM   30  C3  UNL     1      12.279  19.394  44.103  1.00  0.00     0.218 C 
HETATM   31  C4  UNL     1      11.234  19.838  43.127  1.00  0.00     0.043 C 
BRANCH  30  32
HETATM   32  C2  UNL     1      12.370  17.893  44.021  1.00  0.00     0.031 C 
HETATM   33  C1  UNL     1      12.330  17.487  42.567  1.00  0.00     0.007 C 
ENDBRANCH  30  32
ENDBRANCH   1  30
TORSDOF 5
ENDMDL
MODEL 2
REMARK VINA RESULT: -7.779902781      2.963      6.995
REMARK  5 active torsions:
REMARK  status: ('A' for Active; 'I' for Inactive)
REMARK    1  A    between atoms: C2_2  and  C3_3 
REMARK    2  A    between atoms: C3_3  and  N1_5 
REMARK    3  A    between atoms: C10_12  and  C11_13 
REMARK       I    between atoms: C11_13  and  N2_15 
REMARK    4  A    between atoms: C15_19  and  C16_20 
REMARK    5  A    between atoms: C18_27  and  C19_28 
ROOT
HETATM    1  N1  UNL     1      10.957  24.178  45.891  1.00  0.00     0.095 N 
HETATM    2  C5  UNL     1      10.718  24.585  47.296  1.00  0.00     0.280 C 
HETATM    3  C6  UNL     1       9.525  23.777  47.555  1.00  0.00     0.052 C 
HETATM    4  C7  UNL     1       8.837  23.561  48.761  1.00  0.00     0.015 C 
HETATM    5  C8  UNL     1       8.767  24.663  49.815  1.00  0.00     0.179 C 
HETATM    6  O1  UNL     1       7.980  24.093  50.830  1.00  0.00    -0.389 OA
HETATM    7  C9  UNL     1       8.239  22.745  50.884  1.00  0.00     0.182 C 
HETATM    8  C10 UNL     1       9.143  22.400  49.671  1.00  0.00     0.114 C 
HETATM    9  C17 UNL     1       7.353  23.274  48.404  1.00  0.00     0.154 C 
HETATM   10  S1  UNL     1       7.506  22.847  46.649  1.00  0.00     0.156 S 
HETATM   11  O5  UNL     1       8.187  21.542  46.525  1.00  0.00    -0.227 OA
HETATM   12  O6  UNL     1       6.238  22.988  45.952  1.00  0.00    -0.227 OA
HETATM   13  C18 UNL     1       8.664  24.215  46.386  1.00  0.00     0.102 C 
HETATM   14  C23 UNL     1       9.645  23.968  45.311  1.00  0.00     0.299 C 
ENDROOT
BRANCH   8  15
HETATM   15  C11 UNL     1      10.450  22.182  50.195  1.00  0.00     0.227 C 
HETATM   16  O2  UNL     1      11.094  22.832  51.055  1.00  0.00    -0.273 OA
HETATM   17  N2  UNL     1      11.187  21.070  49.706  1.00  0.00    -0.337 N 
HETATM   18  C12 UNL     1      12.531  20.652  50.079  1.00  0.00     0.127 C 
HETATM   19  C15 UNL     1      10.775  20.104  48.716  1.00  0.00     0.188 C 
HETATM   20  C13 UNL     1      13.148  20.157  48.797  1.00  0.00     0.022 C 
HETATM   21  C14 UNL     1      12.003  20.043  47.791  1.00  0.00     0.038 C 
BRANCH  19  22
HETATM   22  C16 UNL     1      10.458  18.769  49.238  1.00  0.00     0.196 C 
HETATM   23  O3  UNL     1       9.735  18.628  50.257  1.00  0.00    -0.646 OA
HETATM   24  O4  UNL     1      10.927  17.612  48.647  1.00  0.00    -0.646 OA
ENDBRANCH  19  22
ENDBRANCH   8  15
BRANCH  13  25
HETATM   25  C19 UNL     1       7.893  25.401  46.388  1.00  0.00     0.037 C 
HETATM   26  C20 UNL     1       8.309  26.696  46.984  1.00  0.00     0.035 C 
HETATM   27  C21 UNL     1       7.311  27.642  46.288  1.00  0.00     0.168 C 
HETATM   28  O7  UNL     1       6.882  26.959  45.139  1.00  0.00    -0.391 OA
HETATM   29  C22 UNL     1       7.839  25.936  44.935  1.00  0.00     0.174 C 
ENDBRANCH  13  25
BRANCH   1  30
HETATM   30  C3  UNL     1      11.759  25.079  45.163  1.00  0.00     0.218 C 
HETATM   31  C4  UNL     1      11.521  26.473  45.655  1.00  0.00     0.043 C 
BRANCH  30  32
HETATM   32  C2  UNL     1      11.455  25.060  43.688  1.00  0.00     0.031 C 
HETATM   33  C1  UNL     1      12.492  24.210  42.993  1.00  0.00     0.007 C 
ENDBRANCH  30  32
ENDBRANCH   1  30
TORSDOF 5
ENDMDL
MODEL 3
REMARK VINA RESULT: -7.747933381      2.590      5.609
REMARK  5 active torsions:
REMARK  status: ('A' for Active; 'I' for Inactive)
REMARK    1  A    between atoms: C2_2  and  C3_3 
REMARK    2  A    between atoms: C3_3  and  N1_5 
REMARK    3  A    between atoms: C10_12  and  C11_13 
REMARK       I    between atoms: C11_13  and  N2_15 
REMARK    4  A    between atoms: C15_19  and  C16_20 
REMARK    5  A    between atoms: C18_27  and  C19_28 
ROOT
HETATM    1  N1  UNL     1      10.853  20.431  46.123  1.00  0.00     0.095 N 
HETATM    2  C5  UNL     1      11.219  21.657  46.872  1.00  0.00     0.280 C 
HETATM    3  C6  UNL     1       9.869  22.160  47.136  1.00  0.00     0.052 C 
HETATM    4  C7  UNL     1       9.459  23.234  47.942  1.00  0.00     0.015 C 
HETATM    5  C8  UNL     1      10.343  24.470  48.086  1.00  0.00     0.179 C 
HETATM    6  O1  UNL     1       9.588  25.316  48.918  1.00  0.00    -0.389 OA
HETATM    7  C9  UNL     1       8.886  24.542  49.812  1.00  0.00     0.182 C 
HETATM    8  C10 UNL     1       9.078  23.061  49.390  1.00  0.00     0.114 C 
HETATM    9  C17 UNL     1       8.130  23.778  47.350  1.00  0.00     0.154 C 
HETATM   10  S1  UNL     1       7.623  22.375  46.321  1.00  0.00     0.156 S 
HETATM   11  O5  UNL     1       7.220  21.254  47.193  1.00  0.00    -0.227 OA
HETATM   12  O6  UNL     1       6.670  22.779  45.299  1.00  0.00    -0.227 OA
HETATM   13  C18 UNL     1       9.319  22.161  45.723  1.00  0.00     0.102 C 
HETATM   14  C23 UNL     1       9.658  20.767  45.375  1.00  0.00     0.299 C 
ENDROOT
BRANCH   8  15
HETATM   15  C11 UNL     1       9.975  22.488  50.338  1.00  0.00     0.227 C 
HETATM   16  O2  UNL     1      10.831  23.038  51.074  1.00  0.00    -0.273 OA
HETATM   17  N2  UNL     1       9.939  21.080  50.522  1.00  0.00    -0.337 N 
HETATM   18  C12 UNL     1      10.756  20.272  51.417  1.00  0.00     0.127 C 
HETATM   19  C15 UNL     1       9.090  20.123  49.853  1.00  0.00     0.188 C 
HETATM   20  C13 UNL     1      11.029  19.006  50.649  1.00  0.00     0.022 C 
HETATM   21  C14 UNL     1      10.093  19.031  49.441  1.00  0.00     0.038 C 
BRANCH  19  22
HETATM   22  C16 UNL     1       8.019  19.551  50.679  1.00  0.00     0.196 C 
HETATM   23  O3  UNL     1       7.390  18.529  50.305  1.00  0.00    -0.646 OA
HETATM   24  O4  UNL     1       7.649  20.096  51.893  1.00  0.00    -0.646 OA
ENDBRANCH  19  22
ENDBRANCH   8  15
BRANCH  13  25
HETATM   25  C19 UNL     1       9.554  23.204  44.797  1.00  0.00     0.037 C 
HETATM   26  C20 UNL     1      10.873  23.827  44.520  1.00  0.00     0.035 C 
HETATM   27  C21 UNL     1      10.566  24.513  43.174  1.00  0.00     0.168 C 
HETATM   28  O7  UNL     1       9.450  23.840  42.654  1.00  0.00    -0.391 OA
HETATM   29  C22 UNL     1       9.381  22.621  43.371  1.00  0.00     0.174 C 
ENDBRANCH  13  25
BRANCH   1  30
HETATM   30  C3  UNL     1      11.895  19.918  45.324  1.00  0.00     0.218 C 
HETATM   31  C4  UNL     1      11.374  19.621  43.951  1.00  0.00     0.043 C 
BRANCH  30  32
HETATM   32  C2  UNL     1      12.469  18.640  45.878  1.00  0.00     0.031 C 
HETATM   33  C1  UNL     1      12.718  17.688  44.733  1.00  0.00     0.007 C 
ENDBRANCH  30  32
ENDBRANCH   1  30
TORSDOF 5
ENDMDL
MODEL 4
REMARK VINA RESULT: -7.723204909      2.944      6.481
REMARK  5 active torsions:
REMARK  status: ('A' for Active; 'I' for Inactive)
REMARK    1  A    between atoms: C2_2  and  C3_3 
REMARK    2  A    between atoms: C3_3  and  N1_5 
REMARK    3  A    between atoms: C10_12  and  C11_13 
REMARK       I    between atoms: C11_13  and  N2_15 
REMARK    4  A    between atoms: C15_19  and  C16_20 
REMARK    5  A    between atoms: C18_27  and  C19_28 
ROOT
HETATM    1  N1  UNL     1      10.758  23.252  45.878  1.00  0.00     0.095 N 
HETATM    2  C5  UNL     1      10.316  23.519  47.268  1.00  0.00     0.280 C 
HETATM    3  C6  UNL     1       9.633  22.249  47.524  1.00  0.00     0.052 C 
HETATM    4  C7  UNL     1       9.092  21.753  48.722  1.00  0.00     0.015 C 
HETATM    5  C8  UNL     1       8.484  22.707  49.746  1.00  0.00     0.179 C 
HETATM    6  O1  UNL     1       8.027  21.848  50.760  1.00  0.00    -0.389 OA
HETATM    7  C9  UNL     1       8.885  20.779  50.853  1.00  0.00     0.182 C 
HETATM    8  C10 UNL     1       9.880  20.883  49.666  1.00  0.00     0.114 C 
HETATM    9  C17 UNL     1       7.926  20.799  48.344  1.00  0.00     0.154 C 
HETATM   10  S1  UNL     1       8.311  20.470  46.604  1.00  0.00     0.156 S 
HETATM   11  O5  UNL     1       9.526  19.635  46.526  1.00  0.00    -0.227 OA
HETATM   12  O6  UNL     1       7.144  19.991  45.879  1.00  0.00    -0.227 OA
HETATM   13  C18 UNL     1       8.701  22.218  46.328  1.00  0.00     0.102 C 
HETATM   14  C23 UNL     1       9.714  22.445  45.279  1.00  0.00     0.299 C 
ENDROOT
BRANCH   8  15
HETATM   15  C11 UNL     1      11.122  21.309  50.221  1.00  0.00     0.227 C 
HETATM   16  O2  UNL     1      11.393  22.325  50.908  1.00  0.00    -0.273 OA
HETATM   17  N2  UNL     1      12.266  20.499  49.993  1.00  0.00    -0.337 N 
HETATM   18  C12 UNL     1      13.631  20.730  50.444  1.00  0.00     0.127 C 
HETATM   19  C15 UNL     1      12.341  19.264  49.249  1.00  0.00     0.188 C 
HETATM   20  C13 UNL     1      14.497  20.259  49.305  1.00  0.00     0.022 C 
HETATM   21  C14 UNL     1      13.572  19.497  48.356  1.00  0.00     0.038 C 
BRANCH  19  22
HETATM   22  C16 UNL     1      12.515  18.054  50.060  1.00  0.00     0.196 C 
HETATM   23  O3  UNL     1      12.849  16.963  49.531  1.00  0.00    -0.646 OA
HETATM   24  O4  UNL     1      12.326  18.046  51.428  1.00  0.00    -0.646 OA
ENDBRANCH  19  22
ENDBRANCH   8  15
BRANCH  13  25
HETATM   25  C19 UNL     1       7.465  22.904  46.286  1.00  0.00     0.037 C 
HETATM   26  C20 UNL     1       7.246  24.308  46.717  1.00  0.00     0.035 C 
HETATM   27  C21 UNL     1       5.898  24.591  46.025  1.00  0.00     0.168 C 
HETATM   28  O7  UNL     1       5.800  23.650  44.990  1.00  0.00    -0.391 OA
HETATM   29  C22 UNL     1       7.117  23.166  44.799  1.00  0.00     0.174 C 
ENDBRANCH  13  25
BRANCH   1  30
HETATM   30  C3  UNL     1      11.065  24.415  45.143  1.00  0.00     0.218 C 
HETATM   31  C4  UNL     1      11.973  24.064  44.005  1.00  0.00     0.043 C 
BRANCH  30  32
HETATM   32  C2  UNL     1      11.764  25.456  45.978  1.00  0.00     0.031 C 
HETATM   33  C1  UNL     1      11.167  26.806  45.663  1.00  0.00     0.007 C 
ENDBRANCH  30  32
ENDBRANCH   1  30
TORSDOF 5
ENDMDL
MODEL 5
REMARK VINA RESULT: -7.688116420      3.139      5.207
REMARK  5 active torsions:
REMARK  status: ('A' for Active; 'I' for Inactive)
REMARK    1  A    between atoms: C2_2  and  C3_3 
REMARK    2  A    between atoms: C3_3  and  N1_5 
REMARK    3  A    between atoms: C10_12  and  C11_13 
REMARK       I    between atoms: C11_13  and  N2_15 
REMARK    4  A    between atoms: C15_19  and  C16_20 
REMARK    5  A    between atoms: C18_27  and  C19_28 
ROOT
HETATM    1  N1  UNL     1      11.077  21.367  47.836  1.00  0.00     0.095 N 
HETATM    2  C5  UNL     1       9.863  21.288  46.988  1.00  0.00     0.280 C 
HETATM    3  C6  UNL     1       9.086  22.354  47.625  1.00  0.00     0.052 C 
HETATM    4  C7  UNL     1       7.866  22.926  47.230  1.00  0.00     0.015 C 
HETATM    5  C8  UNL     1       6.812  22.080  46.521  1.00  0.00     0.179 C 
HETATM    6  O1  UNL     1       5.746  22.978  46.332  1.00  0.00    -0.389 OA
HETATM    7  C9  UNL     1       6.262  24.232  46.109  1.00  0.00     0.182 C 
HETATM    8  C10 UNL     1       7.792  24.153  46.357  1.00  0.00     0.114 C 
HETATM    9  C17 UNL     1       7.154  23.434  48.514  1.00  0.00     0.154 C 
HETATM   10  S1  UNL     1       8.547  23.483  49.672  1.00  0.00     0.156 S 
HETATM   11  O5  UNL     1       9.460  24.577  49.287  1.00  0.00    -0.227 OA
HETATM   12  O6  UNL     1       8.093  23.471  51.054  1.00  0.00    -0.227 OA
HETATM   13  C18 UNL     1       9.147  21.885  49.066  1.00  0.00     0.102 C 
HETATM   14  C23 UNL     1      10.611  21.723  49.161  1.00  0.00     0.299 C 
ENDROOT
BRANCH   8  15
HETATM   15  C11 UNL     1       8.409  24.199  45.073  1.00  0.00     0.227 C 
HETATM   16  O2  UNL     1       8.049  23.684  43.986  1.00  0.00    -0.273 OA
HETATM   17  N2  UNL     1       9.622  24.925  44.943  1.00  0.00    -0.337 N 
HETATM   18  C12 UNL     1      10.435  25.106  43.748  1.00  0.00     0.127 C 
HETATM   19  C15 UNL     1      10.336  25.644  45.971  1.00  0.00     0.188 C 
HETATM   20  C13 UNL     1      11.857  25.064  44.241  1.00  0.00     0.022 C 
HETATM   21  C14 UNL     1      11.781  25.155  45.765  1.00  0.00     0.038 C 
BRANCH  19  22
HETATM   22  C16 UNL     1      10.270  27.107  45.874  1.00  0.00     0.196 C 
HETATM   23  O3  UNL     1       9.164  27.705  45.876  1.00  0.00    -0.646 OA
HETATM   24  O4  UNL     1      11.400  27.895  45.778  1.00  0.00    -0.646 OA
ENDBRANCH  19  22
ENDBRANCH   8  15
BRANCH  13  25
HETATM   25  C19 UNL     1       8.285  20.901  49.602  1.00  0.00     0.037 C 
HETATM   26  C20 UNL     1       7.913  19.627  48.935  1.00  0.00     0.035 C 
HETATM   27  C21 UNL     1       7.372  18.841  50.145  1.00  0.00     0.168 C 
HETATM   28  O7  UNL     1       7.929  19.459  51.275  1.00  0.00    -0.391 OA
HETATM   29  C22 UNL     1       9.016  20.222  50.787  1.00  0.00     0.174 C 
ENDBRANCH  13  25
BRANCH   1  30
HETATM   30  C3  UNL     1      11.869  20.201  47.809  1.00  0.00     0.218 C 
HETATM   31  C4  UNL     1      11.059  19.056  47.285  1.00  0.00     0.043 C 
BRANCH  30  32
HETATM   32  C2  UNL     1      12.372  19.815  49.175  1.00  0.00     0.031 C 
HETATM   33  C1  UNL     1      13.879  19.918  49.180  1.00  0.00     0.007 C 
ENDBRANCH  30  32
ENDBRANCH   1  30
TORSDOF 5
ENDMDL
