MODEL 1
REMARK VINA RESULT: -10.292205260      0.000      0.000
REMARK  5 active torsions:
REMARK  status: ('A' for Active; 'I' for Inactive)
REMARK    1  A    between atoms: C2_2  and  O2_4 
REMARK    2  A    between atoms: O2_4  and  C3_5 
REMARK    3  A    between atoms: C6_8  and  O3_9 
REMARK    4  A    between atoms: N1_13  and  N2_15 
REMARK    5  A    between atoms: N2_15  and  C9_17 
ROOT
HETATM    1  C3  UNL     1      88.792  38.861  12.313  1.00  0.00     0.133 C 
HETATM    2  C4  UNL     1      88.399  40.109  11.589  1.00  0.00     0.035 C 
HETATM    3  C5  UNL     1      89.505  41.173  11.623  1.00  0.00     0.042 C 
HETATM    4  C6  UNL     1      89.782  41.428  13.065  1.00  0.00     0.074 C 
HETATM    5  C7  UNL     1      90.584  42.662  13.328  1.00  0.00     0.097 C 
HETATM    6  C8  UNL     1      90.595  42.831  14.847  1.00  0.00     0.028 C 
HETATM    7  N1  UNL     1      90.375  43.964  15.330  1.00  0.00    -0.304 N 
ATOM      8  H1  UNL     1      90.210  44.681  14.624  1.00  0.00     0.186 HD
HETATM    9  C15 UNL     1      90.864  41.634  15.625  1.00  0.00     0.023 C 
HETATM   10  C16 UNL     1      90.810  40.452  15.046  1.00  0.00    -0.012 C 
HETATM   11  C17 UNL     1      90.489  40.200  13.630  1.00  0.00     0.007 C 
HETATM   12  C18 UNL     1      91.731  39.876  12.831  1.00  0.00     0.023 C 
HETATM   13  C19 UNL     1      89.555  39.047  13.572  1.00  0.00     0.049 C 
ENDROOT
BRANCH   7  14
HETATM   14  N2  UNL     1      90.312  44.431  16.586  1.00  0.00    -0.301 N 
ATOM     15  H2  UNL     1      89.412  44.808  16.882  1.00  0.00     0.187 HD
BRANCH  14  16
HETATM   16  C9  UNL     1      91.373  44.460  17.569  1.00  0.00     0.051 A 
HETATM   17  C10 UNL     1      91.060  44.928  18.819  1.00  0.00     0.056 A 
HETATM   18  C11 UNL     1      92.005  44.985  19.796  1.00  0.00     0.059 A 
HETATM   19 CL1  UNL     1      91.546  45.598  21.393  1.00  0.00    -0.082 Cl
HETATM   20  C12 UNL     1      93.290  44.577  19.552  1.00  0.00     0.077 A 
HETATM   21 CL2  UNL     1      94.535  44.636  20.807  1.00  0.00    -0.081 Cl
HETATM   22  C13 UNL     1      93.631  44.100  18.296  1.00  0.00     0.059 A 
HETATM   23 CL3  UNL     1      95.264  43.579  17.954  1.00  0.00    -0.082 Cl
HETATM   24  C14 UNL     1      92.648  44.048  17.305  1.00  0.00     0.056 A 
ENDBRANCH  14  16
ENDBRANCH   7  14
BRANCH   4  25
HETATM   25  O3  UNL     1      88.576  41.546  13.736  1.00  0.00    -0.388 OA
ATOM     26  H3  UNL     1      88.223  40.676  13.884  1.00  0.00     0.210 HD
ENDBRANCH   4  25
BRANCH   1  27
HETATM   27  O2  UNL     1      87.564  38.220  12.704  1.00  0.00    -0.316 OA
BRANCH  27  28
HETATM   28  C2  UNL     1      87.451  36.843  12.659  1.00  0.00     0.255 C 
HETATM   29  C1  UNL     1      88.606  35.931  12.836  1.00  0.00     0.126 C 
HETATM   30  O1  UNL     1      86.276  36.385  12.451  1.00  0.00    -0.266 OA
ENDBRANCH  27  28
ENDBRANCH   1  27
TORSDOF 5
ENDMDL
MODEL 2
REMARK VINA RESULT: -10.007945032      0.130      1.744
REMARK  5 active torsions:
REMARK  status: ('A' for Active; 'I' for Inactive)
REMARK    1  A    between atoms: C2_2  and  O2_4 
REMARK    2  A    between atoms: O2_4  and  C3_5 
REMARK    3  A    between atoms: C6_8  and  O3_9 
REMARK    4  A    between atoms: N1_13  and  N2_15 
REMARK    5  A    between atoms: N2_15  and  C9_17 
ROOT
HETATM    1  C3  UNL     1      88.824  38.913  12.300  1.00  0.00     0.133 C 
HETATM    2  C4  UNL     1      88.493  40.169  11.559  1.00  0.00     0.035 C 
HETATM    3  C5  UNL     1      89.619  41.208  11.644  1.00  0.00     0.042 C 
HETATM    4  C6  UNL     1      89.833  41.459  13.098  1.00  0.00     0.074 C 
HETATM    5  C7  UNL     1      90.649  42.676  13.399  1.00  0.00     0.097 C 
HETATM    6  C8  UNL     1      90.592  42.846  14.916  1.00  0.00     0.028 C 
HETATM    7  N1  UNL     1      90.374  43.984  15.389  1.00  0.00    -0.304 N 
ATOM      8  H1  UNL     1      90.258  44.703  14.675  1.00  0.00     0.186 HD
HETATM    9  C15 UNL     1      90.798  41.644  15.707  1.00  0.00     0.023 C 
HETATM   10  C16 UNL     1      90.745  40.463  15.126  1.00  0.00    -0.012 C 
HETATM   11  C17 UNL     1      90.486  40.216  13.696  1.00  0.00     0.007 C 
HETATM   12  C18 UNL     1      91.758  39.865  12.956  1.00  0.00     0.023 C 
HETATM   13  C19 UNL     1      89.531  39.084  13.594  1.00  0.00     0.049 C 
ENDROOT
BRANCH   7  14
HETATM   14  N2  UNL     1      90.262  44.454  16.640  1.00  0.00    -0.301 N 
ATOM     15  H2  UNL     1      89.341  44.796  16.912  1.00  0.00     0.187 HD
BRANCH  14  16
HETATM   16  C9  UNL     1      91.297  44.529  17.649  1.00  0.00     0.051 A 
HETATM   17  C10 UNL     1      92.550  44.099  17.297  1.00  0.00     0.056 A 
HETATM   18  C11 UNL     1      93.574  44.141  18.192  1.00  0.00     0.059 A 
HETATM   19 CL1  UNL     1      95.174  43.574  17.685  1.00  0.00    -0.082 Cl
HETATM   20  C12 UNL     1      93.375  44.611  19.463  1.00  0.00     0.077 A 
HETATM   21 CL2  UNL     1      94.692  44.678  20.643  1.00  0.00    -0.081 Cl
HETATM   22  C13 UNL     1      92.117  45.050  19.843  1.00  0.00     0.059 A 
HETATM   23 CL3  UNL     1      91.831  45.648  21.460  1.00  0.00    -0.082 Cl
HETATM   24  C14 UNL     1      91.077  45.002  18.911  1.00  0.00     0.056 A 
ENDBRANCH  14  16
ENDBRANCH   7  14
BRANCH   4  25
HETATM   25  O3  UNL     1      88.600  41.604  13.711  1.00  0.00    -0.388 OA
ATOM     26  H3  UNL     1      88.737  41.877  14.611  1.00  0.00     0.210 HD
ENDBRANCH   4  25
BRANCH   1  27
HETATM   27  O2  UNL     1      87.565  38.300  12.633  1.00  0.00    -0.316 OA
BRANCH  27  28
HETATM   28  C2  UNL     1      87.444  36.922  12.650  1.00  0.00     0.255 C 
HETATM   29  C1  UNL     1      88.593  36.013  12.875  1.00  0.00     0.126 C 
HETATM   30  O1  UNL     1      86.268  36.463  12.458  1.00  0.00    -0.266 OA
ENDBRANCH  27  28
ENDBRANCH   1  27
TORSDOF 5
ENDMDL
MODEL 3
REMARK VINA RESULT: -9.439613589      1.713      2.643
REMARK  5 active torsions:
REMARK  status: ('A' for Active; 'I' for Inactive)
REMARK    1  A    between atoms: C2_2  and  O2_4 
REMARK    2  A    between atoms: O2_4  and  C3_5 
REMARK    3  A    between atoms: C6_8  and  O3_9 
REMARK    4  A    between atoms: N1_13  and  N2_15 
REMARK    5  A    between atoms: N2_15  and  C9_17 
ROOT
HETATM    1  C3  UNL     1      89.161  37.869  11.941  1.00  0.00     0.133 C 
HETATM    2  C4  UNL     1      88.152  38.121  13.016  1.00  0.00     0.035 C 
HETATM    3  C5  UNL     1      87.833  39.613  13.176  1.00  0.00     0.042 C 
HETATM    4  C6  UNL     1      89.135  40.280  13.466  1.00  0.00     0.074 C 
HETATM    5  C7  UNL     1      89.010  41.677  13.983  1.00  0.00     0.097 C 
HETATM    6  C8  UNL     1      90.423  42.099  14.381  1.00  0.00     0.028 C 
HETATM    7  N1  UNL     1      90.596  42.673  15.479  1.00  0.00    -0.304 N 
ATOM      8  H1  UNL     1      89.734  42.804  16.007  1.00  0.00     0.186 HD
HETATM    9  C15 UNL     1      91.478  41.789  13.431  1.00  0.00     0.023 C 
HETATM   10  C16 UNL     1      91.243  40.949  12.444  1.00  0.00    -0.012 C 
HETATM   11  C17 UNL     1      89.968  40.256  12.187  1.00  0.00     0.007 C 
HETATM   12  C18 UNL     1      89.214  40.890  11.040  1.00  0.00     0.023 C 
HETATM   13  C19 UNL     1      90.276  38.842  11.849  1.00  0.00     0.049 C 
ENDROOT
BRANCH   7  14
HETATM   14  N2  UNL     1      91.682  43.151  16.105  1.00  0.00    -0.301 N 
ATOM     15  H2  UNL     1      92.576  42.992  15.642  1.00  0.00     0.187 HD
BRANCH  14  16
HETATM   16  C9  UNL     1      91.730  43.866  17.362  1.00  0.00     0.051 A 
HETATM   17  C10 UNL     1      92.632  43.433  18.299  1.00  0.00     0.056 A 
HETATM   18  C11 UNL     1      92.736  44.056  19.504  1.00  0.00     0.059 A 
HETATM   19 CL1  UNL     1      93.918  43.454  20.677  1.00  0.00    -0.082 Cl
HETATM   20  C12 UNL     1      91.940  45.128  19.807  1.00  0.00     0.077 A 
HETATM   21 CL2  UNL     1      92.059  45.958  21.366  1.00  0.00    -0.081 Cl
HETATM   22  C13 UNL     1      91.020  45.586  18.878  1.00  0.00     0.059 A 
HETATM   23 CL3  UNL     1      89.987  46.948  19.241  1.00  0.00    -0.082 Cl
HETATM   24  C14 UNL     1      90.927  44.935  17.645  1.00  0.00     0.056 A 
ENDBRANCH  14  16
ENDBRANCH   7  14
BRANCH   4  25
HETATM   25  O3  UNL     1      89.819  39.530  14.409  1.00  0.00    -0.388 OA
ATOM     26  H3  UNL     1      90.726  39.812  14.423  1.00  0.00     0.210 HD
ENDBRANCH   4  25
BRANCH   1  27
HETATM   27  O2  UNL     1      89.781  36.609  12.259  1.00  0.00    -0.316 OA
BRANCH  27  28
HETATM   28  C2  UNL     1      89.721  35.557  11.365  1.00  0.00     0.255 C 
HETATM   29  C1  UNL     1      88.565  34.632  11.281  1.00  0.00     0.126 C 
HETATM   30  O1  UNL     1      90.733  35.417  10.597  1.00  0.00    -0.266 OA
ENDBRANCH  27  28
ENDBRANCH   1  27
TORSDOF 5
ENDMDL
MODEL 4
REMARK VINA RESULT: -9.313350695      6.643     10.236
REMARK  5 active torsions:
REMARK  status: ('A' for Active; 'I' for Inactive)
REMARK    1  A    between atoms: C2_2  and  O2_4 
REMARK    2  A    between atoms: O2_4  and  C3_5 
REMARK    3  A    between atoms: C6_8  and  O3_9 
REMARK    4  A    between atoms: N1_13  and  N2_15 
REMARK    5  A    between atoms: N2_15  and  C9_17 
ROOT
HETATM    1  C3  UNL     1      89.805  41.386  13.399  1.00  0.00     0.133 C 
HETATM    2  C4  UNL     1      91.107  40.655  13.318  1.00  0.00     0.035 C 
HETATM    3  C5  UNL     1      91.091  39.554  12.249  1.00  0.00     0.042 C 
HETATM    4  C6  UNL     1      89.965  38.648  12.614  1.00  0.00     0.074 C 
HETATM    5  C7  UNL     1      89.978  37.333  11.901  1.00  0.00     0.097 C 
HETATM    6  C8  UNL     1      88.869  36.504  12.545  1.00  0.00     0.028 C 
HETATM    7  N1  UNL     1      89.104  35.313  12.852  1.00  0.00    -0.304 N 
ATOM      8  H1  UNL     1      90.052  35.017  12.624  1.00  0.00     0.186 HD
HETATM    9  C15 UNL     1      87.600  37.180  12.756  1.00  0.00     0.023 C 
HETATM   10  C16 UNL     1      87.535  38.492  12.657  1.00  0.00    -0.012 C 
HETATM   11  C17 UNL     1      88.660  39.390  12.342  1.00  0.00     0.007 C 
HETATM   12  C18 UNL     1      88.600  39.871  10.910  1.00  0.00     0.023 C 
HETATM   13  C19 UNL     1      88.581  40.559  13.256  1.00  0.00     0.049 C 
ENDROOT
BRANCH   7  14
HETATM   14  N2  UNL     1      88.366  34.348  13.419  1.00  0.00    -0.301 N 
ATOM     15  H2  UNL     1      88.687  34.010  14.327  1.00  0.00     0.187 HD
BRANCH  14  16
HETATM   16  C9  UNL     1      87.168  33.730  12.893  1.00  0.00     0.051 A 
HETATM   17  C10 UNL     1      86.005  33.918  13.592  1.00  0.00     0.056 A 
HETATM   18  C11 UNL     1      84.838  33.368  13.158  1.00  0.00     0.059 A 
HETATM   19 CL1  UNL     1      83.363  33.642  14.099  1.00  0.00    -0.082 Cl
HETATM   20  C12 UNL     1      84.802  32.615  12.014  1.00  0.00     0.077 A 
HETATM   21 CL2  UNL     1      83.296  31.894  11.428  1.00  0.00    -0.081 Cl
HETATM   22  C13 UNL     1      85.965  32.411  11.290  1.00  0.00     0.059 A 
HETATM   23 CL3  UNL     1      85.950  31.448   9.832  1.00  0.00    -0.082 Cl
HETATM   24  C14 UNL     1      87.154  32.982  11.750  1.00  0.00     0.056 A 
ENDBRANCH  14  16
ENDBRANCH   7  14
BRANCH   4  25
HETATM   25  O3  UNL     1      90.016  38.401  13.976  1.00  0.00    -0.388 OA
ATOM     26  H3  UNL     1      89.137  38.212  14.284  1.00  0.00     0.210 HD
ENDBRANCH   4  25
BRANCH   1  27
HETATM   27  O2  UNL     1      89.736  41.938  14.727  1.00  0.00    -0.316 OA
BRANCH  27  28
HETATM   28  C2  UNL     1      90.422  43.098  15.035  1.00  0.00     0.255 C 
HETATM   29  C1  UNL     1      91.195  43.271  16.289  1.00  0.00     0.126 C 
HETATM   30  O1  UNL     1      90.356  44.034  14.168  1.00  0.00    -0.266 OA
ENDBRANCH  27  28
ENDBRANCH   1  27
TORSDOF 5
ENDMDL
MODEL 5
REMARK VINA RESULT: -9.298601768      6.647     10.378
REMARK  5 active torsions:
REMARK  status: ('A' for Active; 'I' for Inactive)
REMARK    1  A    between atoms: C2_2  and  O2_4 
REMARK    2  A    between atoms: O2_4  and  C3_5 
REMARK    3  A    between atoms: C6_8  and  O3_9 
REMARK    4  A    between atoms: N1_13  and  N2_15 
REMARK    5  A    between atoms: N2_15  and  C9_17 
ROOT
HETATM    1  C3  UNL     1      89.780  41.363  13.377  1.00  0.00     0.133 C 
HETATM    2  C4  UNL     1      91.083  40.632  13.293  1.00  0.00     0.035 C 
HETATM    3  C5  UNL     1      91.060  39.522  12.234  1.00  0.00     0.042 C 
HETATM    4  C6  UNL     1      89.937  38.618  12.616  1.00  0.00     0.074 C 
HETATM    5  C7  UNL     1      89.947  37.297  11.915  1.00  0.00     0.097 C 
HETATM    6  C8  UNL     1      88.842  36.472  12.574  1.00  0.00     0.028 C 
HETATM    7  N1  UNL     1      89.080  35.285  12.890  1.00  0.00    -0.304 N 
ATOM      8  H1  UNL     1      90.027  34.987  12.658  1.00  0.00     0.186 HD
HETATM    9  C15 UNL     1      87.574  37.150  12.788  1.00  0.00     0.023 C 
HETATM   10  C16 UNL     1      87.507  38.461  12.678  1.00  0.00    -0.012 C 
HETATM   11  C17 UNL     1      88.630  39.356  12.346  1.00  0.00     0.007 C 
HETATM   12  C18 UNL     1      88.559  39.824  10.910  1.00  0.00     0.023 C 
HETATM   13  C19 UNL     1      88.556  40.534  13.249  1.00  0.00     0.049 C 
ENDROOT
BRANCH   7  14
HETATM   14  N2  UNL     1      88.348  34.324  13.472  1.00  0.00    -0.301 N 
ATOM     15  H2  UNL     1      88.711  33.948  14.348  1.00  0.00     0.187 HD
BRANCH  14  16
HETATM   16  C9  UNL     1      87.102  33.760  13.000  1.00  0.00     0.051 A 
HETATM   17  C10 UNL     1      87.136  33.054  11.826  1.00  0.00     0.056 A 
HETATM   18  C11 UNL     1      86.004  32.493  11.320  1.00  0.00     0.059 A 
HETATM   19 CL1  UNL     1      86.104  31.591   9.799  1.00  0.00    -0.082 Cl
HETATM   20  C12 UNL     1      84.807  32.623  11.972  1.00  0.00     0.077 A 
HETATM   21 CL2  UNL     1      83.323  31.899  11.337  1.00  0.00    -0.081 Cl
HETATM   22  C13 UNL     1      84.746  33.332  13.161  1.00  0.00     0.059 A 
HETATM   23 CL3  UNL     1      83.231  33.521  14.011  1.00  0.00    -0.082 Cl
HETATM   24  C14 UNL     1      85.918  33.901  13.667  1.00  0.00     0.056 A 
ENDBRANCH  14  16
ENDBRANCH   7  14
BRANCH   4  25
HETATM   25  O3  UNL     1      89.997  38.384  13.980  1.00  0.00    -0.388 OA
ATOM     26  H3  UNL     1      90.750  38.843  14.335  1.00  0.00     0.210 HD
ENDBRANCH   4  25
BRANCH   1  27
HETATM   27  O2  UNL     1      89.720  41.927  14.700  1.00  0.00    -0.316 OA
BRANCH  27  28
HETATM   28  C2  UNL     1      90.412  43.088  14.994  1.00  0.00     0.255 C 
HETATM   29  C1  UNL     1      91.172  43.278  16.253  1.00  0.00     0.126 C 
HETATM   30  O1  UNL     1      90.363  44.008  14.109  1.00  0.00    -0.266 OA
ENDBRANCH  27  28
ENDBRANCH   1  27
TORSDOF 5
ENDMDL
