MODEL 1
REMARK VINA RESULT: -6.569371196      0.000      0.000
REMARK  6 active torsions:
REMARK  status: ('A' for Active; 'I' for Inactive)
REMARK    1  A    between atoms: C2_2  and  C3_3 
REMARK    2  A    between atoms: C3_3  and  C4_4 
REMARK    3  A    between atoms: C4_4  and  C5_5 
REMARK    4  A    between atoms: C5_5  and  C6_6 
REMARK    5  A    between atoms: C8_15  and  C9_16 
REMARK    6  A    between atoms: N5_22  and  C14_23 
ROOT
HETATM    1  C9  UNL     1      38.340  38.813  67.072  1.00  0.00     0.183 C 
HETATM    2  C10 UNL     1      37.502  39.462  66.013  1.00  0.00     0.065 C 
HETATM    3  N4  UNL     1      36.842  39.952  65.172  1.00  0.00    -0.197 NA
ENDROOT
BRANCH   1   4
HETATM    4  C8  UNL     1      37.552  38.777  68.335  1.00  0.00     0.063 A 
HETATM    5  C6  UNL     1      37.906  38.311  69.562  1.00  0.00     0.062 A 
HETATM    6  N1  UNL     1      36.897  38.739  70.408  1.00  0.00    -0.193 N 
HETATM    7  C7  UNL     1      35.980  39.423  69.714  1.00  0.00     0.676 A 
ATOM      8  H1  UNL     1      36.859  38.558  71.411  1.00  0.00     0.184 HD
HETATM    9  N2  UNL     1      34.907  39.982  70.149  1.00  0.00    -0.234 N 
HETATM   10  N3  UNL     1      36.363  39.455  68.438  1.00  0.00    -0.193 N 
ATOM     11  H22 UNL     1      34.614  39.958  71.126  1.00  0.00     0.174 HD
ATOM     12  H21 UNL     1      34.208  40.504  69.620  1.00  0.00     0.174 HD
ATOM     13  H3  UNL     1      35.861  39.904  67.673  1.00  0.00     0.184 HD
BRANCH   5  14
HETATM   14  C5  UNL     1      38.984  37.364  69.963  1.00  0.00     0.041 C 
HETATM   15  C11 UNL     1      38.784  36.992  71.458  1.00  0.00     0.033 C 
HETATM   16  C12 UNL     1      39.421  38.330  71.753  1.00  0.00     0.044 C 
HETATM   17  C16 UNL     1      39.986  36.118  71.722  1.00  0.00     0.279 C 
HETATM   18  C13 UNL     1      40.225  37.995  70.526  1.00  0.00     0.238 C 
HETATM   19  N5  UNL     1      40.977  36.827  70.924  1.00  0.00     0.094 N 
BRANCH  14  20
HETATM   20  C4  UNL     1      39.187  36.137  69.143  1.00  0.00     0.018 C 
BRANCH  20  21
HETATM   21  C3  UNL     1      38.078  35.348  68.605  1.00  0.00     0.001 C 
BRANCH  21  22
HETATM   22  C2  UNL     1      37.954  33.975  69.296  1.00  0.00    -0.005 C 
HETATM   23  C1  UNL     1      36.635  33.389  68.883  1.00  0.00     0.005 C 
ENDBRANCH  21  22
ENDBRANCH  20  21
ENDBRANCH  14  20
BRANCH  19  24
HETATM   24  C14 UNL     1      42.194  37.073  71.617  1.00  0.00     0.268 C 
HETATM   25  C15 UNL     1      42.914  38.240  70.921  1.00  0.00     0.037 C 
ENDBRANCH  19  24
ENDBRANCH   5  14
ENDBRANCH   1   4
TORSDOF 6
ENDMDL
MODEL 2
REMARK VINA RESULT: -6.452061417      2.025      4.147
REMARK  6 active torsions:
REMARK  status: ('A' for Active; 'I' for Inactive)
REMARK    1  A    between atoms: C2_2  and  C3_3 
REMARK    2  A    between atoms: C3_3  and  C4_4 
REMARK    3  A    between atoms: C4_4  and  C5_5 
REMARK    4  A    between atoms: C5_5  and  C6_6 
REMARK    5  A    between atoms: C8_15  and  C9_16 
REMARK    6  A    between atoms: N5_22  and  C14_23 
ROOT
HETATM    1  C9  UNL     1      37.225  39.102  69.636  1.00  0.00     0.183 C 
HETATM    2  C10 UNL     1      36.208  39.883  68.859  1.00  0.00     0.065 C 
HETATM    3  N4  UNL     1      35.422  40.513  68.253  1.00  0.00    -0.197 NA
ENDROOT
BRANCH   1   4
HETATM    4  C8  UNL     1      37.959  38.218  68.690  1.00  0.00     0.063 A 
HETATM    5  C6  UNL     1      38.522  37.000  68.903  1.00  0.00     0.062 A 
HETATM    6  N1  UNL     1      38.853  36.536  67.643  1.00  0.00    -0.193 N 
HETATM    7  C7  UNL     1      38.509  37.440  66.719  1.00  0.00     0.676 A 
ATOM      8  H1  UNL     1      39.294  35.637  67.447  1.00  0.00     0.184 HD
HETATM    9  N2  UNL     1      38.648  37.368  65.443  1.00  0.00    -0.234 N 
HETATM   10  N3  UNL     1      37.961  38.483  67.343  1.00  0.00    -0.193 N 
ATOM     11  H22 UNL     1      39.067  36.570  64.965  1.00  0.00     0.174 HD
ATOM     12  H21 UNL     1      38.386  38.058  64.738  1.00  0.00     0.174 HD
ATOM     13  H3  UNL     1      37.606  39.329  66.898  1.00  0.00     0.184 HD
BRANCH   5  14
HETATM   14  C5  UNL     1      38.935  36.335  70.171  1.00  0.00     0.041 C 
HETATM   15  C11 UNL     1      39.021  34.804  69.921  1.00  0.00     0.033 C 
HETATM   16  C12 UNL     1      37.516  34.817  70.054  1.00  0.00     0.044 C 
HETATM   17  C16 UNL     1      39.354  34.284  71.299  1.00  0.00     0.279 C 
HETATM   18  C13 UNL     1      37.813  35.890  71.065  1.00  0.00     0.238 C 
HETATM   19  N5  UNL     1      38.540  35.188  72.099  1.00  0.00     0.094 N 
BRANCH  14  20
HETATM   20  C4  UNL     1      40.165  36.822  70.857  1.00  0.00     0.018 C 
BRANCH  20  21
HETATM   21  C3  UNL     1      40.296  38.183  71.380  1.00  0.00     0.001 C 
BRANCH  21  22
HETATM   22  C2  UNL     1      40.126  38.234  72.912  1.00  0.00    -0.005 C 
HETATM   23  C1  UNL     1      38.746  38.758  73.187  1.00  0.00     0.005 C 
ENDBRANCH  21  22
ENDBRANCH  20  21
ENDBRANCH  14  20
BRANCH  19  24
HETATM   24  C14 UNL     1      37.751  34.525  73.078  1.00  0.00     0.268 C 
HETATM   25  C15 UNL     1      36.796  35.557  73.703  1.00  0.00     0.037 C 
ENDBRANCH  19  24
ENDBRANCH   5  14
ENDBRANCH   1   4
TORSDOF 6
ENDMDL
MODEL 3
REMARK VINA RESULT: -6.329778395      1.066      3.331
REMARK  6 active torsions:
REMARK  status: ('A' for Active; 'I' for Inactive)
REMARK    1  A    between atoms: C2_2  and  C3_3 
REMARK    2  A    between atoms: C3_3  and  C4_4 
REMARK    3  A    between atoms: C4_4  and  C5_5 
REMARK    4  A    between atoms: C5_5  and  C6_6 
REMARK    5  A    between atoms: C8_15  and  C9_16 
REMARK    6  A    between atoms: N5_22  and  C14_23 
ROOT
HETATM    1  C9  UNL     1      38.358  38.588  67.100  1.00  0.00     0.183 C 
HETATM    2  C10 UNL     1      37.609  39.347  66.048  1.00  0.00     0.065 C 
HETATM    3  N4  UNL     1      37.016  39.924  65.212  1.00  0.00    -0.197 NA
ENDROOT
BRANCH   1   4
HETATM    4  C8  UNL     1      37.562  38.619  68.357  1.00  0.00     0.063 A 
HETATM    5  C6  UNL     1      37.886  38.172  69.599  1.00  0.00     0.062 A 
HETATM    6  N1  UNL     1      36.893  38.665  70.425  1.00  0.00    -0.193 N 
HETATM    7  C7  UNL     1      36.011  39.371  69.707  1.00  0.00     0.676 A 
ATOM      8  H1  UNL     1      36.840  38.514  71.432  1.00  0.00     0.184 HD
HETATM    9  N2  UNL     1      34.961  39.988  70.119  1.00  0.00    -0.234 N 
HETATM   10  N3  UNL     1      36.404  39.352  68.433  1.00  0.00    -0.193 N 
ATOM     11  H22 UNL     1      34.661  40.002  71.094  1.00  0.00     0.174 HD
ATOM     12  H21 UNL     1      34.289  40.526  69.571  1.00  0.00     0.174 HD
ATOM     13  H3  UNL     1      35.927  39.802  67.652  1.00  0.00     0.184 HD
BRANCH   5  14
HETATM   14  C5  UNL     1      38.919  37.188  70.033  1.00  0.00     0.041 C 
HETATM   15  C11 UNL     1      39.058  36.101  68.933  1.00  0.00     0.033 C 
HETATM   16  C12 UNL     1      37.799  35.510  69.523  1.00  0.00     0.044 C 
HETATM   17  C16 UNL     1      40.054  35.154  69.559  1.00  0.00     0.279 C 
HETATM   18  C13 UNL     1      38.404  36.008  70.807  1.00  0.00     0.238 C 
HETATM   19  N5  UNL     1      39.607  35.218  70.943  1.00  0.00     0.094 N 
BRANCH  14  20
HETATM   20  C4  UNL     1      40.258  37.701  70.434  1.00  0.00     0.018 C 
BRANCH  20  21
HETATM   21  C3  UNL     1      40.497  38.394  71.701  1.00  0.00     0.001 C 
BRANCH  21  22
HETATM   22  C2  UNL     1      41.893  38.086  72.278  1.00  0.00    -0.005 C 
HETATM   23  C1  UNL     1      42.861  38.109  71.130  1.00  0.00     0.005 C 
ENDBRANCH  21  22
ENDBRANCH  20  21
ENDBRANCH  14  20
BRANCH  19  24
HETATM   24  C14 UNL     1      39.450  33.940  71.549  1.00  0.00     0.268 C 
HETATM   25  C15 UNL     1      38.784  34.139  72.920  1.00  0.00     0.037 C 
ENDBRANCH  19  24
ENDBRANCH   5  14
ENDBRANCH   1   4
TORSDOF 6
ENDMDL
MODEL 4
REMARK VINA RESULT: -6.313982984      1.571      2.489
REMARK  6 active torsions:
REMARK  status: ('A' for Active; 'I' for Inactive)
REMARK    1  A    between atoms: C2_2  and  C3_3 
REMARK    2  A    between atoms: C3_3  and  C4_4 
REMARK    3  A    between atoms: C4_4  and  C5_5 
REMARK    4  A    between atoms: C5_5  and  C6_6 
REMARK    5  A    between atoms: C8_15  and  C9_16 
REMARK    6  A    between atoms: N5_22  and  C14_23 
ROOT
HETATM    1  C9  UNL     1      38.568  38.913  69.375  1.00  0.00     0.183 C 
HETATM    2  C10 UNL     1      37.280  39.291  68.708  1.00  0.00     0.065 C 
HETATM    3  N4  UNL     1      36.273  39.573  68.170  1.00  0.00    -0.197 NA
ENDROOT
BRANCH   1   4
HETATM    4  C8  UNL     1      38.249  38.156  70.616  1.00  0.00     0.063 A 
HETATM    5  C6  UNL     1      39.083  37.532  71.488  1.00  0.00     0.062 A 
HETATM    6  N1  UNL     1      38.286  37.203  72.570  1.00  0.00    -0.193 N 
HETATM    7  C7  UNL     1      37.029  37.608  72.349  1.00  0.00     0.676 A 
ATOM      8  H1  UNL     1      38.608  36.724  73.410  1.00  0.00     0.184 HD
HETATM    9  N2  UNL     1      36.008  37.490  73.122  1.00  0.00    -0.234 N 
HETATM   10  N3  UNL     1      36.986  38.193  71.152  1.00  0.00    -0.193 N 
ATOM     11  H22 UNL     1      36.042  37.042  74.038  1.00  0.00     0.174 HD
ATOM     12  H21 UNL     1      35.050  37.798  72.954  1.00  0.00     0.174 HD
ATOM     13  H3  UNL     1      36.159  38.596  70.713  1.00  0.00     0.184 HD
BRANCH   5  14
HETATM   14  C5  UNL     1      40.487  37.063  71.315  1.00  0.00     0.041 C 
HETATM   15  C11 UNL     1      41.078  36.744  72.715  1.00  0.00     0.033 C 
HETATM   16  C12 UNL     1      41.263  38.237  72.848  1.00  0.00     0.044 C 
HETATM   17  C16 UNL     1      42.503  36.379  72.375  1.00  0.00     0.279 C 
HETATM   18  C13 UNL     1      41.539  38.134  71.373  1.00  0.00     0.238 C 
HETATM   19  N5  UNL     1      42.747  37.342  71.310  1.00  0.00     0.094 N 
BRANCH  14  20
HETATM   20  C4  UNL     1      40.746  35.941  70.370  1.00  0.00     0.018 C 
BRANCH  20  21
HETATM   21  C3  UNL     1      39.794  34.850  70.153  1.00  0.00     0.001 C 
BRANCH  21  22
HETATM   22  C2  UNL     1      39.119  34.937  68.769  1.00  0.00    -0.005 C 
HETATM   23  C1  UNL     1      37.638  34.849  68.994  1.00  0.00     0.005 C 
ENDBRANCH  21  22
ENDBRANCH  20  21
ENDBRANCH  14  20
BRANCH  19  24
HETATM   24  C14 UNL     1      43.970  38.054  71.459  1.00  0.00     0.268 C 
HETATM   25  C15 UNL     1      43.970  39.219  70.455  1.00  0.00     0.037 C 
ENDBRANCH  19  24
ENDBRANCH   5  14
ENDBRANCH   1   4
TORSDOF 6
ENDMDL
MODEL 5
REMARK VINA RESULT: -6.204692474      2.483      4.504
REMARK  6 active torsions:
REMARK  status: ('A' for Active; 'I' for Inactive)
REMARK    1  A    between atoms: C2_2  and  C3_3 
REMARK    2  A    between atoms: C3_3  and  C4_4 
REMARK    3  A    between atoms: C4_4  and  C5_5 
REMARK    4  A    between atoms: C5_5  and  C6_6 
REMARK    5  A    between atoms: C8_15  and  C9_16 
REMARK    6  A    between atoms: N5_22  and  C14_23 
ROOT
HETATM    1  C9  UNL     1      38.255  37.964  68.053  1.00  0.00     0.183 C 
HETATM    2  C10 UNL     1      38.210  37.614  66.596  1.00  0.00     0.065 C 
HETATM    3  N4  UNL     1      38.195  37.345  65.451  1.00  0.00    -0.197 NA
ENDROOT
BRANCH   1   4
HETATM    4  C8  UNL     1      38.208  36.701  68.839  1.00  0.00     0.063 A 
HETATM    5  C6  UNL     1      38.103  36.521  70.182  1.00  0.00     0.062 A 
HETATM    6  N1  UNL     1      37.865  35.168  70.342  1.00  0.00    -0.193 N 
HETATM    7  C7  UNL     1      37.837  34.566  69.147  1.00  0.00     0.676 A 
ATOM      8  H1  UNL     1      37.732  34.698  71.237  1.00  0.00     0.184 HD
HETATM    9  N2  UNL     1      37.635  33.323  68.886  1.00  0.00    -0.234 N 
HETATM   10  N3  UNL     1      38.049  35.491  68.211  1.00  0.00    -0.193 N 
ATOM     11  H22 UNL     1      37.473  32.615  69.602  1.00  0.00     0.174 HD
ATOM     12  H21 UNL     1      37.614  32.864  67.975  1.00  0.00     0.174 HD
ATOM     13  H3  UNL     1      38.086  35.328  67.205  1.00  0.00     0.184 HD
BRANCH   5  14
HETATM   14  C5  UNL     1      38.386  37.456  71.308  1.00  0.00     0.041 C 
HETATM   15  C11 UNL     1      38.192  36.691  72.646  1.00  0.00     0.033 C 
HETATM   16  C12 UNL     1      36.714  36.914  72.422  1.00  0.00     0.044 C 
HETATM   17  C16 UNL     1      38.423  37.783  73.662  1.00  0.00     0.279 C 
HETATM   18  C13 UNL     1      37.200  38.211  71.837  1.00  0.00     0.238 C 
HETATM   19  N5  UNL     1      37.786  38.894  72.969  1.00  0.00     0.094 N 
BRANCH  14  20
HETATM   20  C4  UNL     1      39.683  38.189  71.308  1.00  0.00     0.018 C 
BRANCH  20  21
HETATM   21  C3  UNL     1      40.974  37.518  71.147  1.00  0.00     0.001 C 
BRANCH  21  22
HETATM   22  C2  UNL     1      42.067  38.142  72.037  1.00  0.00    -0.005 C 
HETATM   23  C1  UNL     1      43.226  38.479  71.144  1.00  0.00     0.005 C 
ENDBRANCH  21  22
ENDBRANCH  20  21
ENDBRANCH  14  20
BRANCH  19  24
HETATM   24  C14 UNL     1      36.887  39.634  73.786  1.00  0.00     0.268 C 
HETATM   25  C15 UNL     1      37.147  39.250  75.252  1.00  0.00     0.037 C 
ENDBRANCH  19  24
ENDBRANCH   5  14
ENDBRANCH   1   4
TORSDOF 6
ENDMDL
