MODEL 1
REMARK VINA RESULT: -6.577280845      0.000      0.000
REMARK  9 active torsions:
REMARK  status: ('A' for Active; 'I' for Inactive)
REMARK    1  A    between atoms: C2_2  and  C3_3 
REMARK    2  A    between atoms: C3_3  and  C4_4 
REMARK    3  A    between atoms: C4_4  and  C5_5 
REMARK    4  A    between atoms: C5_5  and  N1_6 
REMARK    5  A    between atoms: N1_6  and  C6_8 
REMARK    6  A    between atoms: C6_8  and  N2_10 
REMARK    7  A    between atoms: N2_10  and  C7_12 
REMARK    8  A    between atoms: C7_12  and  C8_13 
REMARK    9  A    between atoms: C15_20  and  O1_21 
ROOT
HETATM    1  N2  UNL     1      36.589  33.415  68.837  1.00  0.00    -0.366 N 
ATOM      2  H2  UNL     1      36.448  33.213  67.847  1.00  0.00     0.161 HD
ENDROOT
BRANCH   1   3
HETATM    3  C6  UNL     1      37.385  34.517  69.248  1.00  0.00     0.167 C 
HETATM    4  S1  UNL     1      37.576  34.721  70.854  1.00  0.00    -0.041 SA
BRANCH   3   5
HETATM    5  N1  UNL     1      37.976  35.350  68.279  1.00  0.00    -0.367 N 
ATOM      6  H1  UNL     1      37.961  35.043  67.306  1.00  0.00     0.161 HD
BRANCH   5   7
HETATM    7  C5  UNL     1      38.601  36.609  68.584  1.00  0.00     0.122 C 
BRANCH   7   8
HETATM    8  C4  UNL     1      38.004  37.685  67.720  1.00  0.00     0.020 C 
BRANCH   8   9
HETATM    9  C3  UNL     1      38.407  37.534  66.268  1.00  0.00     0.001 C 
BRANCH   9  10
HETATM   10  C2  UNL     1      38.410  38.882  65.597  1.00  0.00    -0.004 C 
HETATM   11  C1  UNL     1      37.124  39.605  65.895  1.00  0.00     0.005 C 
ENDBRANCH   9  10
ENDBRANCH   8   9
ENDBRANCH   7   8
ENDBRANCH   5   7
ENDBRANCH   3   5
ENDBRANCH   1   3
BRANCH   1  12
HETATM   12  C7  UNL     1      35.987  32.590  69.845  1.00  0.00     0.134 C 
BRANCH  12  13
HETATM   13  C8  UNL     1      34.563  32.220  69.586  1.00  0.00     0.002 C 
HETATM   14  C9  UNL     1      34.540  30.695  69.420  1.00  0.00     0.014 C 
HETATM   15  C10 UNL     1      33.118  30.274  69.204  1.00  0.00     0.005 C 
HETATM   16  C11 UNL     1      32.174  31.458  69.301  1.00  0.00    -0.012 C 
HETATM   17  C12 UNL     1      32.369  32.036  70.697  1.00  0.00     0.005 C 
HETATM   18  C14 UNL     1      32.528  32.511  68.269  1.00  0.00     0.037 C 
HETATM   19  C13 UNL     1      33.740  32.614  70.788  1.00  0.00     0.014 C 
HETATM   20  C15 UNL     1      34.013  32.800  68.309  1.00  0.00     0.128 C 
BRANCH  20  21
HETATM   21  O1  UNL     1      34.659  32.150  67.248  1.00  0.00    -0.395 OA
ATOM     22  H1  UNL     1      34.944  32.823  66.640  1.00  0.00     0.210 HD
ENDBRANCH  20  21
ENDBRANCH  12  13
ENDBRANCH   1  12
TORSDOF 9
ENDMDL
MODEL 2
REMARK VINA RESULT: -6.465620626      0.986      1.295
REMARK  9 active torsions:
REMARK  status: ('A' for Active; 'I' for Inactive)
REMARK    1  A    between atoms: C2_2  and  C3_3 
REMARK    2  A    between atoms: C3_3  and  C4_4 
REMARK    3  A    between atoms: C4_4  and  C5_5 
REMARK    4  A    between atoms: C5_5  and  N1_6 
REMARK    5  A    between atoms: N1_6  and  C6_8 
REMARK    6  A    between atoms: C6_8  and  N2_10 
REMARK    7  A    between atoms: N2_10  and  C7_12 
REMARK    8  A    between atoms: C7_12  and  C8_13 
REMARK    9  A    between atoms: C15_20  and  O1_21 
ROOT
HETATM    1  N2  UNL     1      36.652  32.466  69.616  1.00  0.00    -0.366 N 
ATOM      2  H2  UNL     1      37.028  32.430  68.667  1.00  0.00     0.161 HD
ENDROOT
BRANCH   1   3
HETATM    3  C6  UNL     1      37.106  33.444  70.541  1.00  0.00     0.167 C 
HETATM    4  S1  UNL     1      37.023  33.050  72.120  1.00  0.00    -0.041 SA
BRANCH   3   5
HETATM    5  N1  UNL     1      37.614  34.669  70.066  1.00  0.00    -0.367 N 
ATOM      6  H1  UNL     1      38.008  35.322  70.744  1.00  0.00     0.161 HD
BRANCH   5   7
HETATM    7  C5  UNL     1      37.607  35.050  68.679  1.00  0.00     0.122 C 
BRANCH   7   8
HETATM    8  C4  UNL     1      38.655  36.102  68.445  1.00  0.00     0.020 C 
BRANCH   8   9
HETATM    9  C3  UNL     1      38.066  37.372  67.867  1.00  0.00     0.001 C 
BRANCH   9  10
HETATM   10  C2  UNL     1      38.432  37.488  66.412  1.00  0.00    -0.004 C 
HETATM   11  C1  UNL     1      37.972  38.817  65.874  1.00  0.00     0.005 C 
ENDBRANCH   9  10
ENDBRANCH   8   9
ENDBRANCH   7   8
ENDBRANCH   5   7
ENDBRANCH   3   5
ENDBRANCH   1   3
BRANCH   1  12
HETATM   12  C7  UNL     1      35.655  31.528  70.044  1.00  0.00     0.134 C 
BRANCH  12  13
HETATM   13  C8  UNL     1      34.269  31.825  69.572  1.00  0.00     0.002 C 
HETATM   14  C9  UNL     1      33.683  30.490  69.094  1.00  0.00     0.014 C 
HETATM   15  C10 UNL     1      32.272  30.736  68.655  1.00  0.00     0.005 C 
HETATM   16  C11 UNL     1      31.862  32.176  68.898  1.00  0.00    -0.012 C 
HETATM   17  C12 UNL     1      32.018  32.408  70.396  1.00  0.00     0.005 C 
HETATM   18  C14 UNL     1      32.775  33.127  68.146  1.00  0.00     0.037 C 
HETATM   19  C13 UNL     1      33.467  32.344  70.741  1.00  0.00     0.014 C 
HETATM   20  C15 UNL     1      34.222  32.762  68.395  1.00  0.00     0.128 C 
BRANCH  20  21
HETATM   21  O1  UNL     1      34.740  32.068  67.293  1.00  0.00    -0.395 OA
ATOM     22  H1  UNL     1      34.018  31.595  66.895  1.00  0.00     0.210 HD
ENDBRANCH  20  21
ENDBRANCH  12  13
ENDBRANCH   1  12
TORSDOF 9
ENDMDL
MODEL 3
REMARK VINA RESULT: -6.363252305      1.085      1.373
REMARK  9 active torsions:
REMARK  status: ('A' for Active; 'I' for Inactive)
REMARK    1  A    between atoms: C2_2  and  C3_3 
REMARK    2  A    between atoms: C3_3  and  C4_4 
REMARK    3  A    between atoms: C4_4  and  C5_5 
REMARK    4  A    between atoms: C5_5  and  N1_6 
REMARK    5  A    between atoms: N1_6  and  C6_8 
REMARK    6  A    between atoms: C6_8  and  N2_10 
REMARK    7  A    between atoms: N2_10  and  C7_12 
REMARK    8  A    between atoms: C7_12  and  C8_13 
REMARK    9  A    between atoms: C15_20  and  O1_21 
ROOT
HETATM    1  N2  UNL     1      36.825  32.373  70.771  1.00  0.00    -0.366 N 
ATOM      2  H2  UNL     1      37.070  31.385  70.708  1.00  0.00     0.161 HD
ENDROOT
BRANCH   1   3
HETATM    3  C6  UNL     1      37.795  33.379  70.512  1.00  0.00     0.167 C 
HETATM    4  S1  UNL     1      38.647  33.918  71.793  1.00  0.00    -0.041 SA
BRANCH   3   5
HETATM    5  N1  UNL     1      37.988  33.839  69.196  1.00  0.00    -0.367 N 
ATOM      6  H1  UNL     1      38.491  33.236  68.544  1.00  0.00     0.161 HD
BRANCH   5   7
HETATM    7  C5  UNL     1      37.515  35.111  68.718  1.00  0.00     0.122 C 
BRANCH   7   8
HETATM    8  C4  UNL     1      38.687  36.014  68.457  1.00  0.00     0.020 C 
BRANCH   8   9
HETATM    9  C3  UNL     1      38.255  37.372  67.945  1.00  0.00     0.001 C 
BRANCH   9  10
HETATM   10  C2  UNL     1      38.396  37.423  66.448  1.00  0.00    -0.004 C 
HETATM   11  C1  UNL     1      37.890  38.743  65.931  1.00  0.00     0.005 C 
ENDBRANCH   9  10
ENDBRANCH   8   9
ENDBRANCH   7   8
ENDBRANCH   5   7
ENDBRANCH   3   5
ENDBRANCH   1   3
BRANCH   1  12
HETATM   12  C7  UNL     1      35.495  32.778  71.124  1.00  0.00     0.134 C 
BRANCH  12  13
HETATM   13  C8  UNL     1      34.414  32.190  70.276  1.00  0.00     0.002 C 
HETATM   14  C9  UNL     1      34.653  30.675  70.266  1.00  0.00     0.014 C 
HETATM   15  C10 UNL     1      33.559  30.040  69.463  1.00  0.00     0.005 C 
HETATM   16  C11 UNL     1      32.547  31.070  69.000  1.00  0.00    -0.012 C 
HETATM   17  C12 UNL     1      31.994  31.713  70.266  1.00  0.00     0.005 C 
HETATM   18  C14 UNL     1      33.216  32.134  68.150  1.00  0.00     0.037 C 
HETATM   19  C13 UNL     1      33.083  32.493  70.921  1.00  0.00     0.014 C 
HETATM   20  C15 UNL     1      34.462  32.643  68.841  1.00  0.00     0.128 C 
BRANCH  20  21
HETATM   21  O1  UNL     1      35.602  32.067  68.263  1.00  0.00    -0.395 OA
ATOM     22  H1  UNL     1      35.749  31.237  68.701  1.00  0.00     0.210 HD
ENDBRANCH  20  21
ENDBRANCH  12  13
ENDBRANCH   1  12
TORSDOF 9
ENDMDL
MODEL 4
REMARK VINA RESULT: -6.347529182      0.954      1.635
REMARK  9 active torsions:
REMARK  status: ('A' for Active; 'I' for Inactive)
REMARK    1  A    between atoms: C2_2  and  C3_3 
REMARK    2  A    between atoms: C3_3  and  C4_4 
REMARK    3  A    between atoms: C4_4  and  C5_5 
REMARK    4  A    between atoms: C5_5  and  N1_6 
REMARK    5  A    between atoms: N1_6  and  C6_8 
REMARK    6  A    between atoms: C6_8  and  N2_10 
REMARK    7  A    between atoms: N2_10  and  C7_12 
REMARK    8  A    between atoms: C7_12  and  C8_13 
REMARK    9  A    between atoms: C15_20  and  O1_21 
ROOT
HETATM    1  N2  UNL     1      36.279  33.347  68.632  1.00  0.00    -0.366 N 
ATOM      2  H2  UNL     1      35.972  33.375  67.659  1.00  0.00     0.161 HD
ENDROOT
BRANCH   1   3
HETATM    3  C6  UNL     1      37.239  34.276  69.118  1.00  0.00     0.167 C 
HETATM    4  S1  UNL     1      37.626  34.165  70.698  1.00  0.00    -0.041 SA
BRANCH   3   5
HETATM    5  N1  UNL     1      37.812  35.211  68.236  1.00  0.00    -0.367 N 
ATOM      6  H1  UNL     1      37.770  35.018  67.235  1.00  0.00     0.161 HD
BRANCH   5   7
HETATM    7  C5  UNL     1      38.455  36.423  68.668  1.00  0.00     0.122 C 
BRANCH   7   8
HETATM    8  C4  UNL     1      37.974  37.571  67.826  1.00  0.00     0.020 C 
BRANCH   8   9
HETATM    9  C3  UNL     1      38.420  37.444  66.384  1.00  0.00     0.001 C 
BRANCH   9  10
HETATM   10  C2  UNL     1      38.388  38.794  65.720  1.00  0.00    -0.004 C 
HETATM   11  C1  UNL     1      37.081  39.479  66.016  1.00  0.00     0.005 C 
ENDBRANCH   9  10
ENDBRANCH   8   9
ENDBRANCH   7   8
ENDBRANCH   5   7
ENDBRANCH   3   5
ENDBRANCH   1   3
BRANCH   1  12
HETATM   12  C7  UNL     1      35.752  32.368  69.538  1.00  0.00     0.134 C 
BRANCH  12  13
HETATM   13  C8  UNL     1      34.293  32.085  69.378  1.00  0.00     0.002 C 
HETATM   14  C9  UNL     1      33.637  32.450  70.716  1.00  0.00     0.014 C 
HETATM   15  C10 UNL     1      32.161  32.225  70.584  1.00  0.00     0.005 C 
HETATM   16  C11 UNL     1      31.794  31.798  69.175  1.00  0.00    -0.012 C 
HETATM   17  C12 UNL     1      32.261  32.925  68.261  1.00  0.00     0.005 C 
HETATM   18  C14 UNL     1      32.514  30.518  68.798  1.00  0.00     0.037 C 
HETATM   19  C13 UNL     1      33.751  32.974  68.286  1.00  0.00     0.014 C 
HETATM   20  C15 UNL     1      33.986  30.632  69.130  1.00  0.00     0.128 C 
BRANCH  20  21
HETATM   21  O1  UNL     1      34.267  29.941  70.317  1.00  0.00    -0.395 OA
ATOM     22  H1  UNL     1      33.506  30.029  70.879  1.00  0.00     0.210 HD
ENDBRANCH  20  21
ENDBRANCH  12  13
ENDBRANCH   1  12
TORSDOF 9
ENDMDL
MODEL 5
REMARK VINA RESULT: -6.218234348      1.185      1.733
REMARK  9 active torsions:
REMARK  status: ('A' for Active; 'I' for Inactive)
REMARK    1  A    between atoms: C2_2  and  C3_3 
REMARK    2  A    between atoms: C3_3  and  C4_4 
REMARK    3  A    between atoms: C4_4  and  C5_5 
REMARK    4  A    between atoms: C5_5  and  N1_6 
REMARK    5  A    between atoms: N1_6  and  C6_8 
REMARK    6  A    between atoms: C6_8  and  N2_10 
REMARK    7  A    between atoms: N2_10  and  C7_12 
REMARK    8  A    between atoms: C7_12  and  C8_13 
REMARK    9  A    between atoms: C15_20  and  O1_21 
ROOT
HETATM    1  N2  UNL     1      36.391  33.318  69.070  1.00  0.00    -0.366 N 
ATOM      2  H2  UNL     1      36.107  33.379  68.092  1.00  0.00     0.161 HD
ENDROOT
BRANCH   1   3
HETATM    3  C6  UNL     1      37.494  34.071  69.555  1.00  0.00     0.167 C 
HETATM    4  S1  UNL     1      37.511  34.394  71.152  1.00  0.00    -0.041 SA
BRANCH   3   5
HETATM    5  N1  UNL     1      38.506  34.476  68.664  1.00  0.00    -0.367 N 
ATOM      6  H1  UNL     1      38.833  33.805  67.969  1.00  0.00     0.161 HD
BRANCH   5   7
HETATM    7  C5  UNL     1      39.105  35.784  68.680  1.00  0.00     0.122 C 
BRANCH   7   8
HETATM    8  C4  UNL     1      38.252  36.734  67.888  1.00  0.00     0.020 C 
BRANCH   8   9
HETATM    9  C3  UNL     1      38.241  38.125  68.489  1.00  0.00     0.001 C 
BRANCH   9  10
HETATM   10  C2  UNL     1      38.026  38.036  69.976  1.00  0.00    -0.004 C 
HETATM   11  C1  UNL     1      39.005  38.931  70.688  1.00  0.00     0.005 C 
ENDBRANCH   9  10
ENDBRANCH   8   9
ENDBRANCH   7   8
ENDBRANCH   5   7
ENDBRANCH   3   5
ENDBRANCH   1   3
BRANCH   1  12
HETATM   12  C7  UNL     1      35.684  32.469  69.986  1.00  0.00     0.134 C 
BRANCH  12  13
HETATM   13  C8  UNL     1      34.273  32.166  69.601  1.00  0.00     0.002 C 
HETATM   14  C9  UNL     1      34.211  30.652  69.359  1.00  0.00     0.014 C 
HETATM   15  C10 UNL     1      32.796  30.297  69.014  1.00  0.00     0.005 C 
HETATM   16  C11 UNL     1      31.889  31.509  69.097  1.00  0.00    -0.012 C 
HETATM   17  C12 UNL     1      31.994  32.014  70.531  1.00  0.00     0.005 C 
HETATM   18  C14 UNL     1      32.359  32.596  68.148  1.00  0.00     0.037 C 
HETATM   19  C13 UNL     1      33.373  32.535  70.755  1.00  0.00     0.014 C 
HETATM   20  C15 UNL     1      33.845  32.825  68.316  1.00  0.00     0.128 C 
BRANCH  20  21
HETATM   21  O1  UNL     1      34.549  32.202  67.277  1.00  0.00    -0.395 OA
ATOM     22  H1  UNL     1      34.277  32.617  66.466  1.00  0.00     0.210 HD
ENDBRANCH  20  21
ENDBRANCH  12  13
ENDBRANCH   1  12
TORSDOF 9
ENDMDL
