MODEL 1
REMARK VINA RESULT: -7.352779089      0.000      0.000
REMARK  10 active torsions:
REMARK  status: ('A' for Active; 'I' for Inactive)
REMARK    1  A    between atoms: C2_2  and  C3_3 
REMARK    2  A    between atoms: C3_3  and  N1_5 
REMARK       I    between atoms: N1_5  and  C5_7 
REMARK    3  A    between atoms: C5_7  and  C6_9 
REMARK    4  A    between atoms: C8_13  and  O2_14 
REMARK    5  A    between atoms: C9_16  and  C10_17 
REMARK    6  A    between atoms: C10_17  and  C11_18 
REMARK    7  A    between atoms: C15_23  and  O3_24 
REMARK    8  A    between atoms: C16_26  and  C17_27 
REMARK    9  A    between atoms: C21_34  and  C22_35 
REMARK   10  A    between atoms: C22_35  and  C23_36 
ROOT
HETATM    1  C6  UNL     1       3.656 -31.749   8.571  1.00  0.00     0.188 C 
HETATM    2  C7  UNL     1       3.361 -30.759   9.620  1.00  0.00     0.156 C 
HETATM    3  N2  UNL     1       2.119 -30.060   9.600  1.00  0.00    -0.367 N 
ATOM      4  H2  UNL     1       1.594 -30.215  10.461  1.00  0.00     0.161 HD
HETATM    5  C8  UNL     1       1.423 -29.222   8.726  1.00  0.00     0.159 C 
HETATM    6  C9  UNL     1       0.744 -29.417   7.455  1.00  0.00     0.064 C 
HETATM    7  N3  UNL     1       1.231 -28.902   6.211  1.00  0.00    -0.330 N 
HETATM    8  C14 UNL     1       0.099 -28.549   5.259  1.00  0.00     0.158 C 
HETATM    9  C15 UNL     1       2.473 -28.681   5.621  1.00  0.00     0.166 C 
HETATM   10  C16 UNL     1       3.629 -27.775   5.722  1.00  0.00     0.067 C 
HETATM   11  N4  UNL     1       4.855 -28.489   5.543  1.00  0.00    -0.325 N 
ATOM     12  H4  UNL     1       5.520 -28.014   4.933  1.00  0.00     0.169 HD
HETATM   13  C20 UNL     1       5.317 -29.702   6.038  1.00  0.00     0.244 C 
HETATM   14  O4  UNL     1       5.866 -30.524   5.261  1.00  0.00    -0.271 OA
HETATM   15  C21 UNL     1       5.222 -30.158   7.473  1.00  0.00     0.171 C 
HETATM   16  N5  UNL     1       4.534 -31.391   7.573  1.00  0.00    -0.396 N 
ATOM     17  H5  UNL     1       4.705 -32.078   6.839  1.00  0.00     0.155 HD
ENDROOT
BRANCH   1  18
HETATM   18  C5  UNL     1       4.259 -32.977   9.250  1.00  0.00     0.242 C 
HETATM   19  N1  UNL     1       5.387 -32.742  10.061  1.00  0.00    -0.355 N 
ATOM     20  H1  UNL     1       5.735 -31.787  10.151  1.00  0.00     0.162 HD
HETATM   21  O1  UNL     1       3.782 -34.123   9.097  1.00  0.00    -0.271 OA
BRANCH  19  22
HETATM   22  C3  UNL     1       6.077 -33.811  10.775  1.00  0.00     0.080 C 
HETATM   23  C4  UNL     1       6.816 -33.275  11.974  1.00  0.00     0.032 C 
BRANCH  22  24
HETATM   24  C2  UNL     1       6.993 -34.478   9.786  1.00  0.00     0.020 C 
HETATM   25  C1  UNL     1       8.117 -33.574   9.352  1.00  0.00     0.007 C 
ENDBRANCH  22  24
ENDBRANCH  19  22
ENDBRANCH   1  18
BRANCH  15  26
HETATM   26  C22 UNL     1       6.562 -30.396   8.100  1.00  0.00     0.043 C 
BRANCH  26  27
HETATM   27  C23 UNL     1       7.136 -29.444   9.040  1.00  0.00    -0.049 C 
HETATM   28  C24 UNL     1       7.800 -30.009  10.249  1.00  0.00     0.014 C 
HETATM   29  C25 UNL     1       8.330 -28.713   8.299  1.00  0.00     0.014 C 
HETATM   30  C26 UNL     1       6.235 -28.311   9.407  1.00  0.00     0.014 C 
ENDBRANCH  26  27
ENDBRANCH  15  26
BRANCH   5  31
HETATM   31  O2  UNL     1       1.369 -27.971   9.166  1.00  0.00    -0.345 OA
ATOM     32  H2  UNL     1       0.841 -27.415   8.606  1.00  0.00     0.219 HD
ENDBRANCH   5  31
BRANCH   6  33
HETATM   33  C10 UNL     1       0.045 -30.766   7.320  1.00  0.00     0.065 C 
BRANCH  33  34
HETATM   34  C11 UNL     1      -1.265 -30.779   8.122  1.00  0.00    -0.017 C 
HETATM   35  C12 UNL     1      -2.229 -29.730   7.691  1.00  0.00     0.010 C 
HETATM   36  C13 UNL     1      -1.869 -32.142   8.161  1.00  0.00     0.010 C 
ENDBRANCH  33  34
ENDBRANCH   6  33
BRANCH  10  37
HETATM   37  C17 UNL     1       3.645 -26.722   6.761  1.00  0.00     0.032 C 
HETATM   38  C18 UNL     1       5.124 -26.335   6.961  1.00  0.00     0.016 C 
HETATM   39  C19 UNL     1       2.952 -25.485   6.318  1.00  0.00     0.016 C 
ENDBRANCH  10  37
BRANCH   9  40
HETATM   40  O3  UNL     1       2.745 -29.546   4.636  1.00  0.00    -0.344 OA
ATOM     41  H3  UNL     1       2.247 -29.377   3.844  1.00  0.00     0.219 HD
ENDBRANCH   9  40
TORSDOF 10
ENDMDL
MODEL 2
REMARK VINA RESULT: -6.550065611      2.152      3.717
REMARK  10 active torsions:
REMARK  status: ('A' for Active; 'I' for Inactive)
REMARK    1  A    between atoms: C2_2  and  C3_3 
REMARK    2  A    between atoms: C3_3  and  N1_5 
REMARK       I    between atoms: N1_5  and  C5_7 
REMARK    3  A    between atoms: C5_7  and  C6_9 
REMARK    4  A    between atoms: C8_13  and  O2_14 
REMARK    5  A    between atoms: C9_16  and  C10_17 
REMARK    6  A    between atoms: C10_17  and  C11_18 
REMARK    7  A    between atoms: C15_23  and  O3_24 
REMARK    8  A    between atoms: C16_26  and  C17_27 
REMARK    9  A    between atoms: C21_34  and  C22_35 
REMARK   10  A    between atoms: C22_35  and  C23_36 
ROOT
HETATM    1  C6  UNL     1       4.447 -33.328   8.513  1.00  0.00     0.188 C 
HETATM    2  C7  UNL     1       4.826 -32.530   9.691  1.00  0.00     0.156 C 
HETATM    3  N2  UNL     1       4.334 -31.199   9.826  1.00  0.00    -0.367 N 
ATOM      4  H2  UNL     1       3.802 -31.087  10.689  1.00  0.00     0.161 HD
HETATM    5  C8  UNL     1       4.381 -30.005   9.102  1.00  0.00     0.159 C 
HETATM    6  C9  UNL     1       3.785 -29.548   7.857  1.00  0.00     0.064 C 
HETATM    7  N3  UNL     1       4.535 -29.315   6.660  1.00  0.00    -0.330 N 
HETATM    8  C14 UNL     1       3.938 -28.194   5.824  1.00  0.00     0.158 C 
HETATM    9  C15 UNL     1       5.645 -29.875   6.033  1.00  0.00     0.166 C 
HETATM   10  C16 UNL     1       7.108 -29.955   6.180  1.00  0.00     0.067 C 
HETATM   11  N4  UNL     1       7.584 -31.262   5.845  1.00  0.00    -0.325 N 
ATOM     12  H4  UNL     1       8.420 -31.256   5.261  1.00  0.00     0.169 HD
HETATM   13  C20 UNL     1       7.131 -32.536   6.161  1.00  0.00     0.244 C 
HETATM   14  O4  UNL     1       7.045 -33.408   5.260  1.00  0.00    -0.271 OA
HETATM   15  C21 UNL     1       6.709 -33.004   7.532  1.00  0.00     0.171 C 
HETATM   16  N5  UNL     1       5.383 -33.499   7.519  1.00  0.00    -0.396 N 
ATOM     17  H5  UNL     1       5.096 -34.030   6.698  1.00  0.00     0.155 HD
ENDROOT
BRANCH   1  18
HETATM   18  C5  UNL     1       4.084 -34.730   9.002  1.00  0.00     0.242 C 
HETATM   19  N1  UNL     1       4.778 -35.185  10.140  1.00  0.00    -0.355 N 
ATOM     20  H1  UNL     1       5.470 -34.571  10.570  1.00  0.00     0.162 HD
HETATM   21  O1  UNL     1       3.223 -35.432   8.428  1.00  0.00    -0.271 OA
BRANCH  19  22
HETATM   22  C3  UNL     1       4.545 -36.500  10.728  1.00  0.00     0.080 C 
HETATM   23  C4  UNL     1       4.608 -36.442  12.232  1.00  0.00     0.032 C 
BRANCH  22  24
HETATM   24  C2  UNL     1       5.576 -37.428  10.145  1.00  0.00     0.020 C 
HETATM   25  C1  UNL     1       5.460 -38.825  10.697  1.00  0.00     0.007 C 
ENDBRANCH  22  24
ENDBRANCH  19  22
ENDBRANCH   1  18
BRANCH  15  26
HETATM   26  C22 UNL     1       7.551 -34.131   8.050  1.00  0.00     0.043 C 
BRANCH  26  27
HETATM   27  C23 UNL     1       8.475 -33.937   9.158  1.00  0.00    -0.049 C 
HETATM   28  C24 UNL     1       8.370 -34.895  10.296  1.00  0.00     0.014 C 
HETATM   29  C25 UNL     1       9.934 -34.210   8.608  1.00  0.00     0.014 C 
HETATM   30  C26 UNL     1       8.568 -32.531   9.652  1.00  0.00     0.014 C 
ENDBRANCH  26  27
ENDBRANCH  15  26
BRANCH   5  31
HETATM   31  O2  UNL     1       5.134 -29.088   9.695  1.00  0.00    -0.345 OA
ATOM     32  H2  UNL     1       4.747 -28.221   9.650  1.00  0.00     0.219 HD
ENDBRANCH   5  31
BRANCH   6  33
HETATM   33  C10 UNL     1       2.384 -30.092   7.597  1.00  0.00     0.065 C 
BRANCH  33  34
HETATM   34  C11 UNL     1       1.402 -29.592   8.667  1.00  0.00    -0.017 C 
HETATM   35  C12 UNL     1       1.149 -28.127   8.596  1.00  0.00     0.010 C 
HETATM   36  C13 UNL     1       0.148 -30.398   8.679  1.00  0.00     0.010 C 
ENDBRANCH  33  34
ENDBRANCH   6  33
BRANCH  10  37
HETATM   37  C17 UNL     1       7.764 -29.309   7.337  1.00  0.00     0.032 C 
HETATM   38  C18 UNL     1       9.258 -29.681   7.250  1.00  0.00     0.016 C 
HETATM   39  C19 UNL     1       7.704 -27.826   7.262  1.00  0.00     0.016 C 
ENDBRANCH  10  37
BRANCH   9  40
HETATM   40  O3  UNL     1       5.328 -30.574   4.935  1.00  0.00    -0.344 OA
ATOM     41  H3  UNL     1       6.089 -30.921   4.483  1.00  0.00     0.219 HD
ENDBRANCH   9  40
TORSDOF 10
ENDMDL
MODEL 3
REMARK VINA RESULT: -6.505742212     12.174     16.555
REMARK  10 active torsions:
REMARK  status: ('A' for Active; 'I' for Inactive)
REMARK    1  A    between atoms: C2_2  and  C3_3 
REMARK    2  A    between atoms: C3_3  and  N1_5 
REMARK       I    between atoms: N1_5  and  C5_7 
REMARK    3  A    between atoms: C5_7  and  C6_9 
REMARK    4  A    between atoms: C8_13  and  O2_14 
REMARK    5  A    between atoms: C9_16  and  C10_17 
REMARK    6  A    between atoms: C10_17  and  C11_18 
REMARK    7  A    between atoms: C15_23  and  O3_24 
REMARK    8  A    between atoms: C16_26  and  C17_27 
REMARK    9  A    between atoms: C21_34  and  C22_35 
REMARK   10  A    between atoms: C22_35  and  C23_36 
ROOT
HETATM    1  C6  UNL     1      -6.684 -39.708   5.086  1.00  0.00     0.188 C 
HETATM    2  C7  UNL     1      -6.891 -41.097   5.527  1.00  0.00     0.156 C 
HETATM    3  N2  UNL     1      -5.855 -42.057   5.342  1.00  0.00    -0.367 N 
ATOM      4  H2  UNL     1      -5.568 -42.469   6.231  1.00  0.00     0.161 HD
HETATM    5  C8  UNL     1      -5.123 -42.590   4.279  1.00  0.00     0.159 C 
HETATM    6  C9  UNL     1      -4.093 -42.071   3.392  1.00  0.00     0.064 C 
HETATM    7  N3  UNL     1      -4.309 -41.805   2.001  1.00  0.00    -0.330 N 
HETATM    8  C14 UNL     1      -3.049 -42.028   1.179  1.00  0.00     0.158 C 
HETATM    9  C15 UNL     1      -5.356 -41.349   1.206  1.00  0.00     0.166 C 
HETATM   10  C16 UNL     1      -6.650 -41.804   0.669  1.00  0.00     0.067 C 
HETATM   11  N4  UNL     1      -7.613 -40.747   0.694  1.00  0.00    -0.325 N 
ATOM     12  H4  UNL     1      -8.163 -40.673  -0.162  1.00  0.00     0.169 HD
HETATM   13  C20 UNL     1      -7.947 -39.803   1.657  1.00  0.00     0.244 C 
HETATM   14  O4  UNL     1      -8.087 -38.598   1.326  1.00  0.00    -0.271 OA
HETATM   15  C21 UNL     1      -8.164 -40.082   3.123  1.00  0.00     0.171 C 
HETATM   16  N5  UNL     1      -7.304 -39.298   3.927  1.00  0.00    -0.396 N 
ATOM     17  H5  UNL     1      -7.126 -38.342   3.621  1.00  0.00     0.155 HD
ENDROOT
BRANCH   1  18
HETATM   18  C5  UNL     1      -7.197 -38.789   6.193  1.00  0.00     0.242 C 
HETATM   19  N1  UNL     1      -6.236 -37.954   6.796  1.00  0.00    -0.355 N 
ATOM     20  H1  UNL     1      -5.270 -38.004   6.472  1.00  0.00     0.162 HD
HETATM   21  O1  UNL     1      -8.398 -38.776   6.544  1.00  0.00    -0.271 OA
BRANCH  19  22
HETATM   22  C3  UNL     1      -6.568 -37.021   7.868  1.00  0.00     0.080 C 
HETATM   23  C4  UNL     1      -6.682 -35.613   7.346  1.00  0.00     0.032 C 
BRANCH  22  24
HETATM   24  C2  UNL     1      -5.499 -37.160   8.917  1.00  0.00     0.020 C 
HETATM   25  C1  UNL     1      -4.170 -37.557   8.326  1.00  0.00     0.007 C 
ENDBRANCH  22  24
ENDBRANCH  19  22
ENDBRANCH   1  18
BRANCH  15  26
HETATM   26  C22 UNL     1      -9.552 -39.749   3.581  1.00  0.00     0.043 C 
BRANCH  26  27
HETATM   27  C23 UNL     1     -10.670 -40.646   3.322  1.00  0.00    -0.049 C 
HETATM   28  C24 UNL     1     -11.127 -40.758   1.908  1.00  0.00     0.014 C 
HETATM   29  C25 UNL     1     -10.178 -42.116   3.646  1.00  0.00     0.014 C 
HETATM   30  C26 UNL     1     -11.830 -40.477   4.247  1.00  0.00     0.014 C 
ENDBRANCH  26  27
ENDBRANCH  15  26
BRANCH   5  31
HETATM   31  O2  UNL     1      -5.439 -43.855   4.035  1.00  0.00    -0.345 OA
ATOM     32  H2  UNL     1      -6.269 -43.938   3.582  1.00  0.00     0.219 HD
ENDBRANCH   5  31
BRANCH   6  33
HETATM   33  C10 UNL     1      -3.133 -41.089   4.055  1.00  0.00     0.065 C 
BRANCH  33  34
HETATM   34  C11 UNL     1      -2.509 -41.708   5.314  1.00  0.00    -0.017 C 
HETATM   35  C12 UNL     1      -1.476 -42.736   5.014  1.00  0.00     0.010 C 
HETATM   36  C13 UNL     1      -2.029 -40.660   6.260  1.00  0.00     0.010 C 
ENDBRANCH  33  34
ENDBRANCH   6  33
BRANCH  10  37
HETATM   37  C17 UNL     1      -7.159 -43.146   1.024  1.00  0.00     0.032 C 
HETATM   38  C18 UNL     1      -8.630 -43.187   0.560  1.00  0.00     0.016 C 
HETATM   39  C19 UNL     1      -6.462 -44.227   0.282  1.00  0.00     0.016 C 
ENDBRANCH  10  37
BRANCH   9  40
HETATM   40  O3  UNL     1      -5.170 -40.101   0.759  1.00  0.00    -0.344 OA
ATOM     41  H3  UNL     1      -5.248 -39.446   1.443  1.00  0.00     0.219 HD
ENDBRANCH   9  40
TORSDOF 10
ENDMDL
MODEL 4
REMARK VINA RESULT: -6.377309681      2.740      7.506
REMARK  10 active torsions:
REMARK  status: ('A' for Active; 'I' for Inactive)
REMARK    1  A    between atoms: C2_2  and  C3_3 
REMARK    2  A    between atoms: C3_3  and  N1_5 
REMARK       I    between atoms: N1_5  and  C5_7 
REMARK    3  A    between atoms: C5_7  and  C6_9 
REMARK    4  A    between atoms: C8_13  and  O2_14 
REMARK    5  A    between atoms: C9_16  and  C10_17 
REMARK    6  A    between atoms: C10_17  and  C11_18 
REMARK    7  A    between atoms: C15_23  and  O3_24 
REMARK    8  A    between atoms: C16_26  and  C17_27 
REMARK    9  A    between atoms: C21_34  and  C22_35 
REMARK   10  A    between atoms: C22_35  and  C23_36 
ROOT
HETATM    1  C6  UNL     1       5.326 -28.480   6.706  1.00  0.00     0.188 C 
HETATM    2  C7  UNL     1       5.132 -28.017   8.089  1.00  0.00     0.156 C 
HETATM    3  N2  UNL     1       6.046 -27.080   8.653  1.00  0.00    -0.367 N 
ATOM      4  H2  UNL     1       5.567 -26.231   8.955  1.00  0.00     0.161 HD
HETATM    5  C8  UNL     1       7.417 -27.003   8.906  1.00  0.00     0.159 C 
HETATM    6  C9  UNL     1       8.599 -26.871   8.068  1.00  0.00     0.064 C 
HETATM    7  N3  UNL     1       9.553 -27.921   7.875  1.00  0.00    -0.330 N 
HETATM    8  C14 UNL     1      10.958 -27.380   7.663  1.00  0.00     0.158 C 
HETATM    9  C15 UNL     1       9.528 -29.310   7.784  1.00  0.00     0.166 C 
HETATM   10  C16 UNL     1       9.340 -30.497   8.634  1.00  0.00     0.067 C 
HETATM   11  N4  UNL     1       8.577 -31.497   7.954  1.00  0.00    -0.325 N 
ATOM     12  H4  UNL     1       8.952 -32.440   8.058  1.00  0.00     0.169 HD
HETATM   13  C20 UNL     1       7.425 -31.435   7.181  1.00  0.00     0.244 C 
HETATM   14  O4  UNL     1       7.375 -32.052   6.087  1.00  0.00    -0.271 OA
HETATM   15  C21 UNL     1       6.173 -30.669   7.530  1.00  0.00     0.171 C 
HETATM   16  N5  UNL     1       5.840 -29.742   6.513  1.00  0.00    -0.396 N 
ATOM     17  H5  UNL     1       5.995 -30.037   5.549  1.00  0.00     0.155 HD
ENDROOT
BRANCH   1  18
HETATM   18  C5  UNL     1       3.962 -28.465   6.017  1.00  0.00     0.242 C 
HETATM   19  N1  UNL     1       2.956 -27.715   6.658  1.00  0.00    -0.355 N 
ATOM     20  H1  UNL     1       3.184 -27.231   7.527  1.00  0.00     0.162 HD
HETATM   21  O1  UNL     1       3.749 -29.081   4.949  1.00  0.00    -0.271 OA
BRANCH  19  22
HETATM   22  C3  UNL     1       1.602 -27.603   6.126  1.00  0.00     0.080 C 
HETATM   23  C4  UNL     1       1.290 -26.184   5.728  1.00  0.00     0.032 C 
BRANCH  22  24
HETATM   24  C2  UNL     1       0.671 -28.120   7.189  1.00  0.00     0.020 C 
HETATM   25  C1  UNL     1       1.325 -28.164   8.546  1.00  0.00     0.007 C 
ENDBRANCH  22  24
ENDBRANCH  19  22
ENDBRANCH   1  18
BRANCH  15  26
HETATM   26  C22 UNL     1       4.970 -31.551   7.676  1.00  0.00     0.043 C 
BRANCH  26  27
HETATM   27  C23 UNL     1       4.373 -31.804   8.980  1.00  0.00    -0.049 C 
HETATM   28  C24 UNL     1       4.458 -33.199   9.499  1.00  0.00     0.014 C 
HETATM   29  C25 UNL     1       5.209 -30.985  10.047  1.00  0.00     0.014 C 
HETATM   30  C26 UNL     1       2.995 -31.254   9.151  1.00  0.00     0.014 C 
ENDBRANCH  26  27
ENDBRANCH  15  26
BRANCH   5  31
HETATM   31  O2  UNL     1       7.693 -27.057  10.202  1.00  0.00    -0.345 OA
ATOM     32  H2  UNL     1       7.339 -26.314  10.677  1.00  0.00     0.219 HD
ENDBRANCH   5  31
BRANCH   6  33
HETATM   33  C10 UNL     1       8.395 -26.003   6.830  1.00  0.00     0.065 C 
BRANCH  33  34
HETATM   34  C11 UNL     1       8.893 -24.572   7.084  1.00  0.00    -0.017 C 
HETATM   35  C12 UNL     1       9.326 -24.341   8.488  1.00  0.00     0.010 C 
HETATM   36  C13 UNL     1       9.920 -24.164   6.084  1.00  0.00     0.010 C 
ENDBRANCH  33  34
ENDBRANCH   6  33
BRANCH  10  37
HETATM   37  C17 UNL     1       9.040 -30.327  10.073  1.00  0.00     0.032 C 
HETATM   38  C18 UNL     1       8.767 -31.741  10.627  1.00  0.00     0.016 C 
HETATM   39  C19 UNL     1      10.205 -29.805  10.833  1.00  0.00     0.016 C 
ENDBRANCH  10  37
BRANCH   9  40
HETATM   40  O3  UNL     1       9.743 -29.756   6.540  1.00  0.00    -0.344 OA
ATOM     41  H3  UNL     1      10.666 -29.844   6.331  1.00  0.00     0.219 HD
ENDBRANCH   9  40
TORSDOF 10
ENDMDL
MODEL 5
REMARK VINA RESULT: -6.286731041      2.871      6.250
REMARK  10 active torsions:
REMARK  status: ('A' for Active; 'I' for Inactive)
REMARK    1  A    between atoms: C2_2  and  C3_3 
REMARK    2  A    between atoms: C3_3  and  N1_5 
REMARK       I    between atoms: N1_5  and  C5_7 
REMARK    3  A    between atoms: C5_7  and  C6_9 
REMARK    4  A    between atoms: C8_13  and  O2_14 
REMARK    5  A    between atoms: C9_16  and  C10_17 
REMARK    6  A    between atoms: C10_17  and  C11_18 
REMARK    7  A    between atoms: C15_23  and  O3_24 
REMARK    8  A    between atoms: C16_26  and  C17_27 
REMARK    9  A    between atoms: C21_34  and  C22_35 
REMARK   10  A    between atoms: C22_35  and  C23_36 
ROOT
HETATM    1  C6  UNL     1       7.069 -27.620   8.496  1.00  0.00     0.188 C 
HETATM    2  C7  UNL     1       7.268 -28.213   7.164  1.00  0.00     0.156 C 
HETATM    3  N2  UNL     1       6.138 -28.480   6.336  1.00  0.00    -0.367 N 
ATOM      4  H2  UNL     1       6.206 -27.984   5.447  1.00  0.00     0.161 HD
HETATM    5  C8  UNL     1       4.965 -29.234   6.408  1.00  0.00     0.159 C 
HETATM    6  C9  UNL     1       3.731 -29.124   7.171  1.00  0.00     0.064 C 
HETATM    7  N3  UNL     1       3.370 -30.026   8.223  1.00  0.00    -0.330 N 
HETATM    8  C14 UNL     1       1.864 -30.213   8.318  1.00  0.00     0.158 C 
HETATM    9  C15 UNL     1       4.031 -30.744   9.216  1.00  0.00     0.166 C 
HETATM   10  C16 UNL     1       4.907 -31.917   9.370  1.00  0.00     0.067 C 
HETATM   11  N4  UNL     1       5.915 -31.675  10.355  1.00  0.00    -0.325 N 
ATOM     12  H4  UNL     1       6.056 -32.454  10.998  1.00  0.00     0.169 HD
HETATM   13  C20 UNL     1       6.740 -30.586  10.608  1.00  0.00     0.244 C 
HETATM   14  O4  UNL     1       6.877 -30.167  11.785  1.00  0.00    -0.271 OA
HETATM   15  C21 UNL     1       7.521 -29.817   9.571  1.00  0.00     0.171 C 
HETATM   16  N5  UNL     1       7.187 -28.442   9.594  1.00  0.00    -0.396 N 
ATOM     17  H5  UNL     1       7.018 -28.022  10.507  1.00  0.00     0.155 HD
ENDROOT
BRANCH   1  18
HETATM   18  C5  UNL     1       8.114 -26.519   8.674  1.00  0.00     0.242 C 
HETATM   19  N1  UNL     1       8.804 -26.131   7.508  1.00  0.00    -0.355 N 
ATOM     20  H1  UNL     1       8.576 -26.592   6.627  1.00  0.00     0.162 HD
HETATM   21  O1  UNL     1       8.345 -25.994   9.785  1.00  0.00    -0.271 OA
BRANCH  19  22
HETATM   22  C3  UNL     1       9.831 -25.095   7.513  1.00  0.00     0.080 C 
HETATM   23  C4  UNL     1       9.253 -23.755   7.136  1.00  0.00     0.032 C 
BRANCH  22  24
HETATM   24  C2  UNL     1      10.909 -25.543   6.564  1.00  0.00     0.020 C 
HETATM   25  C1  UNL     1      10.389 -26.501   5.523  1.00  0.00     0.007 C 
ENDBRANCH  22  24
ENDBRANCH  19  22
ENDBRANCH   1  18
BRANCH  15  26
HETATM   26  C22 UNL     1       9.002 -29.872   9.795  1.00  0.00     0.043 C 
BRANCH  26  27
HETATM   27  C23 UNL     1       9.915 -30.247   8.725  1.00  0.00    -0.049 C 
HETATM   28  C24 UNL     1      10.755 -29.160   8.146  1.00  0.00     0.014 C 
HETATM   29  C25 UNL     1      10.994 -31.225   9.348  1.00  0.00     0.014 C 
HETATM   30  C26 UNL     1       9.302 -31.079   7.647  1.00  0.00     0.014 C 
ENDBRANCH  26  27
ENDBRANCH  15  26
BRANCH   5  31
HETATM   31  O2  UNL     1       4.987 -30.276   5.588  1.00  0.00    -0.345 OA
ATOM     32  H2  UNL     1       4.120 -30.508   5.276  1.00  0.00     0.219 HD
ENDBRANCH   5  31
BRANCH   6  33
HETATM   33  C10 UNL     1       3.274 -27.691   7.418  1.00  0.00     0.065 C 
BRANCH  33  34
HETATM   34  C11 UNL     1       2.613 -27.108   6.160  1.00  0.00    -0.017 C 
HETATM   35  C12 UNL     1       1.125 -27.144   6.208  1.00  0.00     0.010 C 
HETATM   36  C13 UNL     1       3.151 -25.757   5.833  1.00  0.00     0.010 C 
ENDBRANCH  33  34
ENDBRANCH   6  33
BRANCH  10  37
HETATM   37  C17 UNL     1       5.346 -32.667   8.173  1.00  0.00     0.032 C 
HETATM   38  C18 UNL     1       6.670 -33.358   8.557  1.00  0.00     0.016 C 
HETATM   39  C19 UNL     1       4.402 -33.756   7.814  1.00  0.00     0.016 C 
ENDBRANCH  10  37
BRANCH   9  40
HETATM   40  O3  UNL     1       3.831 -30.246  10.442  1.00  0.00    -0.344 OA
ATOM     41  H3  UNL     1       3.845 -29.296  10.464  1.00  0.00     0.219 HD
ENDBRANCH   9  40
TORSDOF 10
ENDMDL
