MODEL 1
REMARK VINA RESULT: -6.994067334      0.000      0.000
REMARK  4 active torsions:
REMARK  status: ('A' for Active; 'I' for Inactive)
REMARK    1  A    between atoms: N1_2  and  C2_5 
REMARK    2  A    between atoms: C2_5  and  C3_6 
REMARK    3  A    between atoms: C3_6  and  N2_8 
REMARK    4  A    between atoms: N2_8  and  C4_10 
ROOT
HETATM    1  C4  UNL     1     -13.313  15.365  42.841  1.00  0.00     0.031 C 
HETATM    2  C5  UNL     1     -12.768  14.125  42.179  1.00  0.00     0.031 C 
HETATM    3  C6  UNL     1     -13.717  13.410  41.257  1.00  0.00     0.003 C 
HETATM    4  C7  UNL     1     -14.934  12.831  41.848  1.00  0.00     0.009 C 
HETATM    5  C8  UNL     1     -16.095  13.699  42.099  1.00  0.00    -0.043 C 
HETATM    6  C9  UNL     1     -17.373  12.904  41.774  1.00  0.00     0.015 C 
HETATM    7  C10 UNL     1     -16.229  13.939  43.579  1.00  0.00     0.014 C 
HETATM    8  C11 UNL     1     -15.501  15.123  44.091  1.00  0.00    -0.011 C 
HETATM    9  C12 UNL     1     -15.981  16.353  43.334  1.00  0.00     0.009 C 
HETATM   10  C13 UNL     1     -15.534  16.134  41.917  1.00  0.00    -0.011 C 
HETATM   11  C14 UNL     1     -16.187  14.951  41.295  1.00  0.00     0.014 C 
HETATM   12  C15 UNL     1     -14.057  16.188  41.866  1.00  0.00     0.035 C 
HETATM   13  C16 UNL     1     -14.014  15.009  44.114  1.00  0.00     0.035 C 
ENDROOT
BRANCH   1  14
HETATM   14  N2  UNL     1     -12.124  16.106  43.239  1.00  0.00    -0.374 N 
ATOM     15  H2  UNL     1     -11.278  15.940  42.692  1.00  0.00     0.161 HD
BRANCH  14  16
HETATM   16  C3  UNL     1     -12.019  17.017  44.285  1.00  0.00     0.099 C 
HETATM   17  S1  UNL     1     -12.954  18.327  44.520  1.00  0.00    -0.064 SA
BRANCH  16  18
HETATM   18  C2  UNL     1     -10.941  16.797  45.305  1.00  0.00     0.300 C 
BRANCH  18  19
HETATM   19  N1  UNL     1      -9.853  16.030  44.786  1.00  0.00    -0.073 N 
HETATM   20  C1  UNL     1      -8.783  16.988  44.432  1.00  0.00     0.267 C 
ATOM     21  H12 UNL     1     -10.122  15.424  44.010  1.00  0.00     0.277 HD
ATOM     22  H11 UNL     1      -9.541  15.296  45.422  1.00  0.00     0.277 HD
ENDBRANCH  18  19
ENDBRANCH  16  18
ENDBRANCH  14  16
ENDBRANCH   1  14
TORSDOF 4
ENDMDL
MODEL 2
REMARK VINA RESULT: -6.967231913      1.838      1.923
REMARK  4 active torsions:
REMARK  status: ('A' for Active; 'I' for Inactive)
REMARK    1  A    between atoms: N1_2  and  C2_5 
REMARK    2  A    between atoms: C2_5  and  C3_6 
REMARK    3  A    between atoms: C3_6  and  N2_8 
REMARK    4  A    between atoms: N2_8  and  C4_10 
ROOT
HETATM    1  C4  UNL     1     -13.307  14.824  42.393  1.00  0.00     0.031 C 
HETATM    2  C5  UNL     1     -13.185  13.401  41.908  1.00  0.00     0.031 C 
HETATM    3  C6  UNL     1     -14.426  12.815  41.296  1.00  0.00     0.003 C 
HETATM    4  C7  UNL     1     -15.603  12.654  42.166  1.00  0.00     0.009 C 
HETATM    5  C8  UNL     1     -16.475  13.812  42.417  1.00  0.00    -0.043 C 
HETATM    6  C9  UNL     1     -17.934  13.321  42.450  1.00  0.00     0.015 C 
HETATM    7  C10 UNL     1     -16.265  14.299  43.826  1.00  0.00     0.014 C 
HETATM    8  C11 UNL     1     -15.211  15.327  43.983  1.00  0.00    -0.011 C 
HETATM    9  C12 UNL     1     -15.548  16.509  43.084  1.00  0.00     0.009 C 
HETATM   10  C13 UNL     1     -15.441  15.973  41.685  1.00  0.00    -0.011 C 
HETATM   11  C14 UNL     1     -16.445  14.910  41.409  1.00  0.00     0.014 C 
HETATM   12  C15 UNL     1     -14.027  15.648  41.401  1.00  0.00     0.035 C 
HETATM   13  C16 UNL     1     -13.810  14.851  43.802  1.00  0.00     0.035 C 
ENDROOT
BRANCH   1  14
HETATM   14  N2  UNL     1     -11.930  15.297  42.455  1.00  0.00    -0.374 N 
ATOM     15  H2  UNL     1     -11.797  16.297  42.605  1.00  0.00     0.161 HD
BRANCH  14  16
HETATM   16  C3  UNL     1     -10.778  14.527  42.332  1.00  0.00     0.099 C 
HETATM   17  S1  UNL     1     -10.238  13.810  40.975  1.00  0.00    -0.064 SA
BRANCH  16  18
HETATM   18  C2  UNL     1      -9.940  14.313  43.557  1.00  0.00     0.300 C 
BRANCH  18  19
HETATM   19  N1  UNL     1      -9.854  15.487  44.367  1.00  0.00    -0.073 N 
HETATM   20  C1  UNL     1      -8.517  16.073  44.129  1.00  0.00     0.267 C 
ATOM     21  H12 UNL     1     -10.046  15.311  45.354  1.00  0.00     0.277 HD
ATOM     22  H11 UNL     1     -10.616  16.145  44.203  1.00  0.00     0.277 HD
ENDBRANCH  18  19
ENDBRANCH  16  18
ENDBRANCH  14  16
ENDBRANCH   1  14
TORSDOF 4
ENDMDL
MODEL 3
REMARK VINA RESULT: -6.837446254      1.581      1.748
REMARK  4 active torsions:
REMARK  status: ('A' for Active; 'I' for Inactive)
REMARK    1  A    between atoms: N1_2  and  C2_5 
REMARK    2  A    between atoms: C2_5  and  C3_6 
REMARK    3  A    between atoms: C3_6  and  N2_8 
REMARK    4  A    between atoms: N2_8  and  C4_10 
ROOT
HETATM    1  C4  UNL     1     -13.350  14.920  42.215  1.00  0.00     0.031 C 
HETATM    2  C5  UNL     1     -13.196  13.562  41.576  1.00  0.00     0.031 C 
HETATM    3  C6  UNL     1     -14.447  12.980  40.978  1.00  0.00     0.003 C 
HETATM    4  C7  UNL     1     -15.559  12.672  41.892  1.00  0.00     0.009 C 
HETATM    5  C8  UNL     1     -16.464  13.754  42.313  1.00  0.00    -0.043 C 
HETATM    6  C9  UNL     1     -17.895  13.189  42.378  1.00  0.00     0.015 C 
HETATM    7  C10 UNL     1     -16.188  14.104  43.751  1.00  0.00     0.014 C 
HETATM    8  C11 UNL     1     -15.171  15.162  43.955  1.00  0.00    -0.011 C 
HETATM    9  C12 UNL     1     -15.615  16.411  43.207  1.00  0.00     0.009 C 
HETATM   10  C13 UNL     1     -15.572  16.027  41.755  1.00  0.00    -0.011 C 
HETATM   11  C14 UNL     1     -16.543  14.950  41.427  1.00  0.00     0.014 C 
HETATM   12  C15 UNL     1     -14.166  15.805  41.358  1.00  0.00     0.035 C 
HETATM   13  C16 UNL     1     -13.765  14.777  43.645  1.00  0.00     0.035 C 
ENDROOT
BRANCH   1  14
HETATM   14  N2  UNL     1     -11.994  15.452  42.247  1.00  0.00    -0.374 N 
ATOM     15  H2  UNL     1     -11.658  15.897  41.393  1.00  0.00     0.161 HD
BRANCH  14  16
HETATM   16  C3  UNL     1     -11.110  15.417  43.320  1.00  0.00     0.099 C 
HETATM   17  S1  UNL     1     -11.011  16.506  44.524  1.00  0.00    -0.064 SA
BRANCH  16  18
HETATM   18  C2  UNL     1     -10.135  14.279  43.392  1.00  0.00     0.300 C 
BRANCH  18  19
HETATM   19  N1  UNL     1      -9.022  14.462  42.514  1.00  0.00    -0.073 N 
HETATM   20  C1  UNL     1      -9.225  13.547  41.370  1.00  0.00     0.267 C 
ATOM     21  H12 UNL     1      -8.121  14.335  42.975  1.00  0.00     0.277 HD
ATOM     22  H11 UNL     1      -8.889  15.434  42.233  1.00  0.00     0.277 HD
ENDBRANCH  18  19
ENDBRANCH  16  18
ENDBRANCH  14  16
ENDBRANCH   1  14
TORSDOF 4
ENDMDL
MODEL 4
REMARK VINA RESULT: -6.831121563      1.450      2.030
REMARK  4 active torsions:
REMARK  status: ('A' for Active; 'I' for Inactive)
REMARK    1  A    between atoms: N1_2  and  C2_5 
REMARK    2  A    between atoms: C2_5  and  C3_6 
REMARK    3  A    between atoms: C3_6  and  N2_8 
REMARK    4  A    between atoms: N2_8  and  C4_10 
ROOT
HETATM    1  C4  UNL     1     -13.358  15.521  42.878  1.00  0.00     0.031 C 
HETATM    2  C5  UNL     1     -12.616  14.404  42.189  1.00  0.00     0.031 C 
HETATM    3  C6  UNL     1     -13.422  13.593  41.214  1.00  0.00     0.003 C 
HETATM    4  C7  UNL     1     -14.552  12.815  41.747  1.00  0.00     0.009 C 
HETATM    5  C8  UNL     1     -15.837  13.489  41.993  1.00  0.00    -0.043 C 
HETATM    6  C9  UNL     1     -16.972  12.524  41.602  1.00  0.00     0.015 C 
HETATM    7  C10 UNL     1     -16.042  13.647  43.476  1.00  0.00     0.014 C 
HETATM    8  C11 UNL     1     -15.513  14.905  44.052  1.00  0.00    -0.011 C 
HETATM    9  C12 UNL     1     -16.155  16.079  43.325  1.00  0.00     0.009 C 
HETATM   10  C13 UNL     1     -15.645  15.985  41.915  1.00  0.00    -0.011 C 
HETATM   11  C14 UNL     1     -16.097  14.744  41.232  1.00  0.00     0.014 C 
HETATM   12  C15 UNL     1     -14.193  16.262  41.910  1.00  0.00     0.035 C 
HETATM   13  C16 UNL     1     -14.028  15.014  44.116  1.00  0.00     0.035 C 
ENDROOT
BRANCH   1  14
HETATM   14  N2  UNL     1     -12.304  16.416  43.338  1.00  0.00    -0.374 N 
ATOM     15  H2  UNL     1     -11.413  16.365  42.842  1.00  0.00     0.161 HD
BRANCH  14  16
HETATM   16  C3  UNL     1     -12.384  17.333  44.381  1.00  0.00     0.099 C 
HETATM   17  S1  UNL     1     -11.476  17.340  45.730  1.00  0.00    -0.064 SA
BRANCH  16  18
HETATM   18  C2  UNL     1     -13.407  18.425  44.281  1.00  0.00     0.300 C 
BRANCH  18  19
HETATM   19  N1  UNL     1     -12.889  19.597  43.650  1.00  0.00    -0.073 N 
HETATM   20  C1  UNL     1     -13.774  20.718  44.035  1.00  0.00     0.267 C 
ATOM     21  H12 UNL     1     -12.784  19.498  42.640  1.00  0.00     0.277 HD
ATOM     22  H11 UNL     1     -11.907  19.768  43.865  1.00  0.00     0.277 HD
ENDBRANCH  18  19
ENDBRANCH  16  18
ENDBRANCH  14  16
ENDBRANCH   1  14
TORSDOF 4
ENDMDL
MODEL 5
REMARK VINA RESULT: -6.800610375      1.187      1.366
REMARK  4 active torsions:
REMARK  status: ('A' for Active; 'I' for Inactive)
REMARK    1  A    between atoms: N1_2  and  C2_5 
REMARK    2  A    between atoms: C2_5  and  C3_6 
REMARK    3  A    between atoms: C3_6  and  N2_8 
REMARK    4  A    between atoms: N2_8  and  C4_10 
ROOT
HETATM    1  C4  UNL     1     -13.345  15.603  42.961  1.00  0.00     0.031 C 
HETATM    2  C5  UNL     1     -12.560  14.528  42.252  1.00  0.00     0.031 C 
HETATM    3  C6  UNL     1     -13.329  13.718  41.246  1.00  0.00     0.003 C 
HETATM    4  C7  UNL     1     -14.440  12.891  41.745  1.00  0.00     0.009 C 
HETATM    5  C8  UNL     1     -15.748  13.518  41.992  1.00  0.00    -0.043 C 
HETATM    6  C9  UNL     1     -16.847  12.530  41.561  1.00  0.00     0.015 C 
HETATM    7  C10 UNL     1     -15.976  13.631  43.475  1.00  0.00     0.014 C 
HETATM    8  C11 UNL     1     -15.494  14.890  44.090  1.00  0.00    -0.011 C 
HETATM    9  C12 UNL     1     -16.164  16.061  43.385  1.00  0.00     0.009 C 
HETATM   10  C13 UNL     1     -15.634  16.021  41.980  1.00  0.00    -0.011 C 
HETATM   11  C14 UNL     1     -16.038  14.784  41.259  1.00  0.00     0.014 C 
HETATM   12  C15 UNL     1     -14.191  16.342  42.001  1.00  0.00     0.035 C 
HETATM   13  C16 UNL     1     -14.014  15.043  44.176  1.00  0.00     0.035 C 
ENDROOT
BRANCH   1  14
HETATM   14  N2  UNL     1     -12.325  16.518  43.457  1.00  0.00    -0.374 N 
ATOM     15  H2  UNL     1     -11.396  16.432  43.044  1.00  0.00     0.161 HD
BRANCH  14  16
HETATM   16  C3  UNL     1     -12.485  17.495  44.433  1.00  0.00     0.099 C 
HETATM   17  S1  UNL     1     -13.542  18.731  44.396  1.00  0.00    -0.064 SA
BRANCH  16  18
HETATM   18  C2  UNL     1     -11.602  17.432  45.644  1.00  0.00     0.300 C 
BRANCH  18  19
HETATM   19  N1  UNL     1     -12.156  18.138  46.756  1.00  0.00    -0.073 N 
HETATM   20  C1  UNL     1     -11.152  19.143  47.168  1.00  0.00     0.267 C 
ATOM     21  H12 UNL     1     -12.446  17.524  47.518  1.00  0.00     0.277 HD
ATOM     22  H11 UNL     1     -13.072  18.542  46.560  1.00  0.00     0.277 HD
ENDBRANCH  18  19
ENDBRANCH  16  18
ENDBRANCH  14  16
ENDBRANCH   1  14
TORSDOF 4
ENDMDL
