MODEL 1
REMARK VINA RESULT: -5.969367009      0.000      0.000
REMARK  5 active torsions:
REMARK  status: ('A' for Active; 'I' for Inactive)
REMARK    1  A    between atoms: C1_2  and  C2_4 
REMARK    2  A    between atoms: C2_4  and  C3_5 
REMARK    3  A    between atoms: C3_5  and  C4_6 
REMARK    4  A    between atoms: C4_6  and  C5_7 
REMARK    5  A    between atoms: C5_7  and  N2_8 
ROOT
HETATM    1  N2  UNL     1      -4.328   4.429  -2.047  1.00  0.00    -0.283 N 
HETATM    2  N3  UNL     1      -4.682   3.215  -1.584  1.00  0.00    -0.291 N 
ATOM      3  H3  UNL     1      -5.192   3.158  -0.703  1.00  0.00     0.188 HD
HETATM    4  C6  UNL     1      -4.393   2.082  -2.233  1.00  0.00     0.096 A 
HETATM    5 BR1  UNL     1      -4.929   0.379  -1.515  1.00  0.00    -0.030 Br
HETATM    6  C7  UNL     1      -3.707   2.189  -3.418  1.00  0.00     0.060 A 
HETATM    7  C8  UNL     1      -3.338   3.420  -3.906  1.00  0.00     0.049 A 
HETATM    8 BR2  UNL     1      -2.385   3.638  -5.541  1.00  0.00    -0.048 Br
HETATM    9  C9  UNL     1      -3.666   4.579  -3.185  1.00  0.00     0.114 A 
HETATM   10 BR3  UNL     1      -3.170   6.285  -3.876  1.00  0.00    -0.028 Br
ENDROOT
BRANCH   1  11
HETATM   11  C5  UNL     1      -4.681   5.611  -1.249  1.00  0.00     0.150 C 
BRANCH  11  12
HETATM   12  C4  UNL     1      -5.804   5.293  -0.276  1.00  0.00     0.022 C 
BRANCH  12  13
HETATM   13  C3  UNL     1      -5.890   6.342   0.787  1.00  0.00     0.010 C 
BRANCH  13  14
HETATM   14  C2  UNL     1      -4.661   6.380   1.631  1.00  0.00     0.099 C 
BRANCH  14  15
HETATM   15  C1  UNL     1      -4.260   5.094   2.233  1.00  0.00     0.231 C 
HETATM   16  N1  UNL     1      -3.073   4.498   1.669  1.00  0.00    -0.062 NA
HETATM   17  O1  UNL     1      -4.882   4.550   3.157  1.00  0.00    -0.277 OA
ENDBRANCH  14  15
ENDBRANCH  13  14
ENDBRANCH  12  13
ENDBRANCH  11  12
ENDBRANCH   1  11
TORSDOF 5
ENDMDL
MODEL 2
REMARK VINA RESULT: -5.962629185      3.361      4.656
REMARK  5 active torsions:
REMARK  status: ('A' for Active; 'I' for Inactive)
REMARK    1  A    between atoms: C1_2  and  C2_4 
REMARK    2  A    between atoms: C2_4  and  C3_5 
REMARK    3  A    between atoms: C3_5  and  C4_6 
REMARK    4  A    between atoms: C4_6  and  C5_7 
REMARK    5  A    between atoms: C5_7  and  N2_8 
ROOT
HETATM    1  N2  UNL     1      -4.886   5.444  -5.030  1.00  0.00    -0.283 N 
HETATM    2  N3  UNL     1      -4.089   6.439  -5.465  1.00  0.00    -0.291 N 
ATOM      3  H3  UNL     1      -3.619   7.026  -4.776  1.00  0.00     0.188 HD
HETATM    4  C6  UNL     1      -3.890   6.689  -6.763  1.00  0.00     0.096 A 
HETATM    5 BR1  UNL     1      -2.740   8.128  -7.318  1.00  0.00    -0.030 Br
HETATM    6  C7  UNL     1      -4.535   5.882  -7.669  1.00  0.00     0.060 A 
HETATM    7  C8  UNL     1      -5.351   4.861  -7.243  1.00  0.00     0.049 A 
HETATM    8 BR2  UNL     1      -6.273   3.707  -8.446  1.00  0.00    -0.048 Br
HETATM    9  C9  UNL     1      -5.526   4.641  -5.867  1.00  0.00     0.114 A 
HETATM   10 BR3  UNL     1      -6.642   3.212  -5.280  1.00  0.00    -0.028 Br
ENDROOT
BRANCH   1  11
HETATM   11  C5  UNL     1      -5.050   5.264  -3.581  1.00  0.00     0.150 C 
BRANCH  11  12
HETATM   12  C4  UNL     1      -3.826   5.762  -2.830  1.00  0.00     0.022 C 
BRANCH  12  13
HETATM   13  C3  UNL     1      -3.776   5.170  -1.457  1.00  0.00     0.010 C 
BRANCH  13  14
HETATM   14  C2  UNL     1      -4.382   6.075  -0.439  1.00  0.00     0.099 C 
BRANCH  14  15
HETATM   15  C1  UNL     1      -5.659   5.616   0.143  1.00  0.00     0.231 C 
HETATM   16  N1  UNL     1      -5.591   5.214   1.527  1.00  0.00    -0.062 NA
HETATM   17  O1  UNL     1      -6.722   5.574  -0.493  1.00  0.00    -0.277 OA
ENDBRANCH  14  15
ENDBRANCH  13  14
ENDBRANCH  12  13
ENDBRANCH  11  12
ENDBRANCH   1  11
TORSDOF 5
ENDMDL
MODEL 3
REMARK VINA RESULT: -5.924458348      2.629      2.919
REMARK  5 active torsions:
REMARK  status: ('A' for Active; 'I' for Inactive)
REMARK    1  A    between atoms: C1_2  and  C2_4 
REMARK    2  A    between atoms: C2_4  and  C3_5 
REMARK    3  A    between atoms: C3_5  and  C4_6 
REMARK    4  A    between atoms: C4_6  and  C5_7 
REMARK    5  A    between atoms: C5_7  and  N2_8 
ROOT
HETATM    1  N2  UNL     1      -4.675   5.078  -4.398  1.00  0.00    -0.283 N 
HETATM    2  N3  UNL     1      -5.304   3.903  -4.208  1.00  0.00    -0.291 N 
ATOM      3  H3  UNL     1      -5.402   3.549  -3.257  1.00  0.00     0.188 HD
HETATM    4  C6  UNL     1      -5.807   3.182  -5.216  1.00  0.00     0.096 A 
HETATM    5 BR1  UNL     1      -6.695   1.509  -4.875  1.00  0.00    -0.030 Br
HETATM    6  C7  UNL     1      -5.661   3.684  -6.487  1.00  0.00     0.060 A 
HETATM    7  C8  UNL     1      -5.023   4.882  -6.699  1.00  0.00     0.049 A 
HETATM    8 BR2  UNL     1      -4.788   5.633  -8.434  1.00  0.00    -0.048 Br
HETATM    9  C9  UNL     1      -4.513   5.600  -5.605  1.00  0.00     0.114 A 
HETATM   10 BR3  UNL     1      -3.645   7.271  -5.902  1.00  0.00    -0.028 Br
ENDROOT
BRANCH   1  11
HETATM   11  C5  UNL     1      -4.145   5.785  -3.224  1.00  0.00     0.150 C 
BRANCH  11  12
HETATM   12  C4  UNL     1      -4.422   5.003  -1.950  1.00  0.00     0.022 C 
BRANCH  12  13
HETATM   13  C3  UNL     1      -4.391   5.910  -0.761  1.00  0.00     0.010 C 
BRANCH  13  14
HETATM   14  C2  UNL     1      -5.598   5.742   0.099  1.00  0.00     0.099 C 
BRANCH  14  15
HETATM   15  C1  UNL     1      -5.431   6.121   1.515  1.00  0.00     0.231 C 
HETATM   16  N1  UNL     1      -5.254   5.016   2.428  1.00  0.00    -0.062 NA
HETATM   17  O1  UNL     1      -5.437   7.295   1.913  1.00  0.00    -0.277 OA
ENDBRANCH  14  15
ENDBRANCH  13  14
ENDBRANCH  12  13
ENDBRANCH  11  12
ENDBRANCH   1  11
TORSDOF 5
ENDMDL
MODEL 4
REMARK VINA RESULT: -5.913784088      2.692      3.324
REMARK  5 active torsions:
REMARK  status: ('A' for Active; 'I' for Inactive)
REMARK    1  A    between atoms: C1_2  and  C2_4 
REMARK    2  A    between atoms: C2_4  and  C3_5 
REMARK    3  A    between atoms: C3_5  and  C4_6 
REMARK    4  A    between atoms: C4_6  and  C5_7 
REMARK    5  A    between atoms: C5_7  and  N2_8 
ROOT
HETATM    1  N2  UNL     1      -4.830   5.121  -3.907  1.00  0.00    -0.283 N 
HETATM    2  N3  UNL     1      -6.087   5.562  -3.705  1.00  0.00    -0.291 N 
ATOM      3  H3  UNL     1      -6.266   6.185  -2.917  1.00  0.00     0.188 HD
HETATM    4  C6  UNL     1      -7.109   5.215  -4.494  1.00  0.00     0.096 A 
HETATM    5 BR1  UNL     1      -8.881   5.880  -4.149  1.00  0.00    -0.030 Br
HETATM    6  C7  UNL     1      -6.838   4.376  -5.548  1.00  0.00     0.060 A 
HETATM    7  C8  UNL     1      -5.562   3.918  -5.770  1.00  0.00     0.049 A 
HETATM    8 BR2  UNL     1      -5.120   2.752  -7.211  1.00  0.00    -0.048 Br
HETATM    9  C9  UNL     1      -4.524   4.311  -4.910  1.00  0.00     0.114 A 
HETATM   10 BR3  UNL     1      -2.751   3.689  -5.233  1.00  0.00    -0.028 Br
ENDROOT
BRANCH   1  11
HETATM   11  C5  UNL     1      -3.781   5.548  -2.971  1.00  0.00     0.150 C 
BRANCH  11  12
HETATM   12  C4  UNL     1      -4.036   4.992  -1.580  1.00  0.00     0.022 C 
BRANCH  12  13
HETATM   13  C3  UNL     1      -4.320   6.100  -0.615  1.00  0.00     0.010 C 
BRANCH  13  14
HETATM   14  C2  UNL     1      -5.515   5.810   0.228  1.00  0.00     0.099 C 
BRANCH  14  15
HETATM   15  C1  UNL     1      -5.389   6.162   1.656  1.00  0.00     0.231 C 
HETATM   16  N1  UNL     1      -5.284   5.039   2.556  1.00  0.00    -0.062 NA
HETATM   17  O1  UNL     1      -5.371   7.330   2.072  1.00  0.00    -0.277 OA
ENDBRANCH  14  15
ENDBRANCH  13  14
ENDBRANCH  12  13
ENDBRANCH  11  12
ENDBRANCH   1  11
TORSDOF 5
ENDMDL
MODEL 5
REMARK VINA RESULT: -5.907329824      2.880      3.176
REMARK  5 active torsions:
REMARK  status: ('A' for Active; 'I' for Inactive)
REMARK    1  A    between atoms: C1_2  and  C2_4 
REMARK    2  A    between atoms: C2_4  and  C3_5 
REMARK    3  A    between atoms: C3_5  and  C4_6 
REMARK    4  A    between atoms: C4_6  and  C5_7 
REMARK    5  A    between atoms: C5_7  and  N2_8 
ROOT
HETATM    1  N2  UNL     1      -4.842   4.481  -4.366  1.00  0.00    -0.283 N 
HETATM    2  N3  UNL     1      -6.015   3.847  -4.559  1.00  0.00    -0.291 N 
ATOM      3  H3  UNL     1      -6.450   3.372  -3.769  1.00  0.00     0.188 HD
HETATM    4  C6  UNL     1      -6.631   3.816  -5.745  1.00  0.00     0.096 A 
HETATM    5 BR1  UNL     1      -8.305   2.891  -5.955  1.00  0.00    -0.030 Br
HETATM    6  C7  UNL     1      -6.022   4.465  -6.792  1.00  0.00     0.060 A 
HETATM    7  C8  UNL     1      -4.826   5.118  -6.612  1.00  0.00     0.049 A 
HETATM    8 BR2  UNL     1      -3.930   6.037  -8.020  1.00  0.00    -0.048 Br
HETATM    9  C9  UNL     1      -4.220   5.120  -5.345  1.00  0.00     0.114 A 
HETATM   10 BR3  UNL     1      -2.572   6.044  -5.095  1.00  0.00    -0.028 Br
ENDROOT
BRANCH   1  11
HETATM   11  C5  UNL     1      -4.241   4.442  -3.026  1.00  0.00     0.150 C 
BRANCH  11  12
HETATM   12  C4  UNL     1      -4.997   5.346  -2.065  1.00  0.00     0.022 C 
BRANCH  12  13
HETATM   13  C3  UNL     1      -4.046   6.055  -1.154  1.00  0.00     0.010 C 
BRANCH  13  14
HETATM   14  C2  UNL     1      -4.652   6.325   0.182  1.00  0.00     0.099 C 
BRANCH  14  15
HETATM   15  C1  UNL     1      -4.325   5.348   1.239  1.00  0.00     0.231 C 
HETATM   16  N1  UNL     1      -5.364   5.137   2.219  1.00  0.00    -0.062 NA
HETATM   17  O1  UNL     1      -3.245   4.743   1.299  1.00  0.00    -0.277 OA
ENDBRANCH  14  15
ENDBRANCH  13  14
ENDBRANCH  12  13
ENDBRANCH  11  12
ENDBRANCH   1  11
TORSDOF 5
ENDMDL
