MODEL 1
REMARK VINA RESULT: -5.955771277      0.000      0.000
REMARK  3 active torsions:
REMARK  status: ('A' for Active; 'I' for Inactive)
REMARK    1  A    between atoms: N1_2  and  C2_5 
REMARK    2  A    between atoms: C2_5  and  C3_6 
REMARK    3  A    between atoms: C3_6  and  N3_10 
ROOT
HETATM    1  N3  UNL     1      13.992  15.954  60.930  1.00  0.00    -0.345 N 
HETATM    2  C4  UNL     1      13.346  17.181  61.347  1.00  0.00     0.153 C 
HETATM    3  C5  UNL     1      12.767  17.047  62.743  1.00  0.00     0.252 C 
HETATM    4  N4  UNL     1      13.710  17.301  63.779  1.00  0.00    -0.072 N 
ATOM      5  H41 UNL     1      14.664  17.296  63.416  1.00  0.00     0.277 HD
ATOM      6  H42 UNL     1      13.774  16.508  64.418  1.00  0.00     0.277 HD
HETATM    7  C6  UNL     1      13.430  18.544  64.509  1.00  0.00     0.259 C 
HETATM    8  C7  UNL     1      14.652  18.807  65.385  1.00  0.00     0.259 C 
HETATM    9  N5  UNL     1      15.719  19.238  64.509  1.00  0.00    -0.072 N 
ATOM     10  H51 UNL     1      15.642  20.235  64.311  1.00  0.00     0.277 HD
ATOM     11  H52 UNL     1      15.586  18.868  63.568  1.00  0.00     0.277 HD
HETATM   12  C8  UNL     1      17.030  18.917  65.002  1.00  0.00     0.259 C 
HETATM   13  C9  UNL     1      17.984  19.014  63.807  1.00  0.00     0.259 C 
HETATM   14  N6  UNL     1      17.457  18.375  62.643  1.00  0.00    -0.072 N 
ATOM     15  H61 UNL     1      17.486  19.009  61.844  1.00  0.00     0.277 HD
ATOM     16  H62 UNL     1      16.448  18.251  62.729  1.00  0.00     0.277 HD
HETATM   17  C10 UNL     1      18.096  17.122  62.318  1.00  0.00     0.260 C 
HETATM   18  C11 UNL     1      17.579  16.647  60.989  1.00  0.00     0.261 C 
HETATM   19  N7  UNL     1      16.195  16.947  60.780  1.00  0.00    -0.058 N 
ATOM     20  H71 UNL     1      15.995  17.229  59.821  1.00  0.00     0.279 HD
ATOM     21  H72 UNL     1      15.908  17.810  61.242  1.00  0.00     0.279 HD
HETATM   22  C12 UNL     1      15.407  15.803  61.200  1.00  0.00     0.358 C 
ENDROOT
BRANCH   1  23
HETATM   23  C3  UNL     1      13.224  14.950  60.281  1.00  0.00     0.100 C 
HETATM   24  N2  UNL     1      11.990  15.158  59.993  1.00  0.00    -0.388 N 
ATOM     25  H22 UNL     1      11.439  14.438  59.526  1.00  0.00     0.157 HD
ATOM     26  H21 UNL     1      11.556  16.050  60.232  1.00  0.00     0.157 HD
BRANCH  23  27
HETATM   27  C2  UNL     1      13.845  13.676  59.939  1.00  0.00     0.307 C 
BRANCH  27  28
HETATM   28  N1  UNL     1      13.545  13.182  58.622  1.00  0.00    -0.072 N 
HETATM   29  C1  UNL     1      13.134  11.805  58.580  1.00  0.00     0.267 C 
ATOM     30  H12 UNL     1      14.336  13.336  57.997  1.00  0.00     0.277 HD
ATOM     31  H11 UNL     1      12.848  13.775  58.171  1.00  0.00     0.277 HD
ENDBRANCH  27  28
ENDBRANCH  23  27
ENDBRANCH   1  23
TORSDOF 3
ENDMDL
MODEL 2
REMARK VINA RESULT: -5.880739523      1.285      3.452
REMARK  3 active torsions:
REMARK  status: ('A' for Active; 'I' for Inactive)
REMARK    1  A    between atoms: N1_2  and  C2_5 
REMARK    2  A    between atoms: C2_5  and  C3_6 
REMARK    3  A    between atoms: C3_6  and  N3_10 
ROOT
HETATM    1  N3  UNL     1      13.636  16.034  62.488  1.00  0.00    -0.345 N 
HETATM    2  C4  UNL     1      14.954  15.434  62.520  1.00  0.00     0.153 C 
HETATM    3  C5  UNL     1      15.744  15.786  61.273  1.00  0.00     0.252 C 
HETATM    4  N4  UNL     1      16.414  17.041  61.357  1.00  0.00    -0.072 N 
ATOM      5  H41 UNL     1      16.061  17.593  62.138  1.00  0.00     0.277 HD
ATOM      6  H42 UNL     1      16.142  17.653  60.587  1.00  0.00     0.277 HD
HETATM    7  C6  UNL     1      17.873  16.900  61.429  1.00  0.00     0.259 C 
HETATM    8  C7  UNL     1      18.417  18.282  61.779  1.00  0.00     0.259 C 
HETATM    9  N5  UNL     1      18.097  18.526  63.168  1.00  0.00    -0.072 N 
ATOM     10  H51 UNL     1      18.790  18.096  63.779  1.00  0.00     0.277 HD
ATOM     11  H52 UNL     1      17.272  17.996  63.447  1.00  0.00     0.277 HD
HETATM   12  C8  UNL     1      17.937  19.920  63.483  1.00  0.00     0.259 C 
HETATM   13  C9  UNL     1      17.180  19.985  64.813  1.00  0.00     0.259 C 
HETATM   14  N6  UNL     1      16.068  19.090  64.845  1.00  0.00    -0.072 N 
ATOM     15  H61 UNL     1      16.105  18.504  65.680  1.00  0.00     0.277 HD
ATOM     16  H62 UNL     1      16.165  18.373  64.126  1.00  0.00     0.277 HD
HETATM   17  C10 UNL     1      14.783  19.741  64.741  1.00  0.00     0.260 C 
HETATM   18  C11 UNL     1      13.703  18.719  64.965  1.00  0.00     0.261 C 
HETATM   19  N7  UNL     1      14.023  17.432  64.427  1.00  0.00    -0.058 N 
ATOM     20  H71 UNL     1      13.718  16.668  65.030  1.00  0.00     0.279 HD
ATOM     21  H72 UNL     1      15.024  17.236  64.449  1.00  0.00     0.279 HD
HETATM   22  C12 UNL     1      13.467  17.341  63.089  1.00  0.00     0.358 C 
ENDROOT
BRANCH   1  23
HETATM   23  C3  UNL     1      12.566  15.329  61.874  1.00  0.00     0.100 C 
HETATM   24  N2  UNL     1      11.708  15.949  61.148  1.00  0.00    -0.388 N 
ATOM     25  H22 UNL     1      10.940  15.442  60.707  1.00  0.00     0.157 HD
ATOM     26  H21 UNL     1      11.792  16.956  61.010  1.00  0.00     0.157 HD
BRANCH  23  27
HETATM   27  C2  UNL     1      12.446  13.889  62.071  1.00  0.00     0.307 C 
BRANCH  27  28
HETATM   28  N1  UNL     1      11.897  13.162  60.958  1.00  0.00    -0.072 N 
HETATM   29  C1  UNL     1      12.877  12.637  60.046  1.00  0.00     0.267 C 
ATOM     30  H12 UNL     1      11.219  13.737  60.458  1.00  0.00     0.277 HD
ATOM     31  H11 UNL     1      11.284  12.416  61.288  1.00  0.00     0.277 HD
ENDBRANCH  27  28
ENDBRANCH  23  27
ENDBRANCH   1  23
TORSDOF 3
ENDMDL
MODEL 3
REMARK VINA RESULT: -5.840515883      1.281      1.502
REMARK  3 active torsions:
REMARK  status: ('A' for Active; 'I' for Inactive)
REMARK    1  A    between atoms: N1_2  and  C2_5 
REMARK    2  A    between atoms: C2_5  and  C3_6 
REMARK    3  A    between atoms: C3_6  and  N3_10 
ROOT
HETATM    1  N3  UNL     1      14.646  15.560  61.145  1.00  0.00    -0.345 N 
HETATM    2  C4  UNL     1      13.756  16.687  61.331  1.00  0.00     0.153 C 
HETATM    3  C5  UNL     1      13.074  16.627  62.685  1.00  0.00     0.252 C 
HETATM    4  N4  UNL     1      13.851  17.184  63.741  1.00  0.00    -0.072 N 
ATOM      5  H41 UNL     1      14.821  17.313  63.454  1.00  0.00     0.277 HD
ATOM      6  H42 UNL     1      13.990  16.506  64.490  1.00  0.00     0.277 HD
HETATM    7  C6  UNL     1      13.286  18.436  64.261  1.00  0.00     0.259 C 
HETATM    8  C7  UNL     1      14.349  19.034  65.177  1.00  0.00     0.259 C 
HETATM    9  N5  UNL     1      15.405  19.542  64.330  1.00  0.00    -0.072 N 
ATOM     10  H51 UNL     1      15.174  20.473  63.984  1.00  0.00     0.277 HD
ATOM     11  H52 UNL     1      15.433  19.035  63.445  1.00  0.00     0.277 HD
HETATM   12  C8  UNL     1      16.697  19.538  64.959  1.00  0.00     0.259 C 
HETATM   13  C9  UNL     1      17.733  19.659  63.837  1.00  0.00     0.259 C 
HETATM   14  N6  UNL     1      17.444  18.788  62.741  1.00  0.00    -0.072 N 
ATOM     15  H61 UNL     1      17.440  19.309  61.864  1.00  0.00     0.277 HD
ATOM     16  H62 UNL     1      16.469  18.489  62.770  1.00  0.00     0.277 HD
HETATM   17  C10 UNL     1      18.322  17.646  62.649  1.00  0.00     0.260 C 
HETATM   18  C11 UNL     1      18.031  16.915  61.367  1.00  0.00     0.261 C 
HETATM   19  N7  UNL     1      16.643  16.921  61.016  1.00  0.00    -0.058 N 
ATOM     20  H71 UNL     1      16.493  17.035  60.014  1.00  0.00     0.279 HD
ATOM     21  H72 UNL     1      16.165  17.768  61.326  1.00  0.00     0.279 HD
HETATM   22  C12 UNL     1      16.031  15.713  61.537  1.00  0.00     0.358 C 
ENDROOT
BRANCH   1  23
HETATM   23  C3  UNL     1      14.134  14.355  60.592  1.00  0.00     0.100 C 
HETATM   24  N2  UNL     1      13.467  14.373  59.496  1.00  0.00    -0.388 N 
ATOM     25  H22 UNL     1      13.100  13.508  59.099  1.00  0.00     0.157 HD
ATOM     26  H21 UNL     1      13.302  15.258  59.015  1.00  0.00     0.157 HD
BRANCH  23  27
HETATM   27  C2  UNL     1      14.370  13.090  61.278  1.00  0.00     0.307 C 
BRANCH  27  28
HETATM   28  N1  UNL     1      13.644  12.915  62.507  1.00  0.00    -0.072 N 
HETATM   29  C1  UNL     1      12.214  12.891  62.358  1.00  0.00     0.267 C 
ATOM     30  H12 UNL     1      13.919  13.625  63.186  1.00  0.00     0.277 HD
ATOM     31  H11 UNL     1      13.965  12.076  62.992  1.00  0.00     0.277 HD
ENDBRANCH  27  28
ENDBRANCH  23  27
ENDBRANCH   1  23
TORSDOF 3
ENDMDL
MODEL 4
REMARK VINA RESULT: -5.840052655      1.211      1.253
REMARK  3 active torsions:
REMARK  status: ('A' for Active; 'I' for Inactive)
REMARK    1  A    between atoms: N1_2  and  C2_5 
REMARK    2  A    between atoms: C2_5  and  C3_6 
REMARK    3  A    between atoms: C3_6  and  N3_10 
ROOT
HETATM    1  N3  UNL     1      14.648  15.540  60.998  1.00  0.00    -0.345 N 
HETATM    2  C4  UNL     1      13.749  16.660  61.188  1.00  0.00     0.153 C 
HETATM    3  C5  UNL     1      13.029  16.563  62.520  1.00  0.00     0.252 C 
HETATM    4  N4  UNL     1      13.773  17.094  63.612  1.00  0.00    -0.072 N 
ATOM      5  H41 UNL     1      14.751  17.233  63.356  1.00  0.00     0.277 HD
ATOM      6  H42 UNL     1      13.893  16.397  64.347  1.00  0.00     0.277 HD
HETATM    7  C6  UNL     1      13.189  18.330  64.148  1.00  0.00     0.259 C 
HETATM    8  C7  UNL     1      14.223  18.907  65.110  1.00  0.00     0.259 C 
HETATM    9  N5  UNL     1      15.301  19.440  64.307  1.00  0.00    -0.072 N 
ATOM     10  H51 UNL     1      15.077  20.379  63.979  1.00  0.00     0.277 HD
ATOM     11  H52 UNL     1      15.357  18.957  63.410  1.00  0.00     0.277 HD
HETATM   12  C8  UNL     1      16.575  19.424  64.973  1.00  0.00     0.259 C 
HETATM   13  C9  UNL     1      17.642  19.576  63.885  1.00  0.00     0.259 C 
HETATM   14  N6  UNL     1      17.388  18.734  62.759  1.00  0.00    -0.072 N 
ATOM     15  H61 UNL     1      17.407  19.277  61.895  1.00  0.00     0.277 HD
ATOM     16  H62 UNL     1      16.414  18.432  62.751  1.00  0.00     0.277 HD
HETATM   17  C10 UNL     1      18.273  17.597  62.662  1.00  0.00     0.260 C 
HETATM   18  C11 UNL     1      18.021  16.900  61.354  1.00  0.00     0.261 C 
HETATM   19  N7  UNL     1      16.644  16.911  60.963  1.00  0.00    -0.058 N 
ATOM     20  H71 UNL     1      16.523  17.051  59.960  1.00  0.00     0.279 HD
ATOM     21  H72 UNL     1      16.154  17.747  61.281  1.00  0.00     0.279 HD
HETATM   22  C12 UNL     1      16.022  15.687  61.434  1.00  0.00     0.358 C 
ENDROOT
BRANCH   1  23
HETATM   23  C3  UNL     1      14.157  14.349  60.399  1.00  0.00     0.100 C 
HETATM   24  N2  UNL     1      13.210  14.397  59.534  1.00  0.00    -0.388 N 
ATOM     25  H22 UNL     1      12.858  13.542  59.104  1.00  0.00     0.157 HD
ATOM     26  H21 UNL     1      12.806  15.297  59.273  1.00  0.00     0.157 HD
BRANCH  23  27
HETATM   27  C2  UNL     1      14.735  13.064  60.773  1.00  0.00     0.307 C 
BRANCH  27  28
HETATM   28  N1  UNL     1      15.650  12.502  59.816  1.00  0.00    -0.072 N 
HETATM   29  C1  UNL     1      16.343  11.327  60.270  1.00  0.00     0.267 C 
ATOM     30  H12 UNL     1      16.317  13.209  59.505  1.00  0.00     0.277 HD
ATOM     31  H11 UNL     1      15.171  12.314  58.935  1.00  0.00     0.277 HD
ENDBRANCH  27  28
ENDBRANCH  23  27
ENDBRANCH   1  23
TORSDOF 3
ENDMDL
MODEL 5
REMARK VINA RESULT: -5.766663107      1.486      3.599
REMARK  3 active torsions:
REMARK  status: ('A' for Active; 'I' for Inactive)
REMARK    1  A    between atoms: N1_2  and  C2_5 
REMARK    2  A    between atoms: C2_5  and  C3_6 
REMARK    3  A    between atoms: C3_6  and  N3_10 
ROOT
HETATM    1  N3  UNL     1      14.257  15.246  62.896  1.00  0.00    -0.345 N 
HETATM    2  C4  UNL     1      15.675  14.966  62.814  1.00  0.00     0.153 C 
HETATM    3  C5  UNL     1      16.260  15.484  61.513  1.00  0.00     0.252 C 
HETATM    4  N4  UNL     1      16.627  16.859  61.558  1.00  0.00    -0.072 N 
ATOM      5  H41 UNL     1      16.220  17.320  62.372  1.00  0.00     0.277 HD
ATOM      6  H42 UNL     1      16.161  17.387  60.820  1.00  0.00     0.277 HD
HETATM    7  C6  UNL     1      18.081  17.059  61.512  1.00  0.00     0.259 C 
HETATM    8  C7  UNL     1      18.318  18.532  61.834  1.00  0.00     0.259 C 
HETATM    9  N5  UNL     1      18.063  18.704  63.247  1.00  0.00    -0.072 N 
ATOM     10  H51 UNL     1      18.884  18.449  63.796  1.00  0.00     0.277 HD
ATOM     11  H52 UNL     1      17.408  18.000  63.585  1.00  0.00     0.277 HD
HETATM   12  C8  UNL     1      17.612  20.025  63.591  1.00  0.00     0.259 C 
HETATM   13  C9  UNL     1      16.971  19.923  64.978  1.00  0.00     0.259 C 
HETATM   14  N6  UNL     1      16.101  18.795  65.088  1.00  0.00    -0.072 N 
ATOM     15  H61 UNL     1      16.340  18.238  65.910  1.00  0.00     0.277 HD
ATOM     16  H62 UNL     1      16.303  18.115  64.355  1.00  0.00     0.277 HD
HETATM   17  C10 UNL     1      14.697  19.132  65.095  1.00  0.00     0.260 C 
HETATM   18  C11 UNL     1      13.904  17.890  65.393  1.00  0.00     0.261 C 
HETATM   19  N7  UNL     1      14.467  16.707  64.814  1.00  0.00    -0.058 N 
ATOM     20  H71 UNL     1      14.396  15.898  65.431  1.00  0.00     0.279 HD
ATOM     21  H72 UNL     1      15.484  16.748  64.754  1.00  0.00     0.279 HD
HETATM   22  C12 UNL     1      13.840  16.482  63.525  1.00  0.00     0.358 C 
ENDROOT
BRANCH   1  23
HETATM   23  C3  UNL     1      13.333  14.309  62.360  1.00  0.00     0.100 C 
HETATM   24  N2  UNL     1      13.279  13.111  62.818  1.00  0.00    -0.388 N 
ATOM     25  H22 UNL     1      12.616  12.438  62.434  1.00  0.00     0.157 HD
ATOM     26  H21 UNL     1      13.904  12.827  63.573  1.00  0.00     0.157 HD
BRANCH  23  27
HETATM   27  C2  UNL     1      12.439  14.714  61.281  1.00  0.00     0.307 C 
BRANCH  27  28
HETATM   28  N1  UNL     1      13.063  14.873  59.995  1.00  0.00    -0.072 N 
HETATM   29  C1  UNL     1      13.641  13.670  59.460  1.00  0.00     0.267 C 
ATOM     30  H12 UNL     1      13.759  15.617  60.028  1.00  0.00     0.277 HD
ATOM     31  H11 UNL     1      12.405  15.278  59.329  1.00  0.00     0.277 HD
ENDBRANCH  27  28
ENDBRANCH  23  27
ENDBRANCH   1  23
TORSDOF 3
ENDMDL
