MODEL 1
REMARK VINA RESULT: -7.216682193      0.000      0.000
REMARK  5 active torsions:
REMARK  status: ('A' for Active; 'I' for Inactive)
REMARK       I    between atoms: C1_4  and  N3_6 
REMARK    1  A    between atoms: N3_6  and  N4_8 
REMARK    2  A    between atoms: N4_8  and  C2_10 
REMARK    3  A    between atoms: C2_10  and  N5_12 
REMARK    4  A    between atoms: N5_12  and  C3_14 
REMARK    5  A    between atoms: C5_17  and  C6_18 
ROOT
HETATM    1  C2  UNL     1      13.968  11.626  59.523  1.00  0.00     0.187 C 
HETATM    2  S1  UNL     1      15.476  11.285  60.023  1.00  0.00    -0.040 SA
ENDROOT
BRANCH   1   3
HETATM    3  N4  UNL     1      13.588  11.402  58.190  1.00  0.00    -0.274 N 
ATOM      4  H4  UNL     1      13.141  10.512  57.967  1.00  0.00     0.189 HD
BRANCH   3   5
HETATM    5  N3  UNL     1      13.778  12.307  57.154  1.00  0.00    -0.272 N 
HETATM    6  C1  UNL     1      14.943  12.181  56.352  1.00  0.00     0.200 C 
HETATM    7  N1  UNL     1      15.321  11.074  55.841  1.00  0.00    -0.372 N 
HETATM    8  N2  UNL     1      15.694  13.387  56.136  1.00  0.00    -0.062 NA
ATOM      9  H12 UNL     1      16.157  10.983  55.266  1.00  0.00     0.158 HD
ATOM     10  H11 UNL     1      14.788  10.218  55.995  1.00  0.00     0.158 HD
ATOM     11  H3  UNL     1      13.096  13.044  56.973  1.00  0.00     0.189 HD
ENDBRANCH   3   5
ENDBRANCH   1   3
BRANCH   1  12
HETATM   12  N5  UNL     1      13.044  12.155  60.460  1.00  0.00    -0.357 N 
ATOM     13  H5  UNL     1      12.282  11.564  60.791  1.00  0.00     0.162 HD
BRANCH  12  14
HETATM   14  C3  UNL     1      13.152  13.506  60.961  1.00  0.00     0.131 C 
HETATM   15  C4  UNL     1      11.917  13.850  61.722  1.00  0.00     0.198 C 
HETATM   16  O1  UNL     1      11.893  15.173  62.096  1.00  0.00    -0.351 OA
HETATM   17  C5  UNL     1      12.148  16.068  61.094  1.00  0.00     0.350 C 
HETATM   18  O3  UNL     1      12.338  15.480  59.850  1.00  0.00    -0.351 OA
HETATM   19  C7  UNL     1      13.316  14.511  59.840  1.00  0.00     0.198 C 
BRANCH  17  20
HETATM   20  C6  UNL     1      13.267  16.931  61.495  1.00  0.00     0.286 C 
HETATM   21  N6  UNL     1      13.662  16.995  62.841  1.00  0.00    -0.058 NA
HETATM   22  O2  UNL     1      13.867  17.608  60.643  1.00  0.00    -0.271 OA
ENDBRANCH  17  20
ENDBRANCH  12  14
ENDBRANCH   1  12
TORSDOF 5
ENDMDL
MODEL 2
REMARK VINA RESULT: -7.154801867      1.864      2.444
REMARK  5 active torsions:
REMARK  status: ('A' for Active; 'I' for Inactive)
REMARK       I    between atoms: C1_4  and  N3_6 
REMARK    1  A    between atoms: N3_6  and  N4_8 
REMARK    2  A    between atoms: N4_8  and  C2_10 
REMARK    3  A    between atoms: C2_10  and  N5_12 
REMARK    4  A    between atoms: N5_12  and  C3_14 
REMARK    5  A    between atoms: C5_17  and  C6_18 
ROOT
HETATM    1  C2  UNL     1      14.178  11.539  58.420  1.00  0.00     0.187 C 
HETATM    2  S1  UNL     1      15.691  11.941  57.984  1.00  0.00    -0.040 SA
ENDROOT
BRANCH   1   3
HETATM    3  N4  UNL     1      13.289  10.979  57.490  1.00  0.00    -0.274 N 
ATOM      4  H4  UNL     1      12.436  10.547  57.847  1.00  0.00     0.189 HD
BRANCH   3   5
HETATM    5  N3  UNL     1      13.489  10.971  56.115  1.00  0.00    -0.272 N 
HETATM    6  C1  UNL     1      13.731   9.726  55.475  1.00  0.00     0.200 C 
HETATM    7  N1  UNL     1      13.007   8.692  55.667  1.00  0.00    -0.372 N 
HETATM    8  N2  UNL     1      14.853   9.684  54.578  1.00  0.00    -0.062 NA
ATOM      9  H12 UNL     1      13.180   7.799  55.207  1.00  0.00     0.158 HD
ATOM     10  H11 UNL     1      12.211   8.722  56.304  1.00  0.00     0.158 HD
ATOM     11  H3  UNL     1      13.464  11.838  55.578  1.00  0.00     0.189 HD
ENDBRANCH   3   5
ENDBRANCH   1   3
BRANCH   1  12
HETATM   12  N5  UNL     1      13.774  11.767  59.761  1.00  0.00    -0.357 N 
ATOM     13  H5  UNL     1      13.708  10.974  60.399  1.00  0.00     0.162 HD
BRANCH  12  14
HETATM   14  C3  UNL     1      13.454  13.088  60.249  1.00  0.00     0.131 C 
HETATM   15  C4  UNL     1      14.634  13.650  60.966  1.00  0.00     0.198 C 
HETATM   16  O1  UNL     1      14.343  14.843  61.584  1.00  0.00    -0.351 OA
HETATM   17  C5  UNL     1      13.220  14.838  62.365  1.00  0.00     0.350 C 
HETATM   18  O3  UNL     1      12.593  13.601  62.437  1.00  0.00    -0.351 OA
HETATM   19  C7  UNL     1      12.281  13.065  61.208  1.00  0.00     0.198 C 
BRANCH  17  20
HETATM   20  C6  UNL     1      12.321  15.910  61.918  1.00  0.00     0.286 C 
HETATM   21  N6  UNL     1      12.668  16.708  60.815  1.00  0.00    -0.058 NA
HETATM   22  O2  UNL     1      11.251  16.114  62.515  1.00  0.00    -0.271 OA
ENDBRANCH  17  20
ENDBRANCH  12  14
ENDBRANCH   1  12
TORSDOF 5
ENDMDL
MODEL 3
REMARK VINA RESULT: -7.078891537      1.479      1.801
REMARK  5 active torsions:
REMARK  status: ('A' for Active; 'I' for Inactive)
REMARK       I    between atoms: C1_4  and  N3_6 
REMARK    1  A    between atoms: N3_6  and  N4_8 
REMARK    2  A    between atoms: N4_8  and  C2_10 
REMARK    3  A    between atoms: C2_10  and  N5_12 
REMARK    4  A    between atoms: N5_12  and  C3_14 
REMARK    5  A    between atoms: C5_17  and  C6_18 
ROOT
HETATM    1  C2  UNL     1      13.771  11.371  59.020  1.00  0.00     0.187 C 
HETATM    2  S1  UNL     1      15.176  11.395  59.835  1.00  0.00    -0.040 SA
ENDROOT
BRANCH   1   3
HETATM    3  N4  UNL     1      13.574  10.472  57.960  1.00  0.00    -0.274 N 
ATOM      4  H4  UNL     1      13.336   9.508  58.192  1.00  0.00     0.189 HD
BRANCH   3   5
HETATM    5  N3  UNL     1      13.679  10.805  56.615  1.00  0.00    -0.272 N 
HETATM    6  C1  UNL     1      13.764   9.754  55.663  1.00  0.00     0.200 C 
HETATM    7  N1  UNL     1      12.965   8.758  55.653  1.00  0.00    -0.372 N 
HETATM    8  N2  UNL     1      14.814   9.867  54.689  1.00  0.00    -0.062 NA
ATOM      9  H12 UNL     1      13.026   8.004  54.970  1.00  0.00     0.158 HD
ATOM     10  H11 UNL     1      12.220   8.678  56.344  1.00  0.00     0.158 HD
ATOM     11  H3  UNL     1      13.695  11.781  56.318  1.00  0.00     0.189 HD
ENDBRANCH   3   5
ENDBRANCH   1   3
BRANCH   1  12
HETATM   12  N5  UNL     1      12.748  12.277  59.401  1.00  0.00    -0.357 N 
ATOM     13  H5  UNL     1      11.841  12.221  58.938  1.00  0.00     0.162 HD
BRANCH  12  14
HETATM   14  C3  UNL     1      12.953  13.275  60.425  1.00  0.00     0.131 C 
HETATM   15  C4  UNL     1      11.690  13.459  61.195  1.00  0.00     0.198 C 
HETATM   16  O1  UNL     1      11.776  14.504  62.085  1.00  0.00    -0.351 OA
HETATM   17  C5  UNL     1      12.238  15.680  61.563  1.00  0.00     0.350 C 
HETATM   18  O3  UNL     1      12.494  15.627  60.199  1.00  0.00    -0.351 OA
HETATM   19  C7  UNL     1      13.352  14.612  59.836  1.00  0.00     0.198 C 
BRANCH  17  20
HETATM   20  C6  UNL     1      13.398  16.129  62.345  1.00  0.00     0.286 C 
HETATM   21  N6  UNL     1      14.054  17.325  62.013  1.00  0.00    -0.058 NA
HETATM   22  O2  UNL     1      13.802  15.449  63.304  1.00  0.00    -0.271 OA
ENDBRANCH  17  20
ENDBRANCH  12  14
ENDBRANCH   1  12
TORSDOF 5
ENDMDL
MODEL 4
REMARK VINA RESULT: -6.991541390      2.044      2.721
REMARK  5 active torsions:
REMARK  status: ('A' for Active; 'I' for Inactive)
REMARK       I    between atoms: C1_4  and  N3_6 
REMARK    1  A    between atoms: N3_6  and  N4_8 
REMARK    2  A    between atoms: N4_8  and  C2_10 
REMARK    3  A    between atoms: C2_10  and  N5_12 
REMARK    4  A    between atoms: N5_12  and  C3_14 
REMARK    5  A    between atoms: C5_17  and  C6_18 
ROOT
HETATM    1  C2  UNL     1      14.109  12.069  57.541  1.00  0.00     0.187 C 
HETATM    2  S1  UNL     1      15.444  12.993  57.604  1.00  0.00    -0.040 SA
ENDROOT
BRANCH   1   3
HETATM    3  N4  UNL     1      14.137  10.811  56.920  1.00  0.00    -0.274 N 
ATOM      4  H4  UNL     1      14.092   9.985  57.517  1.00  0.00     0.189 HD
BRANCH   3   5
HETATM    5  N3  UNL     1      14.221  10.612  55.548  1.00  0.00    -0.272 N 
HETATM    6  C1  UNL     1      13.942   9.317  55.034  1.00  0.00     0.200 C 
HETATM    7  N1  UNL     1      12.904   8.648  55.360  1.00  0.00    -0.372 N 
HETATM    8  N2  UNL     1      14.902   8.784  54.108  1.00  0.00    -0.062 NA
ATOM      9  H12 UNL     1      12.704   7.719  54.991  1.00  0.00     0.158 HD
ATOM     10  H11 UNL     1      12.223   9.026  56.017  1.00  0.00     0.158 HD
ATOM     11  H3  UNL     1      14.478  11.377  54.924  1.00  0.00     0.189 HD
ENDBRANCH   3   5
ENDBRANCH   1   3
BRANCH   1  12
HETATM   12  N5  UNL     1      12.914  12.561  58.128  1.00  0.00    -0.357 N 
ATOM     13  H5  UNL     1      12.025  12.389  57.657  1.00  0.00     0.162 HD
BRANCH  12  14
HETATM   14  C3  UNL     1      12.919  13.297  59.370  1.00  0.00     0.131 C 
HETATM   15  C4  UNL     1      13.171  12.358  60.500  1.00  0.00     0.198 C 
HETATM   16  O1  UNL     1      13.037  12.974  61.722  1.00  0.00    -0.351 OA
HETATM   17  C5  UNL     1      11.885  13.689  61.894  1.00  0.00     0.350 C 
HETATM   18  O3  UNL     1      11.018  13.625  60.810  1.00  0.00    -0.351 OA
HETATM   19  C7  UNL     1      11.597  13.995  59.616  1.00  0.00     0.198 C 
BRANCH  17  20
HETATM   20  C6  UNL     1      12.227  15.066  62.272  1.00  0.00     0.286 C 
HETATM   21  N6  UNL     1      13.572  15.460  62.362  1.00  0.00    -0.058 NA
HETATM   22  O2  UNL     1      11.326  15.887  62.515  1.00  0.00    -0.271 OA
ENDBRANCH  17  20
ENDBRANCH  12  14
ENDBRANCH   1  12
TORSDOF 5
ENDMDL
MODEL 5
REMARK VINA RESULT: -6.866642866      1.690      2.151
REMARK  5 active torsions:
REMARK  status: ('A' for Active; 'I' for Inactive)
REMARK       I    between atoms: C1_4  and  N3_6 
REMARK    1  A    between atoms: N3_6  and  N4_8 
REMARK    2  A    between atoms: N4_8  and  C2_10 
REMARK    3  A    between atoms: C2_10  and  N5_12 
REMARK    4  A    between atoms: N5_12  and  C3_14 
REMARK    5  A    between atoms: C5_17  and  C6_18 
ROOT
HETATM    1  C2  UNL     1      13.965  11.799  58.454  1.00  0.00     0.187 C 
HETATM    2  S1  UNL     1      15.245  12.679  57.977  1.00  0.00    -0.040 SA
ENDROOT
BRANCH   1   3
HETATM    3  N4  UNL     1      13.187  11.101  57.517  1.00  0.00    -0.274 N 
ATOM      4  H4  UNL     1      12.378  10.583  57.862  1.00  0.00     0.189 HD
BRANCH   3   5
HETATM    5  N3  UNL     1      13.440  11.067  56.152  1.00  0.00    -0.272 N 
HETATM    6  C1  UNL     1      13.718   9.812  55.547  1.00  0.00     0.200 C 
HETATM    7  N1  UNL     1      12.997   8.775  55.733  1.00  0.00    -0.372 N 
HETATM    8  N2  UNL     1      14.874   9.763  54.695  1.00  0.00    -0.062 NA
ATOM      9  H12 UNL     1      13.195   7.875  55.298  1.00  0.00     0.158 HD
ATOM     10  H11 UNL     1      12.176   8.810  56.338  1.00  0.00     0.158 HD
ATOM     11  H3  UNL     1      13.428  11.923  55.597  1.00  0.00     0.189 HD
ENDBRANCH   3   5
ENDBRANCH   1   3
BRANCH   1  12
HETATM   12  N5  UNL     1      13.651  11.750  59.836  1.00  0.00    -0.357 N 
ATOM     13  H5  UNL     1      13.830  10.889  60.354  1.00  0.00     0.162 HD
BRANCH  12  14
HETATM   14  C3  UNL     1      13.085  12.882  60.533  1.00  0.00     0.131 C 
HETATM   15  C4  UNL     1      12.205  13.645  59.602  1.00  0.00     0.198 C 
HETATM   16  O1  UNL     1      11.756  14.818  60.161  1.00  0.00    -0.351 OA
HETATM   17  C5  UNL     1      12.723  15.607  60.720  1.00  0.00     0.350 C 
HETATM   18  O3  UNL     1      14.009  15.103  60.578  1.00  0.00    -0.351 OA
HETATM   19  C7  UNL     1      14.156  13.818  61.050  1.00  0.00     0.198 C 
BRANCH  17  20
HETATM   20  C6  UNL     1      12.368  15.882  62.118  1.00  0.00     0.286 C 
HETATM   21  N6  UNL     1      13.370  16.173  63.057  1.00  0.00    -0.058 NA
HETATM   22  O2  UNL     1      11.177  15.857  62.474  1.00  0.00    -0.271 OA
ENDBRANCH  17  20
ENDBRANCH  12  14
ENDBRANCH   1  12
TORSDOF 5
ENDMDL
