MODEL 1
REMARK VINA RESULT: -5.365335399      0.000      0.000
REMARK  5 active torsions:
REMARK  status: ('A' for Active; 'I' for Inactive)
REMARK    1  A    between atoms: O1_1  and  N1_3 
REMARK    2  A    between atoms: C6_13  and  C7_14 
REMARK    3  A    between atoms: C7_14  and  C8_15 
REMARK    4  A    between atoms: C8_15  and  C9_16 
REMARK    5  A    between atoms: C9_16  and  N3_17 
ROOT
HETATM    1  N1  UNL     1     -36.484  22.668 -21.855  1.00  0.00    -0.162 NA
HETATM    2  C1  UNL     1     -37.291  23.733 -22.368  1.00  0.00     0.288 C 
HETATM    3  O2  UNL     1     -36.696  24.256 -23.483  1.00  0.00    -0.373 OA
HETATM    4  C2  UNL     1     -35.573  23.489 -23.779  1.00  0.00     0.199 C 
HETATM    5  C3  UNL     1     -35.194  22.955 -22.442  1.00  0.00     0.091 C 
HETATM    6  C4  UNL     1     -34.440  23.912 -21.584  1.00  0.00     0.262 C 
HETATM    7  N2  UNL     1     -33.915  23.073 -20.537  1.00  0.00    -0.073 N 
ATOM      8  H21 UNL     1     -34.496  23.075 -19.699  1.00  0.00     0.277 HD
ATOM      9  H22 UNL     1     -33.068  23.450 -20.114  1.00  0.00     0.277 HD
HETATM   10  C5  UNL     1     -33.728  21.752 -21.089  1.00  0.00     0.239 C 
HETATM   11  C6  UNL     1     -34.284  21.762 -22.486  1.00  0.00     0.040 C 
ENDROOT
BRANCH  11  12
HETATM   12  C7  UNL     1     -34.986  20.494 -22.854  1.00  0.00     0.010 C 
BRANCH  12  13
HETATM   13  C8  UNL     1     -34.184  19.709 -23.848  1.00  0.00     0.021 C 
BRANCH  13  14
HETATM   14  C9  UNL     1     -34.539  20.065 -25.277  1.00  0.00     0.128 C 
BRANCH  14  15
HETATM   15  N3  UNL     1     -34.617  18.858 -26.099  1.00  0.00    -0.366 N 
HETATM   16  C10 UNL     1     -35.751  18.320 -26.620  1.00  0.00     0.090 A 
HETATM   17  C11 UNL     1     -35.467  17.192 -27.338  1.00  0.00     0.019 A 
HETATM   18  C12 UNL     1     -34.095  17.012 -27.265  1.00  0.00     0.019 A 
HETATM   19  C13 UNL     1     -33.622  18.056 -26.497  1.00  0.00     0.090 A 
ENDBRANCH  14  15
ENDBRANCH  13  14
ENDBRANCH  12  13
ENDBRANCH  11  12
BRANCH   1  20
HETATM   20  O1  UNL     1     -36.467  22.688 -20.508  1.00  0.00    -0.310 OA
ATOM     21  H1  UNL     1     -36.166  21.856 -20.163  1.00  0.00     0.237 HD
ENDBRANCH   1  20
TORSDOF 5
ENDMDL
MODEL 2
REMARK VINA RESULT: -4.802218448      2.715      3.927
REMARK  5 active torsions:
REMARK  status: ('A' for Active; 'I' for Inactive)
REMARK    1  A    between atoms: O1_1  and  N1_3 
REMARK    2  A    between atoms: C6_13  and  C7_14 
REMARK    3  A    between atoms: C7_14  and  C8_15 
REMARK    4  A    between atoms: C8_15  and  C9_16 
REMARK    5  A    between atoms: C9_16  and  N3_17 
ROOT
HETATM    1  N1  UNL     1     -31.703  19.911 -21.641  1.00  0.00    -0.162 NA
HETATM    2  C1  UNL     1     -31.135  18.710 -21.110  1.00  0.00     0.288 C 
HETATM    3  O2  UNL     1     -32.109  17.755 -21.010  1.00  0.00    -0.373 OA
HETATM    4  C2  UNL     1     -33.279  18.264 -21.566  1.00  0.00     0.199 C 
HETATM    5  C3  UNL     1     -33.111  19.729 -21.368  1.00  0.00     0.091 C 
HETATM    6  C4  UNL     1     -33.434  20.209 -19.994  1.00  0.00     0.262 C 
HETATM    7  N2  UNL     1     -33.524  21.638 -20.157  1.00  0.00    -0.073 N 
ATOM      8  H21 UNL     1     -32.658  22.120 -19.915  1.00  0.00     0.277 HD
ATOM      9  H22 UNL     1     -34.122  22.079 -19.459  1.00  0.00     0.277 HD
HETATM   10  C5  UNL     1     -33.953  21.897 -21.511  1.00  0.00     0.239 C 
HETATM   11  C6  UNL     1     -33.998  20.578 -22.232  1.00  0.00     0.040 C 
ENDROOT
BRANCH  11  12
HETATM   12  C7  UNL     1     -33.537  20.662 -23.652  1.00  0.00     0.010 C 
BRANCH  12  13
HETATM   13  C8  UNL     1     -34.322  19.729 -24.524  1.00  0.00     0.021 C 
BRANCH  13  14
HETATM   14  C9  UNL     1     -33.660  19.513 -25.870  1.00  0.00     0.128 C 
BRANCH  14  15
HETATM   15  N3  UNL     1     -34.239  18.350 -26.541  1.00  0.00    -0.366 N 
HETATM   16  C10 UNL     1     -35.562  18.047 -26.614  1.00  0.00     0.090 A 
HETATM   17  C11 UNL     1     -35.756  16.889 -27.316  1.00  0.00     0.019 A 
HETATM   18  C12 UNL     1     -34.502  16.445 -27.699  1.00  0.00     0.019 A 
HETATM   19  C13 UNL     1     -33.608  17.372 -27.202  1.00  0.00     0.090 A 
ENDBRANCH  14  15
ENDBRANCH  13  14
ENDBRANCH  12  13
ENDBRANCH  11  12
BRANCH   1  20
HETATM   20  O1  UNL     1     -31.183  20.995 -21.033  1.00  0.00    -0.310 OA
ATOM     21  H1  UNL     1     -31.608  21.148 -20.197  1.00  0.00     0.237 HD
ENDBRANCH   1  20
TORSDOF 5
ENDMDL
MODEL 3
REMARK VINA RESULT: -4.742013679      3.194      6.950
REMARK  5 active torsions:
REMARK  status: ('A' for Active; 'I' for Inactive)
REMARK    1  A    between atoms: O1_1  and  N1_3 
REMARK    2  A    between atoms: C6_13  and  C7_14 
REMARK    3  A    between atoms: C7_14  and  C8_15 
REMARK    4  A    between atoms: C8_15  and  C9_16 
REMARK    5  A    between atoms: C9_16  and  N3_17 
ROOT
HETATM    1  N1  UNL     1     -35.593  17.201 -26.860  1.00  0.00    -0.162 NA
HETATM    2  C1  UNL     1     -35.475  16.010 -27.645  1.00  0.00     0.288 C 
HETATM    3  O2  UNL     1     -34.160  15.806 -27.961  1.00  0.00    -0.373 OA
HETATM    4  C2  UNL     1     -33.399  16.772 -27.311  1.00  0.00     0.199 C 
HETATM    5  C3  UNL     1     -34.365  17.896 -27.175  1.00  0.00     0.091 C 
HETATM    6  C4  UNL     1     -34.539  18.715 -28.407  1.00  0.00     0.262 C 
HETATM    7  N2  UNL     1     -35.225  19.888 -27.929  1.00  0.00    -0.073 N 
ATOM      8  H21 UNL     1     -36.236  19.835 -28.052  1.00  0.00     0.277 HD
ATOM      9  H22 UNL     1     -35.063  20.708 -28.513  1.00  0.00     0.277 HD
HETATM   10  C5  UNL     1     -34.836  20.091 -26.554  1.00  0.00     0.239 C 
HETATM   11  C6  UNL     1     -33.983  18.921 -26.147  1.00  0.00     0.040 C 
ENDROOT
BRANCH  11  12
HETATM   12  C7  UNL     1     -34.226  18.471 -24.741  1.00  0.00     0.010 C 
BRANCH  12  13
HETATM   13  C8  UNL     1     -34.764  19.594 -23.907  1.00  0.00     0.021 C 
BRANCH  13  14
HETATM   14  C9  UNL     1     -33.697  20.212 -23.026  1.00  0.00     0.128 C 
BRANCH  14  15
HETATM   15  N3  UNL     1     -34.188  21.450 -22.424  1.00  0.00    -0.366 N 
HETATM   16  C10 UNL     1     -34.892  22.423 -23.062  1.00  0.00     0.090 A 
HETATM   17  C11 UNL     1     -35.194  23.445 -22.204  1.00  0.00     0.019 A 
HETATM   18  C12 UNL     1     -34.657  23.100 -20.975  1.00  0.00     0.019 A 
HETATM   19  C13 UNL     1     -34.054  21.873 -21.161  1.00  0.00     0.090 A 
ENDBRANCH  14  15
ENDBRANCH  13  14
ENDBRANCH  12  13
ENDBRANCH  11  12
BRANCH   1  20
HETATM   20  O1  UNL     1     -36.695  17.894 -27.208  1.00  0.00    -0.310 OA
ATOM     21  H1  UNL     1     -36.497  18.819 -27.295  1.00  0.00     0.237 HD
ENDBRANCH   1  20
TORSDOF 5
ENDMDL
MODEL 4
REMARK VINA RESULT: -4.178706311      2.909      4.236
REMARK  5 active torsions:
REMARK  status: ('A' for Active; 'I' for Inactive)
REMARK    1  A    between atoms: O1_1  and  N1_3 
REMARK    2  A    between atoms: C6_13  and  C7_14 
REMARK    3  A    between atoms: C7_14  and  C8_15 
REMARK    4  A    between atoms: C8_15  and  C9_16 
REMARK    5  A    between atoms: C9_16  and  N3_17 
ROOT
HETATM    1  N1  UNL     1     -32.508  19.483 -23.859  1.00  0.00    -0.162 NA
HETATM    2  C1  UNL     1     -31.621  19.182 -22.776  1.00  0.00     0.288 C 
HETATM    3  O2  UNL     1     -32.353  18.791 -21.689  1.00  0.00    -0.373 OA
HETATM    4  C2  UNL     1     -33.691  18.722 -22.064  1.00  0.00     0.199 C 
HETATM    5  C3  UNL     1     -33.759  19.712 -23.174  1.00  0.00     0.091 C 
HETATM    6  C4  UNL     1     -33.852  21.132 -22.731  1.00  0.00     0.262 C 
HETATM    7  N2  UNL     1     -34.240  21.826 -23.932  1.00  0.00    -0.073 N 
ATOM      8  H21 UNL     1     -33.448  22.232 -24.430  1.00  0.00     0.277 HD
ATOM      9  H22 UNL     1     -34.739  22.695 -23.744  1.00  0.00     0.277 HD
HETATM   10  C5  UNL     1     -35.001  20.905 -24.742  1.00  0.00     0.239 C 
HETATM   11  C6  UNL     1     -34.959  19.564 -24.063  1.00  0.00     0.040 C 
ENDROOT
BRANCH  11  12
HETATM   12  C7  UNL     1     -34.851  18.418 -25.019  1.00  0.00     0.010 C 
BRANCH  12  13
HETATM   13  C8  UNL     1     -34.965  18.894 -26.436  1.00  0.00     0.021 C 
BRANCH  13  14
HETATM   14  C9  UNL     1     -34.121  18.068 -27.385  1.00  0.00     0.128 C 
BRANCH  14  15
HETATM   15  N3  UNL     1     -34.839  16.859 -27.785  1.00  0.00    -0.366 N 
HETATM   16  C10 UNL     1     -36.080  16.493 -27.368  1.00  0.00     0.090 A 
HETATM   17  C11 UNL     1     -36.452  15.306 -27.936  1.00  0.00     0.019 A 
HETATM   18  C12 UNL     1     -35.401  14.910 -28.746  1.00  0.00     0.019 A 
HETATM   19  C13 UNL     1     -34.440  15.891 -28.620  1.00  0.00     0.090 A 
ENDBRANCH  14  15
ENDBRANCH  13  14
ENDBRANCH  12  13
ENDBRANCH  11  12
BRANCH   1  20
HETATM   20  O1  UNL     1     -32.076  20.560 -24.543  1.00  0.00    -0.310 OA
ATOM     21  H1  UNL     1     -31.438  20.308 -25.200  1.00  0.00     0.237 HD
ENDBRANCH   1  20
TORSDOF 5
ENDMDL
MODEL 5
REMARK VINA RESULT: -4.155598996      3.898      6.713
REMARK  5 active torsions:
REMARK  status: ('A' for Active; 'I' for Inactive)
REMARK    1  A    between atoms: O1_1  and  N1_3 
REMARK    2  A    between atoms: C6_13  and  C7_14 
REMARK    3  A    between atoms: C7_14  and  C8_15 
REMARK    4  A    between atoms: C8_15  and  C9_16 
REMARK    5  A    between atoms: C9_16  and  N3_17 
ROOT
HETATM    1  N1  UNL     1     -35.641  17.127 -26.963  1.00  0.00    -0.162 NA
HETATM    2  C1  UNL     1     -35.375  15.977 -27.772  1.00  0.00     0.288 C 
HETATM    3  O2  UNL     1     -34.026  15.863 -27.965  1.00  0.00    -0.373 OA
HETATM    4  C2  UNL     1     -33.391  16.846 -27.212  1.00  0.00     0.199 C 
HETATM    5  C3  UNL     1     -34.435  17.905 -27.133  1.00  0.00     0.091 C 
HETATM    6  C4  UNL     1     -34.542  18.760 -28.348  1.00  0.00     0.262 C 
HETATM    7  N2  UNL     1     -35.343  19.871 -27.900  1.00  0.00    -0.073 N 
ATOM      8  H21 UNL     1     -36.332  19.763 -28.123  1.00  0.00     0.277 HD
ATOM      9  H22 UNL     1     -35.177  20.722 -28.438  1.00  0.00     0.277 HD
HETATM   10  C5  UNL     1     -35.099  20.043 -26.487  1.00  0.00     0.239 C 
HETATM   11  C6  UNL     1     -34.217  18.910 -26.039  1.00  0.00     0.040 C 
ENDROOT
BRANCH  11  12
HETATM   12  C7  UNL     1     -34.564  18.391 -24.680  1.00  0.00     0.010 C 
BRANCH  12  13
HETATM   13  C8  UNL     1     -34.638  19.509 -23.685  1.00  0.00     0.021 C 
BRANCH  13  14
HETATM   14  C9  UNL     1     -33.363  20.327 -23.649  1.00  0.00     0.128 C 
BRANCH  14  15
HETATM   15  N3  UNL     1     -32.339  19.640 -22.864  1.00  0.00    -0.366 N 
HETATM   16  C10 UNL     1     -31.200  19.081 -23.352  1.00  0.00     0.090 A 
HETATM   17  C11 UNL     1     -30.465  18.520 -22.345  1.00  0.00     0.019 A 
HETATM   18  C12 UNL     1     -31.171  18.736 -21.173  1.00  0.00     0.019 A 
HETATM   19  C13 UNL     1     -32.308  19.423 -21.543  1.00  0.00     0.090 A 
ENDBRANCH  14  15
ENDBRANCH  13  14
ENDBRANCH  12  13
ENDBRANCH  11  12
BRANCH   1  20
HETATM   20  O1  UNL     1     -36.746  17.766 -27.392  1.00  0.00    -0.310 OA
ATOM     21  H1  UNL     1     -36.686  17.957 -28.321  1.00  0.00     0.237 HD
ENDBRANCH   1  20
TORSDOF 5
ENDMDL
