MODEL 1
REMARK VINA RESULT: -10.294612438      0.000      0.000
REMARK  10 active torsions:
REMARK  status: ('A' for Active; 'I' for Inactive)
REMARK    1  A    between atoms: C2_2  and  C4_4 
REMARK    2  A    between atoms: C4_4  and  C5_5 
REMARK    3  A    between atoms: C5_5  and  N1_6 
REMARK    4  A    between atoms: C5_5  and  C14_16 
REMARK    5  A    between atoms: C15_21  and  C16_22 
REMARK    6  A    between atoms: C16_22  and  N4_23 
REMARK    7  A    between atoms: C19_26  and  O1_27 
REMARK    8  A    between atoms: C19_26  and  C20_29 
REMARK    9  A    between atoms: C20_29  and  C21_30 
REMARK   10  A    between atoms: C26_35  and  C27_36 
ROOT
HETATM    1  C14 UNL     1      54.020   3.255  69.644  1.00  0.00     0.163 A 
HETATM    2  N2  UNL     1      52.811   2.680  69.488  1.00  0.00    -0.280 N 
ATOM      3  H2  UNL     1      52.190   2.804  68.687  1.00  0.00     0.189 HD
HETATM    4  N3  UNL     1      52.564   1.927  70.549  1.00  0.00    -0.280 N 
ATOM      5  H3  UNL     1      51.725   1.371  70.712  1.00  0.00     0.189 HD
HETATM    6  C15 UNL     1      53.621   2.030  71.374  1.00  0.00     0.168 A 
HETATM    7  O2  UNL     1      54.473   2.842  70.785  1.00  0.00    -0.278 OA
ENDROOT
BRANCH   6   8
HETATM    8  C16 UNL     1      53.871   1.407  72.681  1.00  0.00     0.358 C 
BRANCH   8   9
HETATM    9  N4  UNL     1      53.019   0.300  73.004  1.00  0.00     0.096 N 
HETATM   10  C17 UNL     1      53.709  -0.973  73.084  1.00  0.00     0.276 C 
HETATM   11  C18 UNL     1      53.716  -1.474  74.533  1.00  0.00     0.068 C 
HETATM   12  C19 UNL     1      52.346  -1.798  74.995  1.00  0.00     0.065 C 
HETATM   13  C28 UNL     1      51.437  -0.617  74.670  1.00  0.00     0.068 C 
HETATM   14  C29 UNL     1      52.185   0.565  74.136  1.00  0.00     0.276 C 
BRANCH  12  15
HETATM   15  O1  UNL     1      51.886  -2.838  74.147  1.00  0.00    -0.389 OA
ATOM     16  H1  UNL     1      51.728  -3.584  74.713  1.00  0.00     0.210 HD
ENDBRANCH  12  15
BRANCH  12  17
HETATM   17  C20 UNL     1      52.136  -2.225  76.412  1.00  0.00     0.077 C 
BRANCH  17  18
HETATM   18  C21 UNL     1      52.914  -1.543  77.446  1.00  0.00    -0.040 A 
HETATM   19  C22 UNL     1      54.309  -1.673  77.316  1.00  0.00     0.008 A 
HETATM   20  C23 UNL     1      55.142  -1.011  78.168  1.00  0.00     0.001 A 
HETATM   21  C24 UNL     1      54.681  -0.197  79.179  1.00  0.00     0.001 A 
HETATM   22  C25 UNL     1      53.319  -0.088  79.286  1.00  0.00     0.017 A 
HETATM   23  C26 UNL     1      52.415  -0.755  78.430  1.00  0.00     0.054 A 
BRANCH  23  24
HETATM   24  C27 UNL     1      50.971  -0.630  78.688  1.00  0.00     0.418 C 
HETATM   25  F1  UNL     1      50.497  -1.518  79.649  1.00  0.00    -0.166 F 
HETATM   26  F2  UNL     1      50.859   0.612  79.439  1.00  0.00    -0.166 F 
HETATM   27  F3  UNL     1      50.144  -0.395  77.649  1.00  0.00    -0.166 F 
ENDBRANCH  23  24
ENDBRANCH  17  18
ENDBRANCH  12  17
ENDBRANCH   8   9
ENDBRANCH   6   8
BRANCH   1  28
HETATM   28  C5  UNL     1      54.694   4.209  68.638  1.00  0.00     0.158 C 
BRANCH  28  29
HETATM   29  C4  UNL     1      55.017   5.421  69.404  1.00  0.00     0.037 C 
BRANCH  29  30
HETATM   30  C2  UNL     1      56.408   5.828  69.648  1.00  0.00    -0.020 C 
HETATM   31  C1  UNL     1      56.997   6.684  68.547  1.00  0.00     0.009 C 
HETATM   32  C3  UNL     1      57.224   4.489  69.659  1.00  0.00     0.009 C 
ENDBRANCH  29  30
ENDBRANCH  28  29
BRANCH  28  33
HETATM   33  N1  UNL     1      53.949   4.223  67.517  1.00  0.00    -0.384 N 
HETATM   34  C6  UNL     1      52.786   4.745  67.059  1.00  0.00    -0.014 C 
HETATM   35  C7  UNL     1      52.552   6.247  67.073  1.00  0.00     0.053 C 
HETATM   36  C12 UNL     1      51.519   3.972  66.986  1.00  0.00     0.027 C 
HETATM   37  C8  UNL     1      51.743   6.592  65.859  1.00  0.00     0.010 C 
HETATM   38  C9  UNL     1      50.631   5.674  65.511  1.00  0.00    -0.018 C 
HETATM   39  C10 UNL     1      50.265   5.980  64.043  1.00  0.00     0.010 C 
HETATM   40  C11 UNL     1      50.946   4.212  65.554  1.00  0.00     0.014 C 
HETATM   41  C13 UNL     1      50.388   4.437  67.872  1.00  0.00     0.016 C 
ATOM     42  H1  UNL     1      54.399   3.671  66.787  1.00  0.00     0.160 HD
ENDBRANCH  28  33
ENDBRANCH   1  28
TORSDOF 10
ENDMDL
MODEL 2
REMARK VINA RESULT: -10.014120884      2.049      2.933
REMARK  10 active torsions:
REMARK  status: ('A' for Active; 'I' for Inactive)
REMARK    1  A    between atoms: C2_2  and  C4_4 
REMARK    2  A    between atoms: C4_4  and  C5_5 
REMARK    3  A    between atoms: C5_5  and  N1_6 
REMARK    4  A    between atoms: C5_5  and  C14_16 
REMARK    5  A    between atoms: C15_21  and  C16_22 
REMARK    6  A    between atoms: C16_22  and  N4_23 
REMARK    7  A    between atoms: C19_26  and  O1_27 
REMARK    8  A    between atoms: C19_26  and  C20_29 
REMARK    9  A    between atoms: C20_29  and  C21_30 
REMARK   10  A    between atoms: C26_35  and  C27_36 
ROOT
HETATM    1  C14 UNL     1      53.466   1.824  70.559  1.00  0.00     0.163 A 
HETATM    2  N2  UNL     1      53.686   0.497  70.469  1.00  0.00    -0.280 N 
ATOM      3  H2  UNL     1      54.051   0.007  69.651  1.00  0.00     0.189 HD
HETATM    4  N3  UNL     1      53.349  -0.064  71.620  1.00  0.00    -0.280 N 
ATOM      5  H3  UNL     1      53.407  -1.057  71.846  1.00  0.00     0.189 HD
HETATM    6  C15 UNL     1      52.915   0.912  72.436  1.00  0.00     0.168 A 
HETATM    7  O2  UNL     1      53.004   2.032  71.751  1.00  0.00    -0.278 OA
ENDROOT
BRANCH   6   8
HETATM    8  C16 UNL     1      52.424   0.848  73.819  1.00  0.00     0.358 C 
BRANCH   8   9
HETATM    9  N4  UNL     1      52.607  -0.415  74.474  1.00  0.00     0.096 N 
HETATM   10  C17 UNL     1      53.941  -0.615  75.008  1.00  0.00     0.276 C 
HETATM   11  C18 UNL     1      53.894  -0.632  76.540  1.00  0.00     0.068 C 
HETATM   12  C19 UNL     1      53.145  -1.807  77.041  1.00  0.00     0.065 C 
HETATM   13  C28 UNL     1      51.812  -1.879  76.302  1.00  0.00     0.068 C 
HETATM   14  C29 UNL     1      51.571  -0.694  75.420  1.00  0.00     0.276 C 
BRANCH  12  15
HETATM   15  O1  UNL     1      53.859  -2.946  76.587  1.00  0.00    -0.389 OA
ATOM     16  H1  UNL     1      54.704  -2.913  77.020  1.00  0.00     0.210 HD
ENDBRANCH  12  15
BRANCH  12  17
HETATM   17  C20 UNL     1      52.919  -1.955  78.512  1.00  0.00     0.077 C 
BRANCH  17  18
HETATM   18  C21 UNL     1      52.965  -0.743  79.329  1.00  0.00    -0.040 A 
HETATM   19  C22 UNL     1      51.768  -0.004  79.354  1.00  0.00     0.008 A 
HETATM   20  C23 UNL     1      51.659   1.099  80.148  1.00  0.00     0.001 A 
HETATM   21  C24 UNL     1      52.686   1.542  80.952  1.00  0.00     0.001 A 
HETATM   22  C25 UNL     1      53.842   0.806  80.909  1.00  0.00     0.017 A 
HETATM   23  C26 UNL     1      54.004  -0.341  80.101  1.00  0.00     0.054 A 
BRANCH  23  24
HETATM   24  C27 UNL     1      55.317  -1.007  80.071  1.00  0.00     0.418 C 
HETATM   25  F1  UNL     1      56.031  -0.781  78.899  1.00  0.00    -0.166 F 
HETATM   26  F2  UNL     1      56.124  -0.222  80.995  1.00  0.00    -0.166 F 
HETATM   27  F3  UNL     1      55.429  -2.244  80.596  1.00  0.00    -0.166 F 
ENDBRANCH  23  24
ENDBRANCH  17  18
ENDBRANCH  12  17
ENDBRANCH   8   9
ENDBRANCH   6   8
BRANCH   1  28
HETATM   28  C5  UNL     1      53.726   2.853  69.441  1.00  0.00     0.158 C 
BRANCH  28  29
HETATM   29  C4  UNL     1      54.762   3.751  69.970  1.00  0.00     0.037 C 
BRANCH  29  30
HETATM   30  C2  UNL     1      55.694   4.457  69.081  1.00  0.00    -0.020 C 
HETATM   31  C1  UNL     1      57.082   4.630  69.662  1.00  0.00     0.009 C 
HETATM   32  C3  UNL     1      55.092   5.896  68.925  1.00  0.00     0.009 C 
ENDBRANCH  29  30
ENDBRANCH  28  29
BRANCH  28  33
HETATM   33  N1  UNL     1      52.534   3.286  68.991  1.00  0.00    -0.384 N 
HETATM   34  C6  UNL     1      51.939   3.645  67.829  1.00  0.00    -0.014 C 
HETATM   35  C7  UNL     1      51.879   2.677  66.658  1.00  0.00     0.053 C 
HETATM   36  C12 UNL     1      51.761   5.060  67.408  1.00  0.00     0.027 C 
HETATM   37  C8  UNL     1      50.575   2.901  65.951  1.00  0.00     0.010 C 
HETATM   38  C9  UNL     1      50.145   4.309  65.769  1.00  0.00    -0.018 C 
HETATM   39  C10 UNL     1      48.637   4.257  65.442  1.00  0.00     0.010 C 
HETATM   40  C11 UNL     1      50.270   5.196  66.967  1.00  0.00     0.014 C 
HETATM   41  C13 UNL     1      52.509   5.499  66.171  1.00  0.00     0.016 C 
ATOM     42  H1  UNL     1      51.874   3.369  69.765  1.00  0.00     0.160 HD
ENDBRANCH  28  33
ENDBRANCH   1  28
TORSDOF 10
ENDMDL
MODEL 3
REMARK VINA RESULT: -10.009781596      1.204      1.875
REMARK  10 active torsions:
REMARK  status: ('A' for Active; 'I' for Inactive)
REMARK    1  A    between atoms: C2_2  and  C4_4 
REMARK    2  A    between atoms: C4_4  and  C5_5 
REMARK    3  A    between atoms: C5_5  and  N1_6 
REMARK    4  A    between atoms: C5_5  and  C14_16 
REMARK    5  A    between atoms: C15_21  and  C16_22 
REMARK    6  A    between atoms: C16_22  and  N4_23 
REMARK    7  A    between atoms: C19_26  and  O1_27 
REMARK    8  A    between atoms: C19_26  and  C20_29 
REMARK    9  A    between atoms: C20_29  and  C21_30 
REMARK   10  A    between atoms: C26_35  and  C27_36 
ROOT
HETATM    1  C14 UNL     1      54.004   3.212  69.627  1.00  0.00     0.163 A 
HETATM    2  N2  UNL     1      52.852   2.539  69.431  1.00  0.00    -0.280 N 
ATOM      3  H2  UNL     1      52.267   2.589  68.597  1.00  0.00     0.189 HD
HETATM    4  N3  UNL     1      52.609   1.803  70.505  1.00  0.00    -0.280 N 
ATOM      5  H3  UNL     1      51.808   1.188  70.645  1.00  0.00     0.189 HD
HETATM    6  C15 UNL     1      53.610   2.013  71.377  1.00  0.00     0.168 A 
HETATM    7  O2  UNL     1      54.427   2.871  70.803  1.00  0.00    -0.278 OA
ENDROOT
BRANCH   6   8
HETATM    8  C16 UNL     1      53.839   1.453  72.716  1.00  0.00     0.358 C 
BRANCH   8   9
HETATM    9  N4  UNL     1      53.010   0.335  73.060  1.00  0.00     0.096 N 
HETATM   10  C17 UNL     1      53.726  -0.923  73.154  1.00  0.00     0.276 C 
HETATM   11  C18 UNL     1      53.751  -1.403  74.611  1.00  0.00     0.068 C 
HETATM   12  C19 UNL     1      52.391  -1.746  75.086  1.00  0.00     0.065 C 
HETATM   13  C28 UNL     1      51.457  -0.588  74.749  1.00  0.00     0.068 C 
HETATM   14  C29 UNL     1      52.179   0.600  74.194  1.00  0.00     0.276 C 
BRANCH  12  15
HETATM   15  O1  UNL     1      51.945  -2.808  74.256  1.00  0.00    -0.389 OA
ATOM     16  H1  UNL     1      51.634  -2.400  73.457  1.00  0.00     0.210 HD
ENDBRANCH  12  15
BRANCH  12  17
HETATM   17  C20 UNL     1      52.198  -2.157  76.511  1.00  0.00     0.077 C 
BRANCH  17  18
HETATM   18  C21 UNL     1      51.663  -1.158  77.435  1.00  0.00    -0.040 A 
HETATM   19  C22 UNL     1      50.321  -0.803  77.206  1.00  0.00     0.008 A 
HETATM   20  C23 UNL     1      49.684   0.054  78.054  1.00  0.00     0.001 A 
HETATM   21  C24 UNL     1      50.299   0.606  79.156  1.00  0.00     0.001 A 
HETATM   22  C25 UNL     1      51.606   0.246  79.357  1.00  0.00     0.017 A 
HETATM   23  C26 UNL     1      52.310  -0.635  78.506  1.00  0.00     0.054 A 
BRANCH  23  24
HETATM   24  C27 UNL     1      53.736  -0.888  78.771  1.00  0.00     0.418 C 
HETATM   25  F1  UNL     1      54.565  -0.591  77.694  1.00  0.00    -0.166 F 
HETATM   26  F2  UNL     1      54.118   0.193  79.669  1.00  0.00    -0.166 F 
HETATM   27  F3  UNL     1      54.079  -1.974  79.493  1.00  0.00    -0.166 F 
ENDBRANCH  23  24
ENDBRANCH  17  18
ENDBRANCH  12  17
ENDBRANCH   8   9
ENDBRANCH   6   8
BRANCH   1  28
HETATM   28  C5  UNL     1      54.654   4.185  68.623  1.00  0.00     0.158 C 
BRANCH  28  29
HETATM   29  C4  UNL     1      54.953   5.400  69.393  1.00  0.00     0.037 C 
BRANCH  29  30
HETATM   30  C2  UNL     1      56.335   5.816  69.666  1.00  0.00    -0.020 C 
HETATM   31  C1  UNL     1      56.957   6.640  68.557  1.00  0.00     0.009 C 
HETATM   32  C3  UNL     1      57.152   4.479  69.741  1.00  0.00     0.009 C 
ENDBRANCH  29  30
ENDBRANCH  28  29
BRANCH  28  33
HETATM   33  N1  UNL     1      53.906   4.187  67.504  1.00  0.00    -0.384 N 
HETATM   34  C6  UNL     1      52.749   4.715  67.039  1.00  0.00    -0.014 C 
HETATM   35  C7  UNL     1      52.534   6.220  67.025  1.00  0.00     0.053 C 
HETATM   36  C12 UNL     1      51.471   3.957  66.985  1.00  0.00     0.027 C 
HETATM   37  C8  UNL     1      51.726   6.552  65.807  1.00  0.00     0.010 C 
HETATM   38  C9  UNL     1      50.601   5.642  65.480  1.00  0.00    -0.018 C 
HETATM   39  C10 UNL     1      50.234   5.925  64.007  1.00  0.00     0.010 C 
HETATM   40  C11 UNL     1      50.896   4.177  65.551  1.00  0.00     0.014 C 
HETATM   41  C13 UNL     1      50.349   4.454  67.866  1.00  0.00     0.016 C 
ATOM     42  H1  UNL     1      54.346   3.614  66.784  1.00  0.00     0.160 HD
ENDBRANCH  28  33
ENDBRANCH   1  28
TORSDOF 10
ENDMDL
MODEL 4
REMARK VINA RESULT: -9.718239653      2.257      3.877
REMARK  10 active torsions:
REMARK  status: ('A' for Active; 'I' for Inactive)
REMARK    1  A    between atoms: C2_2  and  C4_4 
REMARK    2  A    between atoms: C4_4  and  C5_5 
REMARK    3  A    between atoms: C5_5  and  N1_6 
REMARK    4  A    between atoms: C5_5  and  C14_16 
REMARK    5  A    between atoms: C15_21  and  C16_22 
REMARK    6  A    between atoms: C16_22  and  N4_23 
REMARK    7  A    between atoms: C19_26  and  O1_27 
REMARK    8  A    between atoms: C19_26  and  C20_29 
REMARK    9  A    between atoms: C20_29  and  C21_30 
REMARK   10  A    between atoms: C26_35  and  C27_36 
ROOT
HETATM    1  C14 UNL     1      53.250   3.749  68.635  1.00  0.00     0.163 A 
HETATM    2  N2  UNL     1      54.451   4.361  68.592  1.00  0.00    -0.280 N 
ATOM      3  H2  UNL     1      54.757   5.023  67.878  1.00  0.00     0.189 HD
HETATM    4  N3  UNL     1      55.165   3.958  69.631  1.00  0.00    -0.280 N 
ATOM      5  H3  UNL     1      56.114   4.252  69.860  1.00  0.00     0.189 HD
HETATM    6  C15 UNL     1      54.413   3.090  70.330  1.00  0.00     0.168 A 
HETATM    7  O2  UNL     1      53.267   2.996  69.690  1.00  0.00    -0.278 OA
ENDROOT
BRANCH   6   8
HETATM    8  C16 UNL     1      54.713   2.348  71.562  1.00  0.00     0.358 C 
BRANCH   8   9
HETATM    9  N4  UNL     1      53.656   1.506  72.041  1.00  0.00     0.096 N 
HETATM   10  C17 UNL     1      53.703   0.150  71.529  1.00  0.00     0.276 C 
HETATM   11  C18 UNL     1      54.034  -0.827  72.664  1.00  0.00     0.068 C 
HETATM   12  C19 UNL     1      52.943  -0.876  73.664  1.00  0.00     0.065 C 
HETATM   13  C28 UNL     1      52.584   0.553  74.056  1.00  0.00     0.068 C 
HETATM   14  C29 UNL     1      53.509   1.570  73.462  1.00  0.00     0.276 C 
BRANCH  12  15
HETATM   15  O1  UNL     1      51.799  -1.346  72.968  1.00  0.00    -0.389 OA
ATOM     16  H1  UNL     1      51.436  -0.588  72.524  1.00  0.00     0.210 HD
ENDBRANCH  12  15
BRANCH  12  17
HETATM   17  C20 UNL     1      53.116  -1.712  74.892  1.00  0.00     0.077 C 
BRANCH  17  18
HETATM   18  C21 UNL     1      52.442  -1.268  76.112  1.00  0.00    -0.040 A 
HETATM   19  C22 UNL     1      51.040  -1.198  76.018  1.00  0.00     0.008 A 
HETATM   20  C23 UNL     1      50.294  -0.881  77.114  1.00  0.00     0.001 A 
HETATM   21  C24 UNL     1      50.853  -0.619  78.345  1.00  0.00     0.001 A 
HETATM   22  C25 UNL     1      52.220  -0.692  78.411  1.00  0.00     0.017 A 
HETATM   23  C26 UNL     1      53.036  -1.014  77.304  1.00  0.00     0.054 A 
BRANCH  23  24
HETATM   24  C27 UNL     1      54.499  -0.983  77.469  1.00  0.00     0.418 C 
HETATM   25  F1  UNL     1      55.116   0.060  76.787  1.00  0.00    -0.166 F 
HETATM   26  F2  UNL     1      54.683  -0.515  78.835  1.00  0.00    -0.166 F 
HETATM   27  F3  UNL     1      55.173  -2.151  77.489  1.00  0.00    -0.166 F 
ENDBRANCH  23  24
ENDBRANCH  17  18
ENDBRANCH  12  17
ENDBRANCH   8   9
ENDBRANCH   6   8
BRANCH   1  28
HETATM   28  C5  UNL     1      52.113   3.936  67.613  1.00  0.00     0.158 C 
BRANCH  28  29
HETATM   29  C4  UNL     1      52.286   5.294  67.079  1.00  0.00     0.037 C 
BRANCH  29  30
HETATM   30  C2  UNL     1      51.257   5.929  66.245  1.00  0.00    -0.020 C 
HETATM   31  C1  UNL     1      51.166   5.359  64.844  1.00  0.00     0.009 C 
HETATM   32  C3  UNL     1      51.725   7.418  66.092  1.00  0.00     0.009 C 
ENDBRANCH  29  30
ENDBRANCH  28  29
BRANCH  28  33
HETATM   33  N1  UNL     1      50.970   3.507  68.180  1.00  0.00    -0.384 N 
HETATM   34  C6  UNL     1      49.640   3.479  67.927  1.00  0.00    -0.014 C 
HETATM   35  C7  UNL     1      49.105   2.817  66.666  1.00  0.00     0.053 C 
HETATM   36  C12 UNL     1      48.678   4.450  68.511  1.00  0.00     0.027 C 
HETATM   37  C8  UNL     1      47.792   2.180  67.011  1.00  0.00     0.010 C 
HETATM   38  C9  UNL     1      46.878   2.959  67.881  1.00  0.00    -0.018 C 
HETATM   39  C10 UNL     1      45.848   1.950  68.433  1.00  0.00     0.010 C 
HETATM   40  C11 UNL     1      47.499   3.602  69.082  1.00  0.00     0.014 C 
HETATM   41  C13 UNL     1      47.978   5.377  67.546  1.00  0.00     0.016 C 
ATOM     42  H1  UNL     1      51.167   3.067  69.079  1.00  0.00     0.160 HD
ENDBRANCH  28  33
ENDBRANCH   1  28
TORSDOF 10
ENDMDL
MODEL 5
REMARK VINA RESULT: -9.673019036      1.483      2.271
REMARK  10 active torsions:
REMARK  status: ('A' for Active; 'I' for Inactive)
REMARK    1  A    between atoms: C2_2  and  C4_4 
REMARK    2  A    between atoms: C4_4  and  C5_5 
REMARK    3  A    between atoms: C5_5  and  N1_6 
REMARK    4  A    between atoms: C5_5  and  C14_16 
REMARK    5  A    between atoms: C15_21  and  C16_22 
REMARK    6  A    between atoms: C16_22  and  N4_23 
REMARK    7  A    between atoms: C19_26  and  O1_27 
REMARK    8  A    between atoms: C19_26  and  C20_29 
REMARK    9  A    between atoms: C20_29  and  C21_30 
REMARK   10  A    between atoms: C26_35  and  C27_36 
ROOT
HETATM    1  C14 UNL     1      53.735   2.193  70.493  1.00  0.00     0.163 A 
HETATM    2  N2  UNL     1      53.461   0.883  70.326  1.00  0.00    -0.280 N 
ATOM      3  H2  UNL     1      53.306   0.415  69.433  1.00  0.00     0.189 HD
HETATM    4  N3  UNL     1      53.428   0.306  71.518  1.00  0.00    -0.280 N 
ATOM      5  H3  UNL     1      53.244  -0.679  71.706  1.00  0.00     0.189 HD
HETATM    6  C15 UNL     1      53.681   1.256  72.436  1.00  0.00     0.168 A 
HETATM    7  O2  UNL     1      53.859   2.376  71.769  1.00  0.00    -0.278 OA
ENDROOT
BRANCH   6   8
HETATM    8  C16 UNL     1      53.764   1.165  73.900  1.00  0.00     0.358 C 
BRANCH   8   9
HETATM    9  N4  UNL     1      53.340  -0.085  74.460  1.00  0.00     0.096 N 
HETATM   10  C17 UNL     1      54.242  -0.620  75.461  1.00  0.00     0.276 C 
HETATM   11  C18 UNL     1      53.571  -0.588  76.840  1.00  0.00     0.068 C 
HETATM   12  C19 UNL     1      52.414  -1.510  76.895  1.00  0.00     0.065 C 
HETATM   13  C28 UNL     1      51.528  -1.243  75.682  1.00  0.00     0.068 C 
HETATM   14  C29 UNL     1      51.974  -0.057  74.884  1.00  0.00     0.276 C 
BRANCH  12  15
HETATM   15  O1  UNL     1      52.939  -2.808  76.665  1.00  0.00    -0.389 OA
ATOM     16  H1  UNL     1      53.378  -2.765  75.824  1.00  0.00     0.210 HD
ENDBRANCH  12  15
BRANCH  12  17
HETATM   17  C20 UNL     1      51.578  -1.558  78.133  1.00  0.00     0.077 C 
BRANCH  17  18
HETATM   18  C21 UNL     1      51.610  -0.394  79.017  1.00  0.00    -0.040 A 
HETATM   19  C22 UNL     1      52.790  -0.261  79.773  1.00  0.00     0.008 A 
HETATM   20  C23 UNL     1      52.976   0.831  80.568  1.00  0.00     0.001 A 
HETATM   21  C24 UNL     1      52.045   1.841  80.676  1.00  0.00     0.001 A 
HETATM   22  C25 UNL     1      50.905   1.688  79.931  1.00  0.00     0.017 A 
HETATM   23  C26 UNL     1      50.665   0.575  79.095  1.00  0.00     0.054 A 
BRANCH  23  24
HETATM   24  C27 UNL     1      49.369   0.474  78.405  1.00  0.00     0.418 C 
HETATM   25  F1  UNL     1      48.566  -0.561  78.872  1.00  0.00    -0.166 F 
HETATM   26  F2  UNL     1      48.614   1.609  78.917  1.00  0.00    -0.166 F 
HETATM   27  F3  UNL     1      49.323   0.695  77.075  1.00  0.00    -0.166 F 
ENDBRANCH  23  24
ENDBRANCH  17  18
ENDBRANCH  12  17
ENDBRANCH   8   9
ENDBRANCH   6   8
BRANCH   1  28
HETATM   28  C5  UNL     1      53.866   3.230  69.361  1.00  0.00     0.158 C 
BRANCH  28  29
HETATM   29  C4  UNL     1      54.844   4.215  69.844  1.00  0.00     0.037 C 
BRANCH  29  30
HETATM   30  C2  UNL     1      55.339   5.295  68.979  1.00  0.00    -0.020 C 
HETATM   31  C1  UNL     1      55.579   4.870  67.545  1.00  0.00     0.009 C 
HETATM   32  C3  UNL     1      56.739   5.677  69.573  1.00  0.00     0.009 C 
ENDBRANCH  29  30
ENDBRANCH  28  29
BRANCH  28  33
HETATM   33  N1  UNL     1      52.625   3.561  68.956  1.00  0.00    -0.384 N 
HETATM   34  C6  UNL     1      51.947   3.811  67.812  1.00  0.00    -0.014 C 
HETATM   35  C7  UNL     1      51.886   2.772  66.703  1.00  0.00     0.053 C 
HETATM   36  C12 UNL     1      51.654   5.184  67.321  1.00  0.00     0.027 C 
HETATM   37  C8  UNL     1      50.535   2.872  66.061  1.00  0.00     0.010 C 
HETATM   38  C9  UNL     1      50.005   4.236  65.824  1.00  0.00    -0.018 C 
HETATM   39  C10 UNL     1      48.488   4.072  65.588  1.00  0.00     0.010 C 
HETATM   40  C11 UNL     1      50.136   5.201  66.960  1.00  0.00     0.014 C 
HETATM   41  C13 UNL     1      52.304   5.593  66.021  1.00  0.00     0.016 C 
ATOM     42  H1  UNL     1      52.004   3.650  69.761  1.00  0.00     0.160 HD
ENDBRANCH  28  33
ENDBRANCH   1  28
TORSDOF 10
ENDMDL
