MODEL 1
REMARK VINA RESULT: -11.663498083      0.000      0.000
REMARK  12 active torsions:
REMARK  status: ('A' for Active; 'I' for Inactive)
REMARK    1  A    between atoms: O1_2  and  C2_3 
REMARK    2  A    between atoms: C4_5  and  O2_6 
REMARK    3  A    between atoms: C8_12  and  O4_13 
REMARK    4  A    between atoms: O4_13  and  C9_14 
REMARK    5  A    between atoms: C9_14  and  C10_15 
REMARK    6  A    between atoms: N3_20  and  C11_21 
REMARK    7  A    between atoms: C20_36  and  C21_37 
REMARK    8  A    between atoms: C20_36  and  C24_43 
REMARK    9  A    between atoms: C21_37  and  O7_38 
REMARK   10  A    between atoms: O7_38  and  C22_39 
REMARK   11  A    between atoms: C22_39  and  C23_40 
REMARK   12  A    between atoms: C26_49  and  O14_50 
ROOT
HETATM    1  C11 UNL     1     -11.675   7.504  25.230  1.00  0.00     0.148 C 
HETATM    2  C12 UNL     1     -10.390   6.926  25.194  1.00  0.00     0.059 C 
HETATM    3  N4  UNL     1      -9.323   7.793  25.761  1.00  0.00    -0.324 N 
ATOM      4  H4  UNL     1      -9.283   8.802  25.614  1.00  0.00     0.169 HD
HETATM    5  C13 UNL     1      -8.382   7.090  26.515  1.00  0.00     0.261 C 
HETATM    6  O5  UNL     1      -7.830   7.652  27.488  1.00  0.00    -0.270 OA
HETATM    7  C14 UNL     1      -8.085   5.715  26.136  1.00  0.00     0.194 C 
HETATM    8  O6  UNL     1      -8.686   5.407  24.922  1.00  0.00    -0.354 OA
HETATM    9  C15 UNL     1     -10.085   5.520  25.264  1.00  0.00     0.176 C 
HETATM   10  C16 UNL     1     -10.155   4.670  26.438  1.00  0.00     0.065 C 
HETATM   11  C17 UNL     1      -8.846   4.863  27.166  1.00  0.00     0.145 C 
HETATM   12  N5  UNL     1      -8.009   3.702  27.219  1.00  0.00    -0.138 NA
HETATM   13  N6  UNL     1      -6.740   4.244  27.317  1.00  0.00    -0.123 NA
HETATM   14  C18 UNL     1      -6.706   5.241  26.277  1.00  0.00     0.179 C 
HETATM   15  C19 UNL     1      -6.247   4.559  24.969  1.00  0.00     0.095 C 
HETATM   16  C20 UNL     1      -5.074   5.345  24.474  1.00  0.00     0.182 C 
HETATM   17  O12 UNL     1      -5.141   6.564  25.249  1.00  0.00    -0.295 OA
HETATM   18  C25 UNL     1      -5.628   6.229  26.515  1.00  0.00     0.290 C 
HETATM   19  O13 UNL     1      -5.251   6.653  27.614  1.00  0.00    -0.263 OA
ENDROOT
BRANCH   1  20
HETATM   20  N3  UNL     1     -12.439   7.984  26.317  1.00  0.00    -0.227 N 
HETATM   21  N2  UNL     1     -11.982   8.674  27.395  1.00  0.00    -0.234 N 
HETATM   22  N1  UNL     1     -12.980   9.034  28.171  1.00  0.00    -0.283 N 
ATOM     23  H2  UNL     1     -11.000   8.883  27.576  1.00  0.00     0.209 HD
HETATM   24  C10 UNL     1     -14.123   8.599  27.633  1.00  0.00     0.103 A 
ATOM     25  H1  UNL     1     -12.896   9.560  29.041  1.00  0.00     0.188 HD
HETATM   26  C26 UNL     1     -13.775   7.921  26.455  1.00  0.00     0.189 A 
BRANCH  24  27
HETATM   27  C9  UNL     1     -15.496   8.697  28.195  1.00  0.00     0.234 C 
BRANCH  27  28
HETATM   28  O4  UNL     1     -15.564   9.660  29.221  1.00  0.00    -0.347 OA
BRANCH  28  29
HETATM   29  C8  UNL     1     -16.312  10.756  28.921  1.00  0.00     0.342 A 
HETATM   30  O3  UNL     1     -15.947  11.852  29.720  1.00  0.00    -0.312 OA
HETATM   31  C6  UNL     1     -17.016  12.284  30.529  1.00  0.00     0.092 A 
HETATM   32  C5  UNL     1     -18.125  11.468  30.284  1.00  0.00     0.082 A 
HETATM   33  C7  UNL     1     -17.152  13.289  31.456  1.00  0.00     0.074 A 
HETATM   34  C4  UNL     1     -19.288  11.737  31.011  1.00  0.00     0.085 A 
HETATM   35  C27 UNL     1     -17.742  10.544  29.236  1.00  0.00     0.220 A 
HETATM   36  C3  UNL     1     -19.420  12.736  31.940  1.00  0.00     0.074 A 
HETATM   37  C2  UNL     1     -18.317  13.528  32.157  1.00  0.00     0.073 A 
HETATM   38  O15 UNL     1     -18.530   9.705  28.693  1.00  0.00    -0.287 OA
BRANCH  34  39
HETATM   39  O2  UNL     1     -20.422  10.914  30.790  1.00  0.00    -0.360 OA
ATOM     40  H2  UNL     1     -20.362  10.013  31.085  1.00  0.00     0.217 HD
ENDBRANCH  34  39
BRANCH  37  41
HETATM   41  O1  UNL     1     -18.331  14.587  33.074  1.00  0.00    -0.356 OA
HETATM   42  C1  UNL     1     -17.116  15.034  33.601  1.00  0.00     0.210 C 
ENDBRANCH  37  41
ENDBRANCH  28  29
ENDBRANCH  27  28
ENDBRANCH  24  27
BRANCH  26  43
HETATM   43  O14 UNL     1     -14.763   7.359  25.685  1.00  0.00    -0.343 OA
ATOM     44  H14 UNL     1     -15.379   7.923  25.233  1.00  0.00     0.219 HD
ENDBRANCH  26  43
ENDBRANCH   1  20
BRANCH  16  45
HETATM   45  C21 UNL     1      -5.081   5.648  23.033  1.00  0.00     0.218 C 
BRANCH  45  46
HETATM   46  O7  UNL     1      -5.041   7.012  22.690  1.00  0.00    -0.377 OA
BRANCH  46  47
HETATM   47  C22 UNL     1      -6.233   7.274  22.000  1.00  0.00     0.280 C 
BRANCH  47  48
HETATM   48  C23 UNL     1      -7.313   7.869  22.771  1.00  0.00     0.197 C 
HETATM   49  O8  UNL     1      -8.515   7.747  22.555  1.00  0.00    -0.646 OA
HETATM   50  O9  UNL     1      -6.921   8.666  23.884  1.00  0.00    -0.646 OA
ENDBRANCH  47  48
ENDBRANCH  46  47
ENDBRANCH  45  46
ENDBRANCH  16  45
BRANCH  16  51
HETATM   51  C24 UNL     1      -3.835   4.581  24.763  1.00  0.00     0.212 C 
HETATM   52  O10 UNL     1      -2.782   5.065  24.286  1.00  0.00    -0.646 OA
HETATM   53  O11 UNL     1      -3.777   3.428  25.485  1.00  0.00    -0.646 OA
ENDBRANCH  16  51
TORSDOF 12
ENDMDL
MODEL 2
REMARK VINA RESULT: -11.509869911      2.000      2.622
REMARK  12 active torsions:
REMARK  status: ('A' for Active; 'I' for Inactive)
REMARK    1  A    between atoms: O1_2  and  C2_3 
REMARK    2  A    between atoms: C4_5  and  O2_6 
REMARK    3  A    between atoms: C8_12  and  O4_13 
REMARK    4  A    between atoms: O4_13  and  C9_14 
REMARK    5  A    between atoms: C9_14  and  C10_15 
REMARK    6  A    between atoms: N3_20  and  C11_21 
REMARK    7  A    between atoms: C20_36  and  C21_37 
REMARK    8  A    between atoms: C20_36  and  C24_43 
REMARK    9  A    between atoms: C21_37  and  O7_38 
REMARK   10  A    between atoms: O7_38  and  C22_39 
REMARK   11  A    between atoms: C22_39  and  C23_40 
REMARK   12  A    between atoms: C26_49  and  O14_50 
ROOT
HETATM    1  C11 UNL     1     -12.443   6.515  25.681  1.00  0.00     0.148 C 
HETATM    2  C12 UNL     1     -11.144   6.396  25.148  1.00  0.00     0.059 C 
HETATM    3  N4  UNL     1     -10.666   7.617  24.448  1.00  0.00    -0.324 N 
ATOM      4  H4  UNL     1     -11.262   8.192  23.853  1.00  0.00     0.169 HD
HETATM    5  C13 UNL     1      -9.319   7.900  24.688  1.00  0.00     0.261 C 
HETATM    6  O5  UNL     1      -8.935   9.091  24.704  1.00  0.00    -0.270 OA
HETATM    7  C14 UNL     1      -8.412   6.783  24.916  1.00  0.00     0.194 C 
HETATM    8  O6  UNL     1      -9.053   5.578  24.656  1.00  0.00    -0.354 OA
HETATM    9  C15 UNL     1     -10.078   5.580  25.673  1.00  0.00     0.176 C 
HETATM   10  C16 UNL     1      -9.291   5.834  26.864  1.00  0.00     0.065 C 
HETATM   11  C17 UNL     1      -8.192   6.778  26.438  1.00  0.00     0.145 C 
HETATM   12  N5  UNL     1      -6.868   6.233  26.512  1.00  0.00    -0.138 NA
HETATM   13  N6  UNL     1      -6.188   6.950  25.545  1.00  0.00    -0.123 NA
HETATM   14  C18 UNL     1      -7.049   6.881  24.390  1.00  0.00     0.179 C 
HETATM   15  C19 UNL     1      -6.696   5.600  23.601  1.00  0.00     0.095 C 
HETATM   16  C20 UNL     1      -6.406   6.037  22.199  1.00  0.00     0.182 C 
HETATM   17  O12 UNL     1      -6.930   7.383  22.157  1.00  0.00    -0.295 OA
HETATM   18  C25 UNL     1      -6.729   7.951  23.417  1.00  0.00     0.290 C 
HETATM   19  O13 UNL     1      -6.360   9.101  23.686  1.00  0.00    -0.263 OA
ENDROOT
BRANCH   1  20
HETATM   20  N3  UNL     1     -12.978   7.434  26.611  1.00  0.00    -0.227 N 
HETATM   21  N2  UNL     1     -12.284   8.192  27.500  1.00  0.00    -0.234 N 
HETATM   22  N1  UNL     1     -13.094   8.996  28.153  1.00  0.00    -0.283 N 
ATOM     23  H2  UNL     1     -11.275   8.143  27.641  1.00  0.00     0.209 HD
HETATM   24  C10 UNL     1     -14.341   8.799  27.718  1.00  0.00     0.103 A 
ATOM     25  H1  UNL     1     -12.815   9.662  28.875  1.00  0.00     0.188 HD
HETATM   26  C26 UNL     1     -14.266   7.795  26.740  1.00  0.00     0.189 A 
BRANCH  24  27
HETATM   27  C9  UNL     1     -15.596   9.418  28.219  1.00  0.00     0.234 C 
BRANCH  27  28
HETATM   28  O4  UNL     1     -15.327  10.529  29.043  1.00  0.00    -0.347 OA
BRANCH  28  29
HETATM   29  C8  UNL     1     -16.263  11.515  28.989  1.00  0.00     0.342 A 
HETATM   30  O3  UNL     1     -15.993  12.522  29.929  1.00  0.00    -0.312 OA
HETATM   31  C6  UNL     1     -17.026  12.637  30.879  1.00  0.00     0.092 A 
HETATM   32  C5  UNL     1     -18.015  11.691  30.587  1.00  0.00     0.082 A 
HETATM   33  C7  UNL     1     -17.220  13.452  31.970  1.00  0.00     0.074 A 
HETATM   34  C4  UNL     1     -19.123  11.645  31.437  1.00  0.00     0.085 A 
HETATM   35  C27 UNL     1     -17.602  11.017  29.374  1.00  0.00     0.220 A 
HETATM   36  C3  UNL     1     -19.312  12.453  32.527  1.00  0.00     0.074 A 
HETATM   37  C2  UNL     1     -18.330  13.379  32.788  1.00  0.00     0.073 A 
HETATM   38  O15 UNL     1     -18.303  10.149  28.760  1.00  0.00    -0.287 OA
BRANCH  34  39
HETATM   39  O2  UNL     1     -20.132  10.684  31.169  1.00  0.00    -0.360 OA
ATOM     40  H2  UNL     1     -20.367  10.552  30.258  1.00  0.00     0.217 HD
ENDBRANCH  34  39
BRANCH  37  41
HETATM   41  O1  UNL     1     -18.413  14.268  33.867  1.00  0.00    -0.356 OA
HETATM   42  C1  UNL     1     -19.535  14.211  34.699  1.00  0.00     0.210 C 
ENDBRANCH  37  41
ENDBRANCH  28  29
ENDBRANCH  27  28
ENDBRANCH  24  27
BRANCH  26  43
HETATM   43  O14 UNL     1     -15.414   7.381  26.111  1.00  0.00    -0.343 OA
ATOM     44  H14 UNL     1     -15.924   6.674  26.489  1.00  0.00     0.219 HD
ENDBRANCH  26  43
ENDBRANCH   1  20
BRANCH  16  45
HETATM   45  C21 UNL     1      -7.015   5.211  21.144  1.00  0.00     0.218 C 
BRANCH  45  46
HETATM   46  O7  UNL     1      -7.705   5.909  20.137  1.00  0.00    -0.377 OA
BRANCH  46  47
HETATM   47  C22 UNL     1      -7.324   5.320  18.924  1.00  0.00     0.280 C 
BRANCH  47  48
HETATM   48  C23 UNL     1      -8.092   5.699  17.748  1.00  0.00     0.197 C 
HETATM   49  O8  UNL     1      -9.289   5.969  17.715  1.00  0.00    -0.646 OA
HETATM   50  O9  UNL     1      -7.370   5.759  16.522  1.00  0.00    -0.646 OA
ENDBRANCH  47  48
ENDBRANCH  46  47
ENDBRANCH  45  46
ENDBRANCH  16  45
BRANCH  16  51
HETATM   51  C24 UNL     1      -4.937   6.014  21.990  1.00  0.00     0.212 C 
HETATM   52  O10 UNL     1      -4.548   6.410  20.867  1.00  0.00    -0.646 OA
HETATM   53  O11 UNL     1      -4.021   5.602  22.909  1.00  0.00    -0.646 OA
ENDBRANCH  16  51
TORSDOF 12
ENDMDL
MODEL 3
REMARK VINA RESULT: -11.268360206      1.489      1.690
REMARK  12 active torsions:
REMARK  status: ('A' for Active; 'I' for Inactive)
REMARK    1  A    between atoms: O1_2  and  C2_3 
REMARK    2  A    between atoms: C4_5  and  O2_6 
REMARK    3  A    between atoms: C8_12  and  O4_13 
REMARK    4  A    between atoms: O4_13  and  C9_14 
REMARK    5  A    between atoms: C9_14  and  C10_15 
REMARK    6  A    between atoms: N3_20  and  C11_21 
REMARK    7  A    between atoms: C20_36  and  C21_37 
REMARK    8  A    between atoms: C20_36  and  C24_43 
REMARK    9  A    between atoms: C21_37  and  O7_38 
REMARK   10  A    between atoms: O7_38  and  C22_39 
REMARK   11  A    between atoms: C22_39  and  C23_40 
REMARK   12  A    between atoms: C26_49  and  O14_50 
ROOT
HETATM    1  C11 UNL     1     -12.181   7.463  25.283  1.00  0.00     0.148 C 
HETATM    2  C12 UNL     1     -10.873   6.959  25.137  1.00  0.00     0.059 C 
HETATM    3  N4  UNL     1      -9.808   7.949  25.447  1.00  0.00    -0.324 N 
ATOM      4  H4  UNL     1      -9.862   8.932  25.179  1.00  0.00     0.169 HD
HETATM    5  C13 UNL     1      -8.728   7.400  26.140  1.00  0.00     0.261 C 
HETATM    6  O5  UNL     1      -8.097   8.110  26.955  1.00  0.00    -0.270 OA
HETATM    7  C14 UNL     1      -8.383   6.008  25.886  1.00  0.00     0.194 C 
HETATM    8  O6  UNL     1      -9.114   5.517  24.811  1.00  0.00    -0.354 OA
HETATM    9  C15 UNL     1     -10.460   5.592  25.328  1.00  0.00     0.176 C 
HETATM   10  C16 UNL     1     -10.314   4.893  26.590  1.00  0.00     0.065 C 
HETATM   11  C17 UNL     1      -8.940   5.250  27.103  1.00  0.00     0.145 C 
HETATM   12  N5  UNL     1      -8.020   4.154  27.175  1.00  0.00    -0.138 NA
HETATM   13  N6  UNL     1      -6.792   4.774  27.033  1.00  0.00    -0.123 NA
HETATM   14  C18 UNL     1      -6.967   5.634  25.889  1.00  0.00     0.179 C 
HETATM   15  C19 UNL     1      -6.634   4.821  24.618  1.00  0.00     0.095 C 
HETATM   16  C20 UNL     1      -5.596   5.604  23.878  1.00  0.00     0.182 C 
HETATM   17  O12 UNL     1      -5.650   6.904  24.508  1.00  0.00    -0.295 OA
HETATM   18  C25 UNL     1      -5.943   6.703  25.859  1.00  0.00     0.290 C 
HETATM   19  O13 UNL     1      -5.457   7.282  26.839  1.00  0.00    -0.263 OA
ENDROOT
BRANCH   1  20
HETATM   20  N3  UNL     1     -12.831   8.032  26.402  1.00  0.00    -0.227 N 
HETATM   21  N2  UNL     1     -12.244   8.506  27.532  1.00  0.00    -0.234 N 
HETATM   22  N1  UNL     1     -13.142   9.039  28.331  1.00  0.00    -0.283 N 
ATOM     23  H2  UNL     1     -11.245   8.455  27.733  1.00  0.00     0.209 HD
HETATM   24  C10 UNL     1     -14.344   8.937  27.757  1.00  0.00     0.103 A 
ATOM     25  H1  UNL     1     -12.952   9.461  29.241  1.00  0.00     0.188 HD
HETATM   26  C26 UNL     1     -14.144   8.285  26.530  1.00  0.00     0.189 A 
BRANCH  24  27
HETATM   27  C9  UNL     1     -15.664   9.323  28.321  1.00  0.00     0.234 C 
BRANCH  27  28
HETATM   28  O4  UNL     1     -15.537  10.366  29.259  1.00  0.00    -0.347 OA
BRANCH  28  29
HETATM   29  C8  UNL     1     -16.453  11.363  29.127  1.00  0.00     0.342 A 
HETATM   30  O3  UNL     1     -16.181  12.421  30.008  1.00  0.00    -0.312 OA
HETATM   31  C6  UNL     1     -17.229  12.614  30.929  1.00  0.00     0.092 A 
HETATM   32  C5  UNL     1     -18.230  11.670  30.676  1.00  0.00     0.082 A 
HETATM   33  C7  UNL     1     -17.428  13.497  31.963  1.00  0.00     0.074 A 
HETATM   34  C4  UNL     1     -19.355  11.696  31.505  1.00  0.00     0.085 A 
HETATM   35  C27 UNL     1     -17.808  10.914  29.515  1.00  0.00     0.220 A 
HETATM   36  C3  UNL     1     -19.549  12.573  32.540  1.00  0.00     0.074 A 
HETATM   37  C2  UNL     1     -18.554  13.496  32.762  1.00  0.00     0.073 A 
HETATM   38  O15 UNL     1     -18.514  10.023  28.941  1.00  0.00    -0.287 OA
BRANCH  34  39
HETATM   39  O2  UNL     1     -20.378  10.739  31.277  1.00  0.00    -0.360 OA
ATOM     40  H2  UNL     1     -21.274  11.052  31.316  1.00  0.00     0.217 HD
ENDBRANCH  34  39
BRANCH  37  41
HETATM   41  O1  UNL     1     -18.640  14.451  33.783  1.00  0.00    -0.356 OA
HETATM   42  C1  UNL     1     -19.567  14.254  34.811  1.00  0.00     0.210 C 
ENDBRANCH  37  41
ENDBRANCH  28  29
ENDBRANCH  27  28
ENDBRANCH  24  27
BRANCH  26  43
HETATM   43  O14 UNL     1     -15.222   8.040  25.715  1.00  0.00    -0.343 OA
ATOM     44  H14 UNL     1     -15.107   8.062  24.773  1.00  0.00     0.219 HD
ENDBRANCH  26  43
ENDBRANCH   1  20
BRANCH  16  45
HETATM   45  C21 UNL     1      -5.812   5.724  22.427  1.00  0.00     0.218 C 
BRANCH  45  46
HETATM   46  O7  UNL     1      -7.005   5.163  21.934  1.00  0.00    -0.377 OA
BRANCH  46  47
HETATM   47  C22 UNL     1      -6.965   5.326  20.542  1.00  0.00     0.280 C 
BRANCH  47  48
HETATM   48  C23 UNL     1      -7.560   4.264  19.747  1.00  0.00     0.197 C 
HETATM   49  O8  UNL     1      -7.073   3.160  19.525  1.00  0.00    -0.646 OA
HETATM   50  O9  UNL     1      -8.835   4.549  19.178  1.00  0.00    -0.646 OA
ENDBRANCH  47  48
ENDBRANCH  46  47
ENDBRANCH  45  46
ENDBRANCH  16  45
BRANCH  16  51
HETATM   51  C24 UNL     1      -4.278   4.953  24.079  1.00  0.00     0.212 C 
HETATM   52  O10 UNL     1      -3.347   5.394  23.366  1.00  0.00    -0.646 OA
HETATM   53  O11 UNL     1      -4.029   3.942  24.958  1.00  0.00    -0.646 OA
ENDBRANCH  16  51
TORSDOF 12
ENDMDL
MODEL 4
REMARK VINA RESULT: -11.137600328      1.723      2.906
REMARK  12 active torsions:
REMARK  status: ('A' for Active; 'I' for Inactive)
REMARK    1  A    between atoms: O1_2  and  C2_3 
REMARK    2  A    between atoms: C4_5  and  O2_6 
REMARK    3  A    between atoms: C8_12  and  O4_13 
REMARK    4  A    between atoms: O4_13  and  C9_14 
REMARK    5  A    between atoms: C9_14  and  C10_15 
REMARK    6  A    between atoms: N3_20  and  C11_21 
REMARK    7  A    between atoms: C20_36  and  C21_37 
REMARK    8  A    between atoms: C20_36  and  C24_43 
REMARK    9  A    between atoms: C21_37  and  O7_38 
REMARK   10  A    between atoms: O7_38  and  C22_39 
REMARK   11  A    between atoms: C22_39  and  C23_40 
REMARK   12  A    between atoms: C26_49  and  O14_50 
ROOT
HETATM    1  C11 UNL     1     -10.439   8.578  26.721  1.00  0.00     0.148 C 
HETATM    2  C12 UNL     1      -9.271   7.894  26.326  1.00  0.00     0.059 C 
HETATM    3  N4  UNL     1      -9.192   6.497  26.831  1.00  0.00    -0.324 N 
ATOM      4  H4  UNL     1      -9.488   6.221  27.767  1.00  0.00     0.169 HD
HETATM    5  C13 UNL     1      -8.673   5.600  25.894  1.00  0.00     0.261 C 
HETATM    6  O5  UNL     1      -9.070   4.413  25.896  1.00  0.00    -0.270 OA
HETATM    7  C14 UNL     1      -7.686   6.094  24.943  1.00  0.00     0.194 C 
HETATM    8  O6  UNL     1      -7.290   7.382  25.281  1.00  0.00    -0.354 OA
HETATM    9  C15 UNL     1      -8.525   8.110  25.113  1.00  0.00     0.176 C 
HETATM   10  C16 UNL     1      -8.906   7.710  23.772  1.00  0.00     0.065 C 
HETATM   11  C17 UNL     1      -8.475   6.269  23.634  1.00  0.00     0.145 C 
HETATM   12  N5  UNL     1      -7.440   6.040  22.670  1.00  0.00    -0.138 NA
HETATM   13  N6  UNL     1      -6.815   4.906  23.155  1.00  0.00    -0.123 NA
HETATM   14  C18 UNL     1      -6.597   5.198  24.549  1.00  0.00     0.179 C 
HETATM   15  C19 UNL     1      -5.241   5.927  24.683  1.00  0.00     0.095 C 
HETATM   16  C20 UNL     1      -4.442   5.149  25.680  1.00  0.00     0.182 C 
HETATM   17  O12 UNL     1      -5.430   4.299  26.305  1.00  0.00    -0.295 OA
HETATM   18  C25 UNL     1      -6.369   3.960  25.328  1.00  0.00     0.290 C 
HETATM   19  O13 UNL     1      -6.906   2.862  25.135  1.00  0.00    -0.263 OA
ENDROOT
BRANCH   1  20
HETATM   20  N3  UNL     1     -11.802   8.270  26.514  1.00  0.00    -0.227 N 
HETATM   21  N2  UNL     1     -12.360   7.751  25.389  1.00  0.00    -0.234 N 
HETATM   22  N1  UNL     1     -13.640   7.515  25.573  1.00  0.00    -0.283 N 
ATOM     23  H2  UNL     1     -11.855   7.570  24.521  1.00  0.00     0.209 HD
HETATM   24  C10 UNL     1     -13.968   7.866  26.820  1.00  0.00     0.103 A 
ATOM     25  H1  UNL     1     -14.279   7.128  24.878  1.00  0.00     0.188 HD
HETATM   26  C26 UNL     1     -12.795   8.356  27.416  1.00  0.00     0.189 A 
BRANCH  24  27
HETATM   27  C9  UNL     1     -15.314   7.858  27.451  1.00  0.00     0.234 C 
BRANCH  27  28
HETATM   28  O4  UNL     1     -15.396   8.797  28.497  1.00  0.00    -0.347 OA
BRANCH  28  29
HETATM   29  C8  UNL     1     -16.123   9.910  28.205  1.00  0.00     0.342 A 
HETATM   30  O3  UNL     1     -15.587  11.045  28.833  1.00  0.00    -0.312 OA
HETATM   31  C6  UNL     1     -16.498  11.615  29.743  1.00  0.00     0.092 A 
HETATM   32  C5  UNL     1     -17.672  10.855  29.741  1.00  0.00     0.082 A 
HETATM   33  C7  UNL     1     -16.441  12.704  30.579  1.00  0.00     0.074 A 
HETATM   34  C4  UNL     1     -18.697  11.262  30.600  1.00  0.00     0.085 A 
HETATM   35  C27 UNL     1     -17.498   9.820  28.743  1.00  0.00     0.220 A 
HETATM   36  C3  UNL     1     -18.636  12.345  31.437  1.00  0.00     0.074 A 
HETATM   37  C2  UNL     1     -17.474  13.079  31.415  1.00  0.00     0.073 A 
HETATM   38  O15 UNL     1     -18.402   8.990  28.402  1.00  0.00    -0.287 OA
BRANCH  34  39
HETATM   39  O2  UNL     1     -19.892  10.499  30.625  1.00  0.00    -0.360 OA
ATOM     40  H2  UNL     1     -19.869   9.682  31.109  1.00  0.00     0.217 HD
ENDBRANCH  34  39
BRANCH  37  41
HETATM   41  O1  UNL     1     -17.295  14.213  32.218  1.00  0.00    -0.356 OA
HETATM   42  C1  UNL     1     -16.467  14.117  33.340  1.00  0.00     0.210 C 
ENDBRANCH  37  41
ENDBRANCH  28  29
ENDBRANCH  27  28
ENDBRANCH  24  27
BRANCH  26  43
HETATM   43  O14 UNL     1     -12.835   8.797  28.715  1.00  0.00    -0.343 OA
ATOM     44  H14 UNL     1     -12.036   9.103  29.128  1.00  0.00     0.219 HD
ENDBRANCH  26  43
ENDBRANCH   1  20
BRANCH  16  45
HETATM   45  C21 UNL     1      -3.740   5.956  26.692  1.00  0.00     0.218 C 
BRANCH  45  46
HETATM   46  O7  UNL     1      -4.259   7.243  26.922  1.00  0.00    -0.377 OA
BRANCH  46  47
HETATM   47  C22 UNL     1      -4.953   7.172  28.137  1.00  0.00     0.280 C 
BRANCH  47  48
HETATM   48  C23 UNL     1      -5.569   8.403  28.606  1.00  0.00     0.197 C 
HETATM   49  O8  UNL     1      -5.668   8.770  29.774  1.00  0.00    -0.646 OA
HETATM   50  O9  UNL     1      -6.105   9.257  27.600  1.00  0.00    -0.646 OA
ENDBRANCH  47  48
ENDBRANCH  46  47
ENDBRANCH  45  46
ENDBRANCH  16  45
BRANCH  16  51
HETATM   51  C24 UNL     1      -3.419   4.357  24.954  1.00  0.00     0.212 C 
HETATM   52  O10 UNL     1      -2.526   5.026  24.385  1.00  0.00    -0.646 OA
HETATM   53  O11 UNL     1      -3.395   2.998  24.871  1.00  0.00    -0.646 OA
ENDBRANCH  16  51
TORSDOF 12
ENDMDL
MODEL 5
REMARK VINA RESULT: -11.073397279      1.219      1.419
REMARK  12 active torsions:
REMARK  status: ('A' for Active; 'I' for Inactive)
REMARK    1  A    between atoms: O1_2  and  C2_3 
REMARK    2  A    between atoms: C4_5  and  O2_6 
REMARK    3  A    between atoms: C8_12  and  O4_13 
REMARK    4  A    between atoms: O4_13  and  C9_14 
REMARK    5  A    between atoms: C9_14  and  C10_15 
REMARK    6  A    between atoms: N3_20  and  C11_21 
REMARK    7  A    between atoms: C20_36  and  C21_37 
REMARK    8  A    between atoms: C20_36  and  C24_43 
REMARK    9  A    between atoms: C21_37  and  O7_38 
REMARK   10  A    between atoms: O7_38  and  C22_39 
REMARK   11  A    between atoms: C22_39  and  C23_40 
REMARK   12  A    between atoms: C26_49  and  O14_50 
ROOT
HETATM    1  C11 UNL     1     -12.251   6.645  24.951  1.00  0.00     0.148 C 
HETATM    2  C12 UNL     1     -10.871   6.365  25.026  1.00  0.00     0.059 C 
HETATM    3  N4  UNL     1     -10.013   7.578  25.076  1.00  0.00    -0.324 N 
ATOM      4  H4  UNL     1     -10.194   8.416  24.523  1.00  0.00     0.169 HD
HETATM    5  C13 UNL     1      -8.934   7.456  25.953  1.00  0.00     0.261 C 
HETATM    6  O5  UNL     1      -8.507   8.471  26.548  1.00  0.00    -0.270 OA
HETATM    7  C14 UNL     1      -8.349   6.135  26.145  1.00  0.00     0.194 C 
HETATM    8  O6  UNL     1      -8.882   5.233  25.233  1.00  0.00    -0.354 OA
HETATM    9  C15 UNL     1     -10.268   5.209  25.638  1.00  0.00     0.176 C 
HETATM   10  C16 UNL     1     -10.140   4.939  27.057  1.00  0.00     0.065 C 
HETATM   11  C17 UNL     1      -8.898   5.670  27.506  1.00  0.00     0.145 C 
HETATM   12  N5  UNL     1      -7.828   4.826  27.947  1.00  0.00    -0.138 NA
HETATM   13  N6  UNL     1      -6.706   5.591  27.685  1.00  0.00    -0.123 NA
HETATM   14  C18 UNL     1      -6.900   6.040  26.329  1.00  0.00     0.179 C 
HETATM   15  C19 UNL     1      -6.317   4.971  25.379  1.00  0.00     0.095 C 
HETATM   16  C20 UNL     1      -5.347   5.683  24.489  1.00  0.00     0.182 C 
HETATM   17  O12 UNL     1      -5.669   7.077  24.697  1.00  0.00    -0.295 OA
HETATM   18  C25 UNL     1      -6.059   7.222  26.030  1.00  0.00     0.290 C 
HETATM   19  O13 UNL     1      -5.771   8.136  26.814  1.00  0.00    -0.263 OA
ENDROOT
BRANCH   1  20
HETATM   20  N3  UNL     1     -13.090   7.383  25.815  1.00  0.00    -0.227 N 
HETATM   21  N2  UNL     1     -14.447   7.445  25.778  1.00  0.00    -0.234 N 
HETATM   22  N1  UNL     1     -14.905   8.162  26.781  1.00  0.00    -0.283 N 
ATOM     23  H2  UNL     1     -15.030   6.998  25.070  1.00  0.00     0.209 HD
HETATM   24  C10 UNL     1     -13.871   8.592  27.510  1.00  0.00     0.103 A 
ATOM     25  H1  UNL     1     -15.888   8.358  26.971  1.00  0.00     0.188 HD
HETATM   26  C26 UNL     1     -12.713   8.103  26.886  1.00  0.00     0.189 A 
BRANCH  24  27
HETATM   27  C9  UNL     1     -13.895   9.500  28.687  1.00  0.00     0.234 C 
BRANCH  27  28
HETATM   28  O4  UNL     1     -15.172   9.538  29.281  1.00  0.00    -0.347 OA
BRANCH  28  29
HETATM   29  C8  UNL     1     -15.943  10.594  28.903  1.00  0.00     0.342 A 
HETATM   30  O3  UNL     1     -15.656  11.732  29.673  1.00  0.00    -0.312 OA
HETATM   31  C6  UNL     1     -16.776  12.155  30.413  1.00  0.00     0.092 A 
HETATM   32  C5  UNL     1     -17.843  11.289  30.150  1.00  0.00     0.082 A 
HETATM   33  C7  UNL     1     -16.992  13.190  31.292  1.00  0.00     0.074 A 
HETATM   34  C4  UNL     1     -19.048  11.543  30.812  1.00  0.00     0.085 A 
HETATM   35  C27 UNL     1     -17.377  10.340  29.160  1.00  0.00     0.220 A 
HETATM   36  C3  UNL     1     -19.259  12.571  31.692  1.00  0.00     0.074 A 
HETATM   37  C2  UNL     1     -18.197  13.412  31.928  1.00  0.00     0.073 A 
HETATM   38  O15 UNL     1     -18.109   9.452  28.615  1.00  0.00    -0.287 OA
BRANCH  34  39
HETATM   39  O2  UNL     1     -20.141  10.671  30.571  1.00  0.00    -0.360 OA
ATOM     40  H2  UNL     1     -20.268  10.380  29.676  1.00  0.00     0.217 HD
ENDBRANCH  34  39
BRANCH  37  41
HETATM   41  O1  UNL     1     -18.292  14.504  32.799  1.00  0.00    -0.356 OA
HETATM   42  C1  UNL     1     -17.138  14.941  33.457  1.00  0.00     0.210 C 
ENDBRANCH  37  41
ENDBRANCH  28  29
ENDBRANCH  27  28
ENDBRANCH  24  27
BRANCH  26  43
HETATM   43  O14 UNL     1     -11.485   8.394  27.424  1.00  0.00    -0.343 OA
ATOM     44  H14 UNL     1     -11.104   7.803  28.063  1.00  0.00     0.219 HD
ENDBRANCH  26  43
ENDBRANCH   1  20
BRANCH  16  45
HETATM   45  C21 UNL     1      -5.434   5.339  23.060  1.00  0.00     0.218 C 
BRANCH  45  46
HETATM   46  O7  UNL     1      -6.673   4.840  22.621  1.00  0.00    -0.377 OA
BRANCH  46  47
HETATM   47  C22 UNL     1      -6.966   5.519  21.430  1.00  0.00     0.280 C 
BRANCH  47  48
HETATM   48  C23 UNL     1      -7.657   6.792  21.561  1.00  0.00     0.197 C 
HETATM   49  O8  UNL     1      -8.423   7.116  22.463  1.00  0.00    -0.646 OA
HETATM   50  O9  UNL     1      -7.406   7.748  20.535  1.00  0.00    -0.646 OA
ENDBRANCH  47  48
ENDBRANCH  46  47
ENDBRANCH  45  46
ENDBRANCH  16  45
BRANCH  16  51
HETATM   51  C24 UNL     1      -3.969   5.366  24.940  1.00  0.00     0.212 C 
HETATM   52  O10 UNL     1      -3.837   4.272  25.536  1.00  0.00    -0.646 OA
HETATM   53  O11 UNL     1      -2.881   6.164  24.754  1.00  0.00    -0.646 OA
ENDBRANCH  16  51
TORSDOF 12
ENDMDL
