MODEL 1
REMARK VINA RESULT: -8.551786363      0.000      0.000
REMARK  15 active torsions:
REMARK  status: ('A' for Active; 'I' for Inactive)
REMARK    1  A    between atoms: C2_2  and  S1_4 
REMARK    2  A    between atoms: S1_4  and  C3_5 
REMARK    3  A    between atoms: C3_5  and  C4_6 
REMARK    4  A    between atoms: C5_7  and  C6_8 
REMARK    5  A    between atoms: C9_15  and  C10_16 
REMARK    6  A    between atoms: C11_19  and  C12_20 
REMARK    7  A    between atoms: C12_20  and  O6_21 
REMARK    8  A    between atoms: C13_25  and  S2_26 
REMARK    9  A    between atoms: S2_26  and  S3_27 
REMARK   10  A    between atoms: S3_27  and  C14_28 
REMARK   11  A    between atoms: C18_38  and  S4_39 
REMARK   12  A    between atoms: S4_39  and  C19_40 
REMARK   13  A    between atoms: C19_40  and  C20_41 
REMARK   14  A    between atoms: C20_41  and  O7_42 
REMARK   15  A    between atoms: C21_46  and  C22_47 
ROOT
HETATM    1  C4  UNL     1      -5.166   6.141  25.101  1.00  0.00     0.036 C 
HETATM    2  C5  UNL     1      -5.989   6.844  25.827  1.00  0.00     0.074 C 
HETATM    3  C7  UNL     1      -6.948   7.692  25.008  1.00  0.00     0.222 A 
HETATM    4  C8  UNL     1      -8.296   7.924  25.509  1.00  0.00     0.134 A 
HETATM    5  N1  UNL     1      -9.323   8.401  26.234  1.00  0.00    -0.335 N 
ATOM      6  H1  UNL     1      -9.236   9.065  27.004  1.00  0.00     0.167 HD
HETATM    7  C9  UNL     1     -10.475   7.877  25.799  1.00  0.00     0.138 A 
HETATM    8  C11 UNL     1     -10.110   7.028  24.742  1.00  0.00     0.093 A 
HETATM    9  N2  UNL     1      -8.788   7.059  24.565  1.00  0.00    -0.235 N 
HETATM   10  N3  UNL     1      -7.505   6.795  24.055  1.00  0.00    -0.245 N 
HETATM   11  C13 UNL     1      -6.620   6.095  23.205  1.00  0.00     0.174 C 
HETATM   12  N8  UNL     1      -5.461   5.752  23.723  1.00  0.00    -0.337 N 
ATOM     13  H8  UNL     1      -4.781   5.226  23.173  1.00  0.00     0.168 HD
ENDROOT
BRANCH  11  14
HETATM   14  S2  UNL     1      -7.036   5.780  21.527  1.00  0.00    -0.017 SA
BRANCH  14  15
HETATM   15  S3  UNL     1      -7.009   7.504  20.310  1.00  0.00    -0.061 SA
BRANCH  15  16
HETATM   16  C14 UNL     1      -5.383   7.631  19.511  1.00  0.00     0.190 C 
HETATM   17  N4  UNL     1      -5.095   8.952  19.089  1.00  0.00    -0.358 N 
HETATM   18  C15 UNL     1      -4.005   9.521  18.747  1.00  0.00     0.133 A 
ATOM     19  H4  UNL     1      -5.911   9.563  19.052  1.00  0.00     0.162 HD
HETATM   20  N5  UNL     1      -3.905  10.831  18.357  1.00  0.00    -0.337 N 
HETATM   21  C17 UNL     1      -2.693   9.024  18.663  1.00  0.00     0.111 A 
HETATM   22  C16 UNL     1      -2.622  11.103  18.057  1.00  0.00     0.182 A 
ATOM     23  H5  UNL     1      -4.678  11.494  18.303  1.00  0.00     0.168 HD
HETATM   24  N6  UNL     1      -1.887  10.006  18.242  1.00  0.00    -0.347 N 
ATOM     25  H6  UNL     1      -0.881   9.929  18.090  1.00  0.00     0.167 HD
HETATM   26  C18 UNL     1      -2.222   7.823  18.987  1.00  0.00     0.097 C 
HETATM   27  N7  UNL     1      -3.090   6.831  19.606  1.00  0.00    -0.366 N 
HETATM   28  C21 UNL     1      -4.297   7.054  20.377  1.00  0.00     0.217 C 
ATOM     29  H7  UNL     1      -2.814   5.857  19.482  1.00  0.00     0.161 HD
BRANCH  26  30
HETATM   30  S4  UNL     1      -0.541   7.386  18.802  1.00  0.00    -0.108 SA
BRANCH  30  31
HETATM   31  C19 UNL     1       0.509   7.434  20.215  1.00  0.00     0.107 C 
BRANCH  31  32
HETATM   32  C20 UNL     1       1.903   6.936  19.846  1.00  0.00     0.174 C 
BRANCH  32  33
HETATM   33  O7  UNL     1       2.787   8.009  19.936  1.00  0.00    -0.400 OA
ATOM     34  H7  UNL     1       3.484   7.874  19.304  1.00  0.00     0.209 HD
ENDBRANCH  32  33
ENDBRANCH  31  32
ENDBRANCH  30  31
ENDBRANCH  26  30
BRANCH  28  35
HETATM   35  C22 UNL     1      -4.080   7.868  21.593  1.00  0.00     0.199 C 
HETATM   36  O8  UNL     1      -3.193   7.574  22.408  1.00  0.00    -0.646 OA
HETATM   37  O9  UNL     1      -4.879   8.967  21.815  1.00  0.00    -0.646 OA
ENDBRANCH  28  35
ENDBRANCH  15  16
ENDBRANCH  14  15
ENDBRANCH  11  14
BRANCH   1  38
HETATM   38  C3  UNL     1      -3.955   5.443  25.652  1.00  0.00     0.140 C 
BRANCH  38  39
HETATM   39  S1  UNL     1      -4.229   3.684  25.652  1.00  0.00    -0.087 SA
BRANCH  39  40
HETATM   40  C2  UNL     1      -5.880   3.184  25.966  1.00  0.00     0.182 C 
HETATM   41  C1  UNL     1      -6.379   2.884  27.320  1.00  0.00     0.104 C 
HETATM   42  O1  UNL     1      -6.691   3.071  25.002  1.00  0.00    -0.286 OA
ENDBRANCH  39  40
ENDBRANCH  38  39
ENDBRANCH   1  38
BRANCH   2  43
HETATM   43  C6  UNL     1      -5.921   7.053  27.246  1.00  0.00     0.209 C 
HETATM   44  O2  UNL     1      -6.311   6.298  28.133  1.00  0.00    -0.644 OA
HETATM   45  O3  UNL     1      -5.348   8.248  27.698  1.00  0.00    -0.644 OA
ENDBRANCH   2  43
BRANCH   8  46
HETATM   46  C12 UNL     1     -11.182   6.256  24.047  1.00  0.00     0.226 C 
BRANCH  46  47
HETATM   47  O6  UNL     1     -11.736   6.888  22.966  1.00  0.00    -0.395 OA
ATOM     48  H6  UNL     1     -12.484   6.443  22.585  1.00  0.00     0.209 HD
ENDBRANCH  46  47
ENDBRANCH   8  46
BRANCH   7  49
HETATM   49  C10 UNL     1     -11.824   8.126  26.304  1.00  0.00     0.229 C 
HETATM   50  O4  UNL     1     -12.642   8.648  25.473  1.00  0.00    -0.643 OA
HETATM   51  O5  UNL     1     -12.244   7.842  27.574  1.00  0.00    -0.643 OA
ENDBRANCH   7  49
TORSDOF 15
ENDMDL
MODEL 2
REMARK VINA RESULT: -8.541732908      5.311     10.113
REMARK  15 active torsions:
REMARK  status: ('A' for Active; 'I' for Inactive)
REMARK    1  A    between atoms: C2_2  and  S1_4 
REMARK    2  A    between atoms: S1_4  and  C3_5 
REMARK    3  A    between atoms: C3_5  and  C4_6 
REMARK    4  A    between atoms: C5_7  and  C6_8 
REMARK    5  A    between atoms: C9_15  and  C10_16 
REMARK    6  A    between atoms: C11_19  and  C12_20 
REMARK    7  A    between atoms: C12_20  and  O6_21 
REMARK    8  A    between atoms: C13_25  and  S2_26 
REMARK    9  A    between atoms: S2_26  and  S3_27 
REMARK   10  A    between atoms: S3_27  and  C14_28 
REMARK   11  A    between atoms: C18_38  and  S4_39 
REMARK   12  A    between atoms: S4_39  and  C19_40 
REMARK   13  A    between atoms: C19_40  and  C20_41 
REMARK   14  A    between atoms: C20_41  and  O7_42 
REMARK   15  A    between atoms: C21_46  and  C22_47 
ROOT
HETATM    1  C4  UNL     1      -3.093   6.324  30.290  1.00  0.00     0.036 C 
HETATM    2  C5  UNL     1      -2.675   5.753  31.384  1.00  0.00     0.074 C 
HETATM    3  C7  UNL     1      -3.311   4.396  31.640  1.00  0.00     0.222 A 
HETATM    4  C8  UNL     1      -2.526   3.356  32.293  1.00  0.00     0.134 A 
HETATM    5  N1  UNL     1      -1.882   2.647  33.236  1.00  0.00    -0.335 N 
ATOM      6  H1  UNL     1      -1.811   2.910  34.219  1.00  0.00     0.167 HD
HETATM    7  C9  UNL     1      -1.348   1.545  32.696  1.00  0.00     0.138 A 
HETATM    8  C11 UNL     1      -1.696   1.601  31.338  1.00  0.00     0.093 A 
HETATM    9  N2  UNL     1      -2.413   2.699  31.093  1.00  0.00    -0.235 N 
HETATM   10  N3  UNL     1      -3.156   3.684  30.419  1.00  0.00    -0.245 N 
HETATM   11  C13 UNL     1      -3.684   4.260  29.242  1.00  0.00     0.174 C 
HETATM   12  N8  UNL     1      -3.643   5.572  29.164  1.00  0.00    -0.337 N 
ATOM     13  H8  UNL     1      -3.988   6.055  28.334  1.00  0.00     0.168 HD
ENDROOT
BRANCH  11  14
HETATM   14  S2  UNL     1      -4.425   3.261  28.000  1.00  0.00    -0.017 SA
BRANCH  14  15
HETATM   15  S3  UNL     1      -6.408   2.690  28.444  1.00  0.00    -0.061 SA
BRANCH  15  16
HETATM   16  C14 UNL     1      -7.544   3.913  27.729  1.00  0.00     0.190 C 
HETATM   17  N4  UNL     1      -6.908   4.740  26.771  1.00  0.00    -0.358 N 
HETATM   18  C15 UNL     1      -7.371   5.513  25.867  1.00  0.00     0.133 A 
ATOM     19  H4  UNL     1      -5.889   4.712  26.810  1.00  0.00     0.162 HD
HETATM   20  N5  UNL     1      -6.598   6.255  25.012  1.00  0.00    -0.337 N 
HETATM   21  C17 UNL     1      -8.694   5.821  25.509  1.00  0.00     0.111 A 
HETATM   22  C16 UNL     1      -7.400   6.962  24.197  1.00  0.00     0.182 A 
ATOM     23  H5  UNL     1      -5.579   6.268  24.996  1.00  0.00     0.168 HD
HETATM   24  N6  UNL     1      -8.673   6.699  24.498  1.00  0.00    -0.347 N 
ATOM     25  H6  UNL     1      -9.491   7.099  24.038  1.00  0.00     0.167 HD
HETATM   26  C18 UNL     1      -9.835   5.328  25.983  1.00  0.00     0.097 C 
HETATM   27  N7  UNL     1      -9.824   4.248  26.959  1.00  0.00    -0.366 N 
HETATM   28  C21 UNL     1      -8.788   3.262  27.192  1.00  0.00     0.217 C 
ATOM     29  H7  UNL     1     -10.649   4.176  27.553  1.00  0.00     0.161 HD
BRANCH  26  30
HETATM   30  S4  UNL     1     -11.400   5.850  25.408  1.00  0.00    -0.108 SA
BRANCH  30  31
HETATM   31  C19 UNL     1     -11.923   7.498  25.747  1.00  0.00     0.107 C 
BRANCH  31  32
HETATM   32  C20 UNL     1     -11.906   8.324  24.465  1.00  0.00     0.174 C 
BRANCH  32  33
HETATM   33  O7  UNL     1     -11.625   7.470  23.400  1.00  0.00    -0.400 OA
ATOM     34  H7  UNL     1     -10.765   7.092  23.540  1.00  0.00     0.209 HD
ENDBRANCH  32  33
ENDBRANCH  31  32
ENDBRANCH  30  31
ENDBRANCH  26  30
BRANCH  28  35
HETATM   35  C22 UNL     1      -8.495   2.422  26.009  1.00  0.00     0.199 C 
HETATM   36  O8  UNL     1      -7.334   2.279  25.599  1.00  0.00    -0.646 OA
HETATM   37  O9  UNL     1      -9.535   1.793  25.360  1.00  0.00    -0.646 OA
ENDBRANCH  28  35
ENDBRANCH  15  16
ENDBRANCH  14  15
ENDBRANCH  11  14
BRANCH   1  38
HETATM   38  C3  UNL     1      -2.836   7.765  29.951  1.00  0.00     0.140 C 
BRANCH  38  39
HETATM   39  S1  UNL     1      -4.386   8.623  29.773  1.00  0.00    -0.087 SA
BRANCH  39  40
HETATM   40  C2  UNL     1      -5.265   8.277  28.296  1.00  0.00     0.182 C 
HETATM   41  C1  UNL     1      -6.648   8.733  28.066  1.00  0.00     0.104 C 
HETATM   42  O1  UNL     1      -4.706   7.610  27.378  1.00  0.00    -0.286 OA
ENDBRANCH  39  40
ENDBRANCH  38  39
ENDBRANCH   1  38
BRANCH   2  43
HETATM   43  C6  UNL     1      -1.889   6.355  32.424  1.00  0.00     0.209 C 
HETATM   44  O2  UNL     1      -2.295   6.970  33.406  1.00  0.00    -0.644 OA
HETATM   45  O3  UNL     1      -0.497   6.243  32.332  1.00  0.00    -0.644 OA
ENDBRANCH   2  43
BRANCH   8  46
HETATM   46  C12 UNL     1      -1.219   0.512  30.435  1.00  0.00     0.226 C 
BRANCH  46  47
HETATM   47  O6  UNL     1      -1.532   0.685  29.112  1.00  0.00    -0.395 OA
ATOM     48  H6  UNL     1      -2.307   0.220  28.822  1.00  0.00     0.209 HD
ENDBRANCH  46  47
ENDBRANCH   8  46
BRANCH   7  49
HETATM   49  C10 UNL     1      -0.571   0.501  33.365  1.00  0.00     0.229 C 
HETATM   50  O4  UNL     1       0.685   0.716  33.457  1.00  0.00    -0.643 OA
HETATM   51  O5  UNL     1      -1.097  -0.651  33.879  1.00  0.00    -0.643 OA
ENDBRANCH   7  49
TORSDOF 15
ENDMDL
MODEL 3
REMARK VINA RESULT: -8.517778758      6.222     10.938
REMARK  15 active torsions:
REMARK  status: ('A' for Active; 'I' for Inactive)
REMARK    1  A    between atoms: C2_2  and  S1_4 
REMARK    2  A    between atoms: S1_4  and  C3_5 
REMARK    3  A    between atoms: C3_5  and  C4_6 
REMARK    4  A    between atoms: C5_7  and  C6_8 
REMARK    5  A    between atoms: C9_15  and  C10_16 
REMARK    6  A    between atoms: C11_19  and  C12_20 
REMARK    7  A    between atoms: C12_20  and  O6_21 
REMARK    8  A    between atoms: C13_25  and  S2_26 
REMARK    9  A    between atoms: S2_26  and  S3_27 
REMARK   10  A    between atoms: S3_27  and  C14_28 
REMARK   11  A    between atoms: C18_38  and  S4_39 
REMARK   12  A    between atoms: S4_39  and  C19_40 
REMARK   13  A    between atoms: C19_40  and  C20_41 
REMARK   14  A    between atoms: C20_41  and  O7_42 
REMARK   15  A    between atoms: C21_46  and  C22_47 
ROOT
HETATM    1  C4  UNL     1      -4.281   3.429  27.638  1.00  0.00     0.036 C 
HETATM    2  C5  UNL     1      -4.617   4.132  26.593  1.00  0.00     0.074 C 
HETATM    3  C7  UNL     1      -5.913   3.672  25.945  1.00  0.00     0.222 A 
HETATM    4  C8  UNL     1      -6.786   4.660  25.324  1.00  0.00     0.134 A 
HETATM    5  N1  UNL     1      -7.280   5.556  24.452  1.00  0.00    -0.335 N 
ATOM      6  H1  UNL     1      -6.828   5.836  23.582  1.00  0.00     0.167 HD
HETATM    7  C9  UNL     1      -8.453   6.027  24.894  1.00  0.00     0.138 A 
HETATM    8  C11 UNL     1      -8.672   5.367  26.113  1.00  0.00     0.093 A 
HETATM    9  N2  UNL     1      -7.661   4.536  26.373  1.00  0.00    -0.235 N 
HETATM   10  N3  UNL     1      -6.846   3.588  27.016  1.00  0.00    -0.245 N 
HETATM   11  C13 UNL     1      -6.525   2.759  28.113  1.00  0.00     0.174 C 
HETATM   12  N8  UNL     1      -5.253   2.687  28.439  1.00  0.00    -0.337 N 
ATOM     13  H8  UNL     1      -4.951   2.124  29.234  1.00  0.00     0.168 HD
ENDROOT
BRANCH  11  14
HETATM   14  S2  UNL     1      -7.766   1.822  28.933  1.00  0.00    -0.017 SA
BRANCH  14  15
HETATM   15  S3  UNL     1      -7.014   0.143  29.967  1.00  0.00    -0.061 SA
BRANCH  15  16
HETATM   16  C14 UNL     1      -5.773   0.703  31.169  1.00  0.00     0.190 C 
HETATM   17  N4  UNL     1      -6.356   1.389  32.262  1.00  0.00    -0.358 N 
HETATM   18  C15 UNL     1      -5.906   1.698  33.416  1.00  0.00     0.133 A 
ATOM     19  H4  UNL     1      -7.316   1.694  32.096  1.00  0.00     0.162 HD
HETATM   20  N5  UNL     1      -6.619   2.378  34.368  1.00  0.00    -0.337 N 
HETATM   21  C17 UNL     1      -4.653   1.466  34.008  1.00  0.00     0.111 A 
HETATM   22  C16 UNL     1      -5.849   2.546  35.457  1.00  0.00     0.182 A 
ATOM     23  H5  UNL     1      -7.580   2.705  34.268  1.00  0.00     0.168 HD
HETATM   24  N6  UNL     1      -4.655   1.992  35.239  1.00  0.00    -0.347 N 
ATOM     25  H6  UNL     1      -3.876   1.972  35.897  1.00  0.00     0.167 HD
HETATM   26  C18 UNL     1      -3.608   0.792  33.536  1.00  0.00     0.097 C 
HETATM   27  N7  UNL     1      -3.697   0.082  32.269  1.00  0.00    -0.366 N 
HETATM   28  C21 UNL     1      -4.883  -0.426  31.608  1.00  0.00     0.217 C 
ATOM     29  H7  UNL     1      -2.813  -0.078  31.785  1.00  0.00     0.161 HD
BRANCH  26  30
HETATM   30  S4  UNL     1      -2.117   0.617  34.430  1.00  0.00    -0.108 SA
BRANCH  30  31
HETATM   31  C19 UNL     1      -1.435  -0.994  34.638  1.00  0.00     0.107 C 
BRANCH  31  32
HETATM   32  C20 UNL     1      -0.269  -1.195  33.675  1.00  0.00     0.174 C 
BRANCH  32  33
HETATM   33  O7  UNL     1      -0.640  -0.692  32.430  1.00  0.00    -0.400 OA
ATOM     34  H7  UNL     1       0.097  -0.210  32.072  1.00  0.00     0.209 HD
ENDBRANCH  32  33
ENDBRANCH  31  32
ENDBRANCH  30  31
ENDBRANCH  26  30
BRANCH  28  35
HETATM   35  C22 UNL     1      -5.624  -1.424  32.410  1.00  0.00     0.199 C 
HETATM   36  O8  UNL     1      -5.127  -1.916  33.434  1.00  0.00    -0.646 OA
HETATM   37  O9  UNL     1      -6.885  -1.806  32.006  1.00  0.00    -0.646 OA
ENDBRANCH  28  35
ENDBRANCH  15  16
ENDBRANCH  14  15
ENDBRANCH  11  14
BRANCH   1  38
HETATM   38  C3  UNL     1      -2.928   3.496  28.288  1.00  0.00     0.140 C 
BRANCH  38  39
HETATM   39  S1  UNL     1      -2.905   2.453  29.730  1.00  0.00    -0.087 SA
BRANCH  39  40
HETATM   40  C2  UNL     1      -1.702   1.178  29.712  1.00  0.00     0.182 C 
HETATM   41  C1  UNL     1      -0.253   1.448  29.739  1.00  0.00     0.104 C 
HETATM   42  O1  UNL     1      -2.074  -0.030  29.674  1.00  0.00    -0.286 OA
ENDBRANCH  39  40
ENDBRANCH  38  39
ENDBRANCH   1  38
BRANCH   2  43
HETATM   43  C6  UNL     1      -3.803   5.093  25.904  1.00  0.00     0.209 C 
HETATM   44  O2  UNL     1      -3.644   6.278  26.187  1.00  0.00    -0.644 OA
HETATM   45  O3  UNL     1      -3.099   4.656  24.776  1.00  0.00    -0.644 OA
ENDBRANCH   2  43
BRANCH   8  46
HETATM   46  C12 UNL     1      -9.903   5.697  26.890  1.00  0.00     0.226 C 
BRANCH  46  47
HETATM   47  O6  UNL     1      -9.939   6.969  27.397  1.00  0.00    -0.395 OA
ATOM     48  H6  UNL     1     -10.176   7.025  28.315  1.00  0.00     0.209 HD
ENDBRANCH  46  47
ENDBRANCH   8  46
BRANCH   7  49
HETATM   49  C10 UNL     1      -9.325   7.011  24.254  1.00  0.00     0.229 C 
HETATM   50  O4  UNL     1      -9.991   6.594  23.247  1.00  0.00    -0.643 OA
HETATM   51  O5  UNL     1      -9.462   8.309  24.661  1.00  0.00    -0.643 OA
ENDBRANCH   7  49
TORSDOF 15
ENDMDL
MODEL 4
REMARK VINA RESULT: -8.229386887      2.863      5.830
REMARK  15 active torsions:
REMARK  status: ('A' for Active; 'I' for Inactive)
REMARK    1  A    between atoms: C2_2  and  S1_4 
REMARK    2  A    between atoms: S1_4  and  C3_5 
REMARK    3  A    between atoms: C3_5  and  C4_6 
REMARK    4  A    between atoms: C5_7  and  C6_8 
REMARK    5  A    between atoms: C9_15  and  C10_16 
REMARK    6  A    between atoms: C11_19  and  C12_20 
REMARK    7  A    between atoms: C12_20  and  O6_21 
REMARK    8  A    between atoms: C13_25  and  S2_26 
REMARK    9  A    between atoms: S2_26  and  S3_27 
REMARK   10  A    between atoms: S3_27  and  C14_28 
REMARK   11  A    between atoms: C18_38  and  S4_39 
REMARK   12  A    between atoms: S4_39  and  C19_40 
REMARK   13  A    between atoms: C19_40  and  C20_41 
REMARK   14  A    between atoms: C20_41  and  O7_42 
REMARK   15  A    between atoms: C21_46  and  C22_47 
ROOT
HETATM    1  C4  UNL     1      -7.588   6.680  25.737  1.00  0.00     0.036 C 
HETATM    2  C5  UNL     1      -8.236   5.650  26.204  1.00  0.00     0.074 C 
HETATM    3  C7  UNL     1      -7.493   4.336  26.025  1.00  0.00     0.222 A 
HETATM    4  C8  UNL     1      -7.637   3.296  27.036  1.00  0.00     0.134 A 
HETATM    5  N1  UNL     1      -8.153   2.300  27.776  1.00  0.00    -0.335 N 
ATOM      6  H1  UNL     1      -9.085   1.904  27.656  1.00  0.00     0.167 HD
HETATM    7  C9  UNL     1      -7.264   1.903  28.695  1.00  0.00     0.138 A 
HETATM    8  C11 UNL     1      -6.141   2.719  28.489  1.00  0.00     0.093 A 
HETATM    9  N2  UNL     1      -6.367   3.564  27.481  1.00  0.00    -0.235 N 
HETATM   10  N3  UNL     1      -6.187   4.583  26.531  1.00  0.00    -0.245 N 
HETATM   11  C13 UNL     1      -5.447   5.646  25.967  1.00  0.00     0.174 C 
HETATM   12  N8  UNL     1      -6.135   6.699  25.583  1.00  0.00    -0.337 N 
ATOM     13  H8  UNL     1      -5.663   7.512  25.187  1.00  0.00     0.168 HD
ENDROOT
BRANCH  11  14
HETATM   14  S2  UNL     1      -3.710   5.512  25.726  1.00  0.00    -0.017 SA
BRANCH  14  15
HETATM   15  S3  UNL     1      -3.171   4.856  23.795  1.00  0.00    -0.061 SA
BRANCH  15  16
HETATM   16  C14 UNL     1      -2.862   6.308  22.748  1.00  0.00     0.190 C 
HETATM   17  N4  UNL     1      -1.615   6.231  22.081  1.00  0.00    -0.358 N 
HETATM   18  C15 UNL     1      -1.139   6.870  21.083  1.00  0.00     0.133 A 
ATOM     19  H4  UNL     1      -0.978   5.536  22.470  1.00  0.00     0.162 HD
HETATM   20  N5  UNL     1       0.111   6.666  20.559  1.00  0.00    -0.337 N 
HETATM   21  C17 UNL     1      -1.694   7.891  20.294  1.00  0.00     0.111 A 
HETATM   22  C16 UNL     1       0.296   7.508  19.526  1.00  0.00     0.182 A 
ATOM     23  H5  UNL     1       0.791   5.986  20.897  1.00  0.00     0.168 HD
HETATM   24  N6  UNL     1      -0.800   8.251  19.365  1.00  0.00    -0.347 N 
ATOM     25  H6  UNL     1      -0.934   8.972  18.656  1.00  0.00     0.167 HD
HETATM   26  C18 UNL     1      -2.911   8.425  20.338  1.00  0.00     0.097 C 
HETATM   27  N7  UNL     1      -3.920   7.893  21.242  1.00  0.00    -0.366 N 
HETATM   28  C21 UNL     1      -4.005   6.560  21.805  1.00  0.00     0.217 C 
ATOM     29  H7  UNL     1      -4.661   8.539  21.513  1.00  0.00     0.161 HD
BRANCH  26  30
HETATM   30  S4  UNL     1      -3.418   9.707  19.264  1.00  0.00    -0.108 SA
BRANCH  30  31
HETATM   31  C19 UNL     1      -4.605   9.346  18.013  1.00  0.00     0.107 C 
BRANCH  31  32
HETATM   32  C20 UNL     1      -6.006   9.315  18.617  1.00  0.00     0.174 C 
BRANCH  32  33
HETATM   33  O7  UNL     1      -6.198   8.067  19.206  1.00  0.00    -0.400 OA
ATOM     34  H7  UNL     1      -6.372   8.200  20.131  1.00  0.00     0.209 HD
ENDBRANCH  32  33
ENDBRANCH  31  32
ENDBRANCH  30  31
ENDBRANCH  26  30
BRANCH  28  35
HETATM   35  C22 UNL     1      -4.115   5.494  20.785  1.00  0.00     0.199 C 
HETATM   36  O8  UNL     1      -3.155   4.751  20.532  1.00  0.00    -0.646 OA
HETATM   37  O9  UNL     1      -5.306   5.332  20.112  1.00  0.00    -0.646 OA
ENDBRANCH  28  35
ENDBRANCH  15  16
ENDBRANCH  14  15
ENDBRANCH  11  14
BRANCH   1  38
HETATM   38  C3  UNL     1      -8.207   8.035  25.540  1.00  0.00     0.140 C 
BRANCH  38  39
HETATM   39  S1  UNL     1      -9.006   8.102  23.951  1.00  0.00    -0.087 SA
BRANCH  39  40
HETATM   40  C2  UNL     1     -10.663   7.530  23.922  1.00  0.00     0.182 C 
HETATM   41  C1  UNL     1     -11.734   8.146  24.727  1.00  0.00     0.104 C 
HETATM   42  O1  UNL     1     -10.971   6.549  23.185  1.00  0.00    -0.286 OA
ENDBRANCH  39  40
ENDBRANCH  38  39
ENDBRANCH   1  38
BRANCH   2  43
HETATM   43  C6  UNL     1      -9.604   5.617  26.637  1.00  0.00     0.209 C 
HETATM   44  O2  UNL     1     -10.124   6.288  27.525  1.00  0.00    -0.644 OA
HETATM   45  O3  UNL     1     -10.467   4.726  25.989  1.00  0.00    -0.644 OA
ENDBRANCH   2  43
BRANCH   8  46
HETATM   46  C12 UNL     1      -4.962   2.547  29.388  1.00  0.00     0.226 C 
BRANCH  46  47
HETATM   47  O6  UNL     1      -3.770   2.966  28.858  1.00  0.00    -0.395 OA
ATOM     48  H6  UNL     1      -3.399   2.386  28.204  1.00  0.00     0.209 HD
ENDBRANCH  46  47
ENDBRANCH   8  46
BRANCH   7  49
HETATM   49  C10 UNL     1      -7.417   0.849  29.698  1.00  0.00     0.229 C 
HETATM   50  O4  UNL     1      -8.176   1.127  30.687  1.00  0.00    -0.643 OA
HETATM   51  O5  UNL     1      -6.812  -0.376  29.637  1.00  0.00    -0.643 OA
ENDBRANCH   7  49
TORSDOF 15
ENDMDL
MODEL 5
REMARK VINA RESULT: -8.154846303      5.498     10.322
REMARK  15 active torsions:
REMARK  status: ('A' for Active; 'I' for Inactive)
REMARK    1  A    between atoms: C2_2  and  S1_4 
REMARK    2  A    between atoms: S1_4  and  C3_5 
REMARK    3  A    between atoms: C3_5  and  C4_6 
REMARK    4  A    between atoms: C5_7  and  C6_8 
REMARK    5  A    between atoms: C9_15  and  C10_16 
REMARK    6  A    between atoms: C11_19  and  C12_20 
REMARK    7  A    between atoms: C12_20  and  O6_21 
REMARK    8  A    between atoms: C13_25  and  S2_26 
REMARK    9  A    between atoms: S2_26  and  S3_27 
REMARK   10  A    between atoms: S3_27  and  C14_28 
REMARK   11  A    between atoms: C18_38  and  S4_39 
REMARK   12  A    between atoms: S4_39  and  C19_40 
REMARK   13  A    between atoms: C19_40  and  C20_41 
REMARK   14  A    between atoms: C20_41  and  O7_42 
REMARK   15  A    between atoms: C21_46  and  C22_47 
ROOT
HETATM    1  C4  UNL     1      -2.761   6.140  30.965  1.00  0.00     0.036 C 
HETATM    2  C5  UNL     1      -2.550   5.339  31.972  1.00  0.00     0.074 C 
HETATM    3  C7  UNL     1      -3.371   4.061  31.912  1.00  0.00     0.222 A 
HETATM    4  C8  UNL     1      -2.802   2.827  32.437  1.00  0.00     0.134 A 
HETATM    5  N1  UNL     1      -2.367   1.886  33.293  1.00  0.00    -0.335 N 
ATOM      6  H1  UNL     1      -2.384   1.967  34.310  1.00  0.00     0.167 HD
HETATM    7  C9  UNL     1      -1.907   0.827  32.616  1.00  0.00     0.138 A 
HETATM    8  C11 UNL     1      -2.078   1.159  31.264  1.00  0.00     0.093 A 
HETATM    9  N2  UNL     1      -2.623   2.372  31.155  1.00  0.00    -0.235 N 
HETATM   10  N3  UNL     1      -3.155   3.550  30.602  1.00  0.00    -0.245 N 
HETATM   11  C13 UNL     1      -3.464   4.384  29.505  1.00  0.00     0.174 C 
HETATM   12  N8  UNL     1      -3.256   5.671  29.672  1.00  0.00    -0.337 N 
ATOM     13  H8  UNL     1      -3.438   6.331  28.914  1.00  0.00     0.168 HD
ENDROOT
BRANCH  11  14
HETATM   14  S2  UNL     1      -4.163   3.722  28.034  1.00  0.00    -0.017 SA
BRANCH  14  15
HETATM   15  S3  UNL     1      -6.147   3.046  28.269  1.00  0.00    -0.061 SA
BRANCH  15  16
HETATM   16  C14 UNL     1      -7.268   4.224  27.460  1.00  0.00     0.190 C 
HETATM   17  N4  UNL     1      -6.666   4.855  26.343  1.00  0.00    -0.358 N 
HETATM   18  C15 UNL     1      -7.158   5.516  25.368  1.00  0.00     0.133 A 
ATOM     19  H4  UNL     1      -5.651   4.765  26.313  1.00  0.00     0.162 HD
HETATM   20  N5  UNL     1      -6.417   6.069  24.356  1.00  0.00    -0.337 N 
HETATM   21  C17 UNL     1      -8.486   5.857  25.063  1.00  0.00     0.111 A 
HETATM   22  C16 UNL     1      -7.242   6.700  23.502  1.00  0.00     0.182 A 
ATOM     23  H5  UNL     1      -5.403   6.010  24.265  1.00  0.00     0.168 HD
HETATM   24  N6  UNL     1      -8.498   6.572  23.932  1.00  0.00    -0.347 N 
ATOM     25  H6  UNL     1      -9.327   6.953  23.475  1.00  0.00     0.167 HD
HETATM   26  C18 UNL     1      -9.610   5.518  25.689  1.00  0.00     0.097 C 
HETATM   27  N7  UNL     1      -9.580   4.596  26.814  1.00  0.00    -0.366 N 
HETATM   28  C21 UNL     1      -8.586   3.587  27.119  1.00  0.00     0.217 C 
ATOM     29  H7  UNL     1     -10.358   4.669  27.471  1.00  0.00     0.161 HD
BRANCH  26  30
HETATM   30  S4  UNL     1     -11.185   6.053  25.155  1.00  0.00    -0.108 SA
BRANCH  30  31
HETATM   31  C19 UNL     1     -12.432   6.358  26.362  1.00  0.00     0.107 C 
BRANCH  31  32
HETATM   32  C20 UNL     1     -12.641   7.859  26.529  1.00  0.00     0.174 C 
BRANCH  32  33
HETATM   33  O7  UNL     1     -12.304   8.203  27.836  1.00  0.00    -0.400 OA
ATOM     34  H7  UNL     1     -12.955   8.815  28.159  1.00  0.00     0.209 HD
ENDBRANCH  32  33
ENDBRANCH  31  32
ENDBRANCH  30  31
ENDBRANCH  26  30
BRANCH  28  35
HETATM   35  C22 UNL     1      -8.439   2.563  26.061  1.00  0.00     0.199 C 
HETATM   36  O8  UNL     1      -7.325   2.283  25.594  1.00  0.00    -0.646 OA
HETATM   37  O9  UNL     1      -9.562   1.917  25.593  1.00  0.00    -0.646 OA
ENDBRANCH  28  35
ENDBRANCH  15  16
ENDBRANCH  14  15
ENDBRANCH  11  14
BRANCH   1  38
HETATM   38  C3  UNL     1      -2.294   7.567  30.923  1.00  0.00     0.140 C 
BRANCH  38  39
HETATM   39  S1  UNL     1      -3.424   8.536  29.948  1.00  0.00    -0.087 SA
BRANCH  39  40
HETATM   40  C2  UNL     1      -4.984   8.837  30.690  1.00  0.00     0.182 C 
HETATM   41  C1  UNL     1      -5.164   8.958  32.148  1.00  0.00     0.104 C 
HETATM   42  O1  UNL     1      -6.009   8.958  29.958  1.00  0.00    -0.286 OA
ENDBRANCH  39  40
ENDBRANCH  38  39
ENDBRANCH   1  38
BRANCH   2  43
HETATM   43  C6  UNL     1      -1.831   5.642  33.177  1.00  0.00     0.209 C 
HETATM   44  O2  UNL     1      -2.282   6.105  34.221  1.00  0.00    -0.644 OA
HETATM   45  O3  UNL     1      -0.454   5.390  33.190  1.00  0.00    -0.644 OA
ENDBRANCH   2  43
BRANCH   8  46
HETATM   46  C12 UNL     1      -1.629   0.182  30.228  1.00  0.00     0.226 C 
BRANCH  46  47
HETATM   47  O6  UNL     1      -1.482   0.706  28.971  1.00  0.00    -0.395 OA
ATOM     48  H6  UNL     1      -0.732   0.378  28.488  1.00  0.00     0.209 HD
ENDBRANCH  46  47
ENDBRANCH   8  46
BRANCH   7  49
HETATM   49  C10 UNL     1      -1.347  -0.412  33.156  1.00  0.00     0.229 C 
HETATM   50  O4  UNL     1      -2.156  -1.145  33.819  1.00  0.00    -0.643 OA
HETATM   51  O5  UNL     1      -0.051  -0.815  32.995  1.00  0.00    -0.643 OA
ENDBRANCH   7  49
TORSDOF 15
ENDMDL
