MODEL 1
REMARK VINA RESULT: -6.999027776      0.000      0.000
REMARK  8 active torsions:
REMARK  status: ('A' for Active; 'I' for Inactive)
REMARK    1  A    between atoms: C2_2  and  O1_3 
REMARK    2  A    between atoms: O1_3  and  C3_4 
REMARK    3  A    between atoms: C3_4  and  C4_6 
REMARK    4  A    between atoms: C5_8  and  N1_9 
REMARK       I    between atoms: N1_9  and  C6_11 
REMARK    5  A    between atoms: C6_11  and  C7_13 
REMARK    6  A    between atoms: C9_16  and  S2_17 
REMARK    7  A    between atoms: C11_21  and  O7_22 
REMARK    8  A    between atoms: C13_26  and  C14_27 
ROOT
HETATM    1  N1  UNL     1      72.545  -9.637  49.785  1.00  0.00    -0.303 N 
ATOM      2  H1  UNL     1      73.352  -9.993  50.298  1.00  0.00     0.171 HD
HETATM    3  C6  UNL     1      72.193 -10.139  48.507  1.00  0.00     0.262 C 
HETATM    4  O3  UNL     1      71.150  -9.769  47.907  1.00  0.00    -0.267 OA
ENDROOT
BRANCH   1   5
HETATM    5  C5  UNL     1      71.775  -8.683  50.278  1.00  0.00     0.152 A 
HETATM    6  S1  UNL     1      71.266  -8.554  51.897  1.00  0.00    -0.046 SA
HETATM    7  C4  UNL     1      70.286  -7.165  51.756  1.00  0.00     0.106 A 
HETATM    8  C13 UNL     1      70.414  -6.864  50.424  1.00  0.00     0.038 A 
HETATM    9  N2  UNL     1      71.180  -7.655  49.692  1.00  0.00    -0.338 N 
ATOM     10  H2  UNL     1      71.311  -7.477  48.696  1.00  0.00     0.168 HD
BRANCH   7  11
HETATM   11  C3  UNL     1      69.377  -6.570  52.754  1.00  0.00     0.302 C 
HETATM   12  O2  UNL     1      69.697  -5.416  53.164  1.00  0.00    -0.259 OA
BRANCH  11  13
HETATM   13  O1  UNL     1      68.265  -7.163  53.249  1.00  0.00    -0.317 OA
BRANCH  13  14
HETATM   14  C2  UNL     1      67.402  -7.904  52.455  1.00  0.00     0.174 C 
HETATM   15  C1  UNL     1      66.921  -9.208  52.994  1.00  0.00     0.034 C 
ENDBRANCH  13  14
ENDBRANCH  11  13
ENDBRANCH   7  11
BRANCH   8  16
HETATM   16  C14 UNL     1      69.823  -5.597  49.885  1.00  0.00     0.029 C 
HETATM   17  C15 UNL     1      69.573  -5.662  48.384  1.00  0.00     0.016 C 
HETATM   18  C16 UNL     1      70.956  -4.509  49.946  1.00  0.00     0.016 C 
ENDBRANCH   8  16
ENDBRANCH   1   5
BRANCH   3  19
HETATM   19  C7  UNL     1      73.040 -11.114  47.829  1.00  0.00     0.091 A 
HETATM   20  C8  UNL     1      73.154 -12.481  48.118  1.00  0.00     0.163 A 
HETATM   21  O4  UNL     1      73.998 -13.007  47.287  1.00  0.00    -0.308 OA
HETATM   22  C9  UNL     1      74.467 -12.116  46.459  1.00  0.00     0.203 A 
HETATM   23  C11 UNL     1      73.886 -10.908  46.766  1.00  0.00     0.131 A 
BRANCH  22  24
HETATM   24  S2  UNL     1      75.631 -12.382  45.179  1.00  0.00     0.196 S 
HETATM   25  C10 UNL     1      77.258 -12.054  45.820  1.00  0.00     0.169 C 
HETATM   26  O5  UNL     1      75.370 -11.518  43.985  1.00  0.00    -0.221 OA
HETATM   27  O6  UNL     1      75.559 -13.807  44.707  1.00  0.00    -0.221 OA
ENDBRANCH  22  24
BRANCH  23  28
HETATM   28  O7  UNL     1      74.104  -9.694  46.125  1.00  0.00    -0.351 OA
HETATM   29  C12 UNL     1      75.100  -8.763  46.514  1.00  0.00     0.210 C 
ENDBRANCH  23  28
ENDBRANCH   3  19
TORSDOF 8
ENDMDL
MODEL 2
REMARK VINA RESULT: -6.995619225      1.866      2.249
REMARK  8 active torsions:
REMARK  status: ('A' for Active; 'I' for Inactive)
REMARK    1  A    between atoms: C2_2  and  O1_3 
REMARK    2  A    between atoms: O1_3  and  C3_4 
REMARK    3  A    between atoms: C3_4  and  C4_6 
REMARK    4  A    between atoms: C5_8  and  N1_9 
REMARK       I    between atoms: N1_9  and  C6_11 
REMARK    5  A    between atoms: C6_11  and  C7_13 
REMARK    6  A    between atoms: C9_16  and  S2_17 
REMARK    7  A    between atoms: C11_21  and  O7_22 
REMARK    8  A    between atoms: C13_26  and  C14_27 
ROOT
HETATM    1  N1  UNL     1      73.552  -9.457  49.812  1.00  0.00    -0.303 N 
ATOM      2  H1  UNL     1      74.358  -8.905  49.518  1.00  0.00     0.171 HD
HETATM    3  C6  UNL     1      73.567 -10.875  49.776  1.00  0.00     0.262 C 
HETATM    4  O3  UNL     1      72.613 -11.565  50.219  1.00  0.00    -0.267 OA
ENDROOT
BRANCH   1   5
HETATM    5  C5  UNL     1      72.442  -8.889  50.248  1.00  0.00     0.152 A 
HETATM    6  S1  UNL     1      72.106  -8.474  51.864  1.00  0.00    -0.046 SA
HETATM    7  C4  UNL     1      70.523  -7.873  51.659  1.00  0.00     0.106 A 
HETATM    8  C13 UNL     1      70.337  -8.024  50.308  1.00  0.00     0.038 A 
HETATM    9  N2  UNL     1      71.332  -8.546  49.611  1.00  0.00    -0.338 N 
ATOM     10  H2  UNL     1      71.248  -8.681  48.604  1.00  0.00     0.168 HD
BRANCH   7  11
HETATM   11  C3  UNL     1      69.539  -7.487  52.688  1.00  0.00     0.302 C 
HETATM   12  O2  UNL     1      69.529  -6.261  53.002  1.00  0.00    -0.259 OA
BRANCH  11  13
HETATM   13  O1  UNL     1      68.682  -8.334  53.305  1.00  0.00    -0.317 OA
BRANCH  13  14
HETATM   14  C2  UNL     1      67.317  -8.321  53.059  1.00  0.00     0.174 C 
HETATM   15  C1  UNL     1      66.763  -9.401  52.194  1.00  0.00     0.034 C 
ENDBRANCH  13  14
ENDBRANCH  11  13
ENDBRANCH   7  11
BRANCH   8  16
HETATM   16  C14 UNL     1      69.106  -7.471  49.658  1.00  0.00     0.029 C 
HETATM   17  C15 UNL     1      68.706  -8.247  48.409  1.00  0.00     0.016 C 
HETATM   18  C16 UNL     1      69.512  -6.090  49.024  1.00  0.00     0.016 C 
ENDBRANCH   8  16
ENDBRANCH   1   5
BRANCH   3  19
HETATM   19  C7  UNL     1      74.702 -11.595  49.210  1.00  0.00     0.091 A 
HETATM   20  C8  UNL     1      76.042 -11.511  49.614  1.00  0.00     0.163 A 
HETATM   21  O4  UNL     1      76.744 -12.312  48.874  1.00  0.00    -0.308 OA
HETATM   22  C9  UNL     1      75.998 -12.930  48.002  1.00  0.00     0.203 A 
HETATM   23  C11 UNL     1      74.701 -12.507  48.182  1.00  0.00     0.131 A 
BRANCH  22  24
HETATM   24  S2  UNL     1      76.524 -14.093  46.805  1.00  0.00     0.196 S 
HETATM   25  C10 UNL     1      78.303 -14.086  46.758  1.00  0.00     0.169 C 
HETATM   26  O5  UNL     1      75.977 -13.796  45.445  1.00  0.00    -0.221 OA
HETATM   27  O6  UNL     1      76.041 -15.467  47.177  1.00  0.00    -0.221 OA
ENDBRANCH  22  24
BRANCH  23  28
HETATM   28  O7  UNL     1      73.585 -12.920  47.465  1.00  0.00    -0.351 OA
HETATM   29  C12 UNL     1      72.825 -12.067  46.625  1.00  0.00     0.210 C 
ENDBRANCH  23  28
ENDBRANCH   3  19
TORSDOF 8
ENDMDL
MODEL 3
REMARK VINA RESULT: -6.993181624      1.051      1.180
REMARK  8 active torsions:
REMARK  status: ('A' for Active; 'I' for Inactive)
REMARK    1  A    between atoms: C2_2  and  O1_3 
REMARK    2  A    between atoms: O1_3  and  C3_4 
REMARK    3  A    between atoms: C3_4  and  C4_6 
REMARK    4  A    between atoms: C5_8  and  N1_9 
REMARK       I    between atoms: N1_9  and  C6_11 
REMARK    5  A    between atoms: C6_11  and  C7_13 
REMARK    6  A    between atoms: C9_16  and  S2_17 
REMARK    7  A    between atoms: C11_21  and  O7_22 
REMARK    8  A    between atoms: C13_26  and  C14_27 
ROOT
HETATM    1  N1  UNL     1      73.132 -10.043  49.428  1.00  0.00    -0.303 N 
ATOM      2  H1  UNL     1      74.097  -9.975  49.751  1.00  0.00     0.171 HD
HETATM    3  C6  UNL     1      72.747 -10.964  48.421  1.00  0.00     0.262 C 
HETATM    4  O3  UNL     1      71.546 -11.117  48.079  1.00  0.00    -0.267 OA
ENDROOT
BRANCH   1   5
HETATM    5  C5  UNL     1      72.176  -9.279  49.926  1.00  0.00     0.152 A 
HETATM    6  S1  UNL     1      71.957  -8.907  51.572  1.00  0.00    -0.046 SA
HETATM    7  C4  UNL     1      70.540  -7.966  51.444  1.00  0.00     0.106 A 
HETATM    8  C13 UNL     1      70.309  -7.986  50.092  1.00  0.00     0.038 A 
HETATM    9  N2  UNL     1      71.160  -8.664  49.340  1.00  0.00    -0.338 N 
ATOM     10  H2  UNL     1      71.036  -8.712  48.328  1.00  0.00     0.168 HD
BRANCH   7  11
HETATM   11  C3  UNL     1      69.676  -7.445  52.520  1.00  0.00     0.302 C 
HETATM   12  O2  UNL     1      69.943  -6.273  52.916  1.00  0.00    -0.259 OA
BRANCH  11  13
HETATM   13  O1  UNL     1      68.656  -8.122  53.098  1.00  0.00    -0.317 OA
BRANCH  13  14
HETATM   14  C2  UNL     1      67.343  -8.002  52.665  1.00  0.00     0.174 C 
HETATM   15  C1  UNL     1      66.575  -6.808  53.119  1.00  0.00     0.034 C 
ENDBRANCH  13  14
ENDBRANCH  11  13
ENDBRANCH   7  11
BRANCH   8  16
HETATM   16  C14 UNL     1      69.220  -7.140  49.509  1.00  0.00     0.029 C 
HETATM   17  C15 UNL     1      68.740  -7.656  48.158  1.00  0.00     0.016 C 
HETATM   18  C16 UNL     1      69.884  -5.781  49.081  1.00  0.00     0.016 C 
ENDBRANCH   8  16
ENDBRANCH   1   5
BRANCH   3  19
HETATM   19  C7  UNL     1      73.743 -11.775  47.731  1.00  0.00     0.091 A 
HETATM   20  C8  UNL     1      74.166 -13.067  48.075  1.00  0.00     0.163 A 
HETATM   21  O4  UNL     1      75.054 -13.451  47.212  1.00  0.00    -0.308 OA
HETATM   22  C9  UNL     1      75.271 -12.533  46.313  1.00  0.00     0.203 A 
HETATM   23  C11 UNL     1      74.462 -11.459  46.603  1.00  0.00     0.131 A 
BRANCH  22  24
HETATM   24  S2  UNL     1      76.388 -12.622  44.968  1.00  0.00     0.196 S 
HETATM   25  C10 UNL     1      77.835 -11.669  45.374  1.00  0.00     0.169 C 
HETATM   26  O5  UNL     1      75.786 -12.118  43.695  1.00  0.00    -0.221 OA
HETATM   27  O6  UNL     1      76.785 -14.051  44.724  1.00  0.00    -0.221 OA
ENDBRANCH  22  24
BRANCH  23  28
HETATM   28  O7  UNL     1      74.375 -10.268  45.893  1.00  0.00    -0.351 OA
HETATM   29  C12 UNL     1      75.126  -9.106  46.203  1.00  0.00     0.210 C 
ENDBRANCH  23  28
ENDBRANCH   3  19
TORSDOF 8
ENDMDL
MODEL 4
REMARK VINA RESULT: -6.922208674      1.902      2.596
REMARK  8 active torsions:
REMARK  status: ('A' for Active; 'I' for Inactive)
REMARK    1  A    between atoms: C2_2  and  O1_3 
REMARK    2  A    between atoms: O1_3  and  C3_4 
REMARK    3  A    between atoms: C3_4  and  C4_6 
REMARK    4  A    between atoms: C5_8  and  N1_9 
REMARK       I    between atoms: N1_9  and  C6_11 
REMARK    5  A    between atoms: C6_11  and  C7_13 
REMARK    6  A    between atoms: C9_16  and  S2_17 
REMARK    7  A    between atoms: C11_21  and  O7_22 
REMARK    8  A    between atoms: C13_26  and  C14_27 
ROOT
HETATM    1  N1  UNL     1      73.449  -9.469  49.966  1.00  0.00    -0.303 N 
ATOM      2  H1  UNL     1      74.287  -8.912  49.798  1.00  0.00     0.171 HD
HETATM    3  C6  UNL     1      73.438 -10.874  49.775  1.00  0.00     0.262 C 
HETATM    4  O3  UNL     1      72.437 -11.580  50.064  1.00  0.00    -0.267 OA
ENDROOT
BRANCH   1   5
HETATM    5  C5  UNL     1      72.320  -8.919  50.374  1.00  0.00     0.152 A 
HETATM    6  S1  UNL     1      71.868  -8.662  51.994  1.00  0.00    -0.046 SA
HETATM    7  C4  UNL     1      70.317  -8.000  51.735  1.00  0.00     0.106 A 
HETATM    8  C13 UNL     1      70.233  -8.008  50.366  1.00  0.00     0.038 A 
HETATM    9  N2  UNL     1      71.269  -8.483  49.695  1.00  0.00    -0.338 N 
ATOM     10  H2  UNL     1      71.260  -8.512  48.676  1.00  0.00     0.168 HD
BRANCH   7  11
HETATM   11  C3  UNL     1      69.265  -7.695  52.723  1.00  0.00     0.302 C 
HETATM   12  O2  UNL     1      68.741  -8.698  53.290  1.00  0.00    -0.259 OA
BRANCH  11  13
HETATM   13  O1  UNL     1      68.832  -6.453  53.043  1.00  0.00    -0.317 OA
BRANCH  13  14
HETATM   14  C2  UNL     1      69.640  -5.331  52.930  1.00  0.00     0.174 C 
HETATM   15  C1  UNL     1      69.016  -4.004  53.198  1.00  0.00     0.034 C 
ENDBRANCH  13  14
ENDBRANCH  11  13
ENDBRANCH   7  11
BRANCH   8  16
HETATM   16  C14 UNL     1      69.066  -7.359  49.686  1.00  0.00     0.029 C 
HETATM   17  C15 UNL     1      68.725  -8.018  48.356  1.00  0.00     0.016 C 
HETATM   18  C16 UNL     1      69.559  -5.949  49.195  1.00  0.00     0.016 C 
ENDBRANCH   8  16
ENDBRANCH   1   5
BRANCH   3  19
HETATM   19  C7  UNL     1      74.599 -11.562  49.222  1.00  0.00     0.091 A 
HETATM   20  C8  UNL     1      75.929 -11.452  49.653  1.00  0.00     0.163 A 
HETATM   21  O4  UNL     1      76.662 -12.229  48.918  1.00  0.00    -0.308 OA
HETATM   22  C9  UNL     1      75.947 -12.854  48.026  1.00  0.00     0.203 A 
HETATM   23  C11 UNL     1      74.638 -12.463  48.186  1.00  0.00     0.131 A 
BRANCH  22  24
HETATM   24  S2  UNL     1      76.522 -13.992  46.827  1.00  0.00     0.196 S 
HETATM   25  C10 UNL     1      78.301 -13.965  46.834  1.00  0.00     0.169 C 
HETATM   26  O5  UNL     1      76.013 -13.678  45.455  1.00  0.00    -0.221 OA
HETATM   27  O6  UNL     1      76.043 -15.376  47.161  1.00  0.00    -0.221 OA
ENDBRANCH  22  24
BRANCH  23  28
HETATM   28  O7  UNL     1      73.545 -12.893  47.444  1.00  0.00    -0.351 OA
HETATM   29  C12 UNL     1      72.803 -12.057  46.572  1.00  0.00     0.210 C 
ENDBRANCH  23  28
ENDBRANCH   3  19
TORSDOF 8
ENDMDL
MODEL 5
REMARK VINA RESULT: -6.871334346      1.448      1.941
REMARK  8 active torsions:
REMARK  status: ('A' for Active; 'I' for Inactive)
REMARK    1  A    between atoms: C2_2  and  O1_3 
REMARK    2  A    between atoms: O1_3  and  C3_4 
REMARK    3  A    between atoms: C3_4  and  C4_6 
REMARK    4  A    between atoms: C5_8  and  N1_9 
REMARK       I    between atoms: N1_9  and  C6_11 
REMARK    5  A    between atoms: C6_11  and  C7_13 
REMARK    6  A    between atoms: C9_16  and  S2_17 
REMARK    7  A    between atoms: C11_21  and  O7_22 
REMARK    8  A    between atoms: C13_26  and  C14_27 
ROOT
HETATM    1  N1  UNL     1      73.342  -9.868  49.015  1.00  0.00    -0.303 N 
ATOM      2  H1  UNL     1      74.314  -9.565  49.091  1.00  0.00     0.171 HD
HETATM    3  C6  UNL     1      72.974 -11.009  48.258  1.00  0.00     0.262 C 
HETATM    4  O3  UNL     1      71.792 -11.440  48.232  1.00  0.00    -0.267 OA
ENDROOT
BRANCH   1   5
HETATM    5  C5  UNL     1      72.363  -9.217  49.618  1.00  0.00     0.152 A 
HETATM    6  S1  UNL     1      72.236  -8.942  51.292  1.00  0.00    -0.046 SA
HETATM    7  C4  UNL     1      70.736  -8.130  51.314  1.00  0.00     0.106 A 
HETATM    8  C13 UNL     1      70.408  -8.110  49.983  1.00  0.00     0.038 A 
HETATM    9  N2  UNL     1      71.256  -8.672  49.138  1.00  0.00    -0.338 N 
ATOM     10  H2  UNL     1      71.061  -8.684  48.137  1.00  0.00     0.168 HD
BRANCH   7  11
HETATM   11  C3  UNL     1      69.913  -7.740  52.474  1.00  0.00     0.302 C 
HETATM   12  O2  UNL     1      69.274  -8.680  53.031  1.00  0.00    -0.259 OA
BRANCH  11  13
HETATM   13  O1  UNL     1      69.793  -6.481  52.958  1.00  0.00    -0.317 OA
BRANCH  13  14
HETATM   14  C2  UNL     1      68.583  -5.802  52.972  1.00  0.00     0.174 C 
HETATM   15  C1  UNL     1      68.616  -4.345  53.285  1.00  0.00     0.034 C 
ENDBRANCH  13  14
ENDBRANCH  11  13
ENDBRANCH   7  11
BRANCH   8  16
HETATM   16  C14 UNL     1      69.208  -7.340  49.522  1.00  0.00     0.029 C 
HETATM   17  C15 UNL     1      68.711  -7.797  48.156  1.00  0.00     0.016 C 
HETATM   18  C16 UNL     1      69.706  -5.889  49.180  1.00  0.00     0.016 C 
ENDBRANCH   8  16
ENDBRANCH   1   5
BRANCH   3  19
HETATM   19  C7  UNL     1      73.963 -11.731  47.467  1.00  0.00     0.091 A 
HETATM   20  C8  UNL     1      74.417 -13.041  47.674  1.00  0.00     0.163 A 
HETATM   21  O4  UNL     1      75.286 -13.324  46.754  1.00  0.00    -0.308 OA
HETATM   22  C9  UNL     1      75.462 -12.320  45.941  1.00  0.00     0.203 A 
HETATM   23  C11 UNL     1      74.644 -11.295  46.355  1.00  0.00     0.131 A 
BRANCH  22  24
HETATM   24  S2  UNL     1      76.541 -12.260  44.565  1.00  0.00     0.196 S 
HETATM   25  C10 UNL     1      77.143 -13.904  44.248  1.00  0.00     0.169 C 
HETATM   26  O5  UNL     1      77.691 -11.329  44.785  1.00  0.00    -0.221 OA
HETATM   27  O6  UNL     1      75.802 -11.759  43.356  1.00  0.00    -0.221 OA
ENDBRANCH  22  24
BRANCH  23  28
HETATM   28  O7  UNL     1      74.516 -10.044  45.765  1.00  0.00    -0.351 OA
HETATM   29  C12 UNL     1      75.320  -8.925  46.103  1.00  0.00     0.210 C 
ENDBRANCH  23  28
ENDBRANCH   3  19
TORSDOF 8
ENDMDL
