MODEL 1
REMARK VINA RESULT: -6.833296995      0.000      0.000
REMARK  7 active torsions:
REMARK  status: ('A' for Active; 'I' for Inactive)
REMARK    1  A    between atoms: C2_2  and  O1_3 
REMARK    2  A    between atoms: O1_3  and  C3_4 
REMARK    3  A    between atoms: C3_4  and  C4_5 
REMARK    4  A    between atoms: C8_12  and  N3_13 
REMARK    5  A    between atoms: C9_16  and  C10_17 
REMARK    6  A    between atoms: C12_21  and  N5_22 
REMARK    7  A    between atoms: C13_27  and  C14_28 
ROOT
HETATM    1  C4  UNL     1      44.192  41.076  55.064  1.00  0.00    -0.030 A 
HETATM    2  C5  UNL     1      45.195  40.989  56.001  1.00  0.00     0.036 A 
HETATM    3  C6  UNL     1      45.590  39.745  56.499  1.00  0.00     0.031 A 
HETATM    4  C7  UNL     1      46.680  39.701  57.514  1.00  0.00     0.070 C 
HETATM    5  N1  UNL     1      44.983  38.624  56.057  1.00  0.00    -0.259 N 
HETATM    6  N2  UNL     1      45.192  37.367  56.357  1.00  0.00    -0.278 N 
ATOM      7  H2  UNL     1      45.886  37.033  57.026  1.00  0.00     0.189 HD
HETATM    8  C8  UNL     1      44.347  36.570  55.643  1.00  0.00     0.127 A 
HETATM    9  C9  UNL     1      43.560  37.370  54.851  1.00  0.00     0.051 A 
HETATM   10  C17 UNL     1      43.981  38.654  55.129  1.00  0.00     0.072 A 
HETATM   11  C18 UNL     1      43.621  39.895  54.664  1.00  0.00     0.042 A 
ENDROOT
BRANCH   9  12
HETATM   12  C10 UNL     1      42.554  36.903  53.931  1.00  0.00     0.021 A 
HETATM   13  C11 UNL     1      41.244  36.721  54.462  1.00  0.00     0.120 A 
HETATM   14  N4  UNL     1      40.215  36.335  53.718  1.00  0.00    -0.201 N 
HETATM   15  C12 UNL     1      40.441  36.111  52.415  1.00  0.00     0.675 A 
ATOM     16  H4  UNL     1      39.287  36.212  54.123  1.00  0.00     0.183 HD
HETATM   17  N6  UNL     1      41.643  36.273  51.914  1.00  0.00    -0.193 N 
HETATM   18  C13 UNL     1      42.767  36.671  52.614  1.00  0.00     0.062 A 
ATOM     19  H6  UNL     1      41.758  36.089  50.917  1.00  0.00     0.184 HD
BRANCH  15  20
HETATM   20  N5  UNL     1      39.430  35.730  51.683  1.00  0.00    -0.234 N 
ATOM     21  H52 UNL     1      39.018  34.801  51.769  1.00  0.00     0.174 HD
ATOM     22  H51 UNL     1      39.057  36.399  51.008  1.00  0.00     0.174 HD
ENDBRANCH  15  20
BRANCH  18  23
HETATM   23  C14 UNL     1      44.043  36.761  51.927  1.00  0.00     0.073 C 
HETATM   24  C15 UNL     1      44.666  38.103  51.747  1.00  0.00     0.039 C 
HETATM   25  C16 UNL     1      45.072  35.711  52.331  1.00  0.00     0.039 C 
HETATM   26 CL1  UNL     1      43.680  36.265  50.189  1.00  0.00    -0.113 Cl
ENDBRANCH  18  23
ENDBRANCH   9  12
BRANCH   8  27
HETATM   27  N3  UNL     1      44.392  35.264  55.734  1.00  0.00    -0.384 N 
ATOM     28  H32 UNL     1      45.055  34.666  56.227  1.00  0.00     0.157 HD
ATOM     29  H31 UNL     1      43.678  34.673  55.308  1.00  0.00     0.157 HD
ENDBRANCH   8  27
BRANCH   1  30
HETATM   30  C3  UNL     1      43.788  42.403  54.555  1.00  0.00     0.206 C 
BRANCH  30  31
HETATM   31  O1  UNL     1      44.734  42.887  53.687  1.00  0.00    -0.387 OA
BRANCH  31  32
HETATM   32  C2  UNL     1      44.229  43.124  52.412  1.00  0.00     0.163 C 
HETATM   33  C1  UNL     1      44.433  41.988  51.467  1.00  0.00     0.033 C 
ENDBRANCH  31  32
ENDBRANCH  30  31
ENDBRANCH   1  30
TORSDOF 7
ENDMDL
MODEL 2
REMARK VINA RESULT: -6.654190511      2.717      4.758
REMARK  7 active torsions:
REMARK  status: ('A' for Active; 'I' for Inactive)
REMARK    1  A    between atoms: C2_2  and  O1_3 
REMARK    2  A    between atoms: O1_3  and  C3_4 
REMARK    3  A    between atoms: C3_4  and  C4_5 
REMARK    4  A    between atoms: C8_12  and  N3_13 
REMARK    5  A    between atoms: C9_16  and  C10_17 
REMARK    6  A    between atoms: C12_21  and  N5_22 
REMARK    7  A    between atoms: C13_27  and  C14_28 
ROOT
HETATM    1  C4  UNL     1      45.911  40.066  56.972  1.00  0.00    -0.030 A 
HETATM    2  C5  UNL     1      45.477  41.360  56.805  1.00  0.00     0.036 A 
HETATM    3  C6  UNL     1      44.789  41.732  55.648  1.00  0.00     0.031 A 
HETATM    4  C7  UNL     1      44.341  43.146  55.511  1.00  0.00     0.070 C 
HETATM    5  N1  UNL     1      44.549  40.813  54.689  1.00  0.00    -0.259 N 
HETATM    6  N2  UNL     1      43.917  40.918  53.548  1.00  0.00    -0.278 N 
ATOM      7  H2  UNL     1      43.497  41.775  53.188  1.00  0.00     0.189 HD
HETATM    8  C8  UNL     1      43.902  39.713  52.909  1.00  0.00     0.127 A 
HETATM    9  C9  UNL     1      44.565  38.799  53.692  1.00  0.00     0.051 A 
HETATM   10  C17 UNL     1      44.958  39.515  54.803  1.00  0.00     0.072 A 
HETATM   11  C18 UNL     1      45.632  39.189  55.955  1.00  0.00     0.042 A 
ENDROOT
BRANCH   9  12
HETATM   12  C10 UNL     1      44.745  37.404  53.375  1.00  0.00     0.021 A 
HETATM   13  C11 UNL     1      45.963  37.055  52.723  1.00  0.00     0.120 A 
HETATM   14  N4  UNL     1      46.277  35.804  52.409  1.00  0.00    -0.201 N 
HETATM   15  C12 UNL     1      45.396  34.845  52.730  1.00  0.00     0.675 A 
ATOM     16  H4  UNL     1      47.156  35.580  51.942  1.00  0.00     0.183 HD
HETATM   17  N6  UNL     1      44.270  35.153  53.330  1.00  0.00    -0.193 N 
HETATM   18  C13 UNL     1      43.865  36.425  53.690  1.00  0.00     0.062 A 
ATOM     19  H6  UNL     1      43.637  34.385  53.550  1.00  0.00     0.184 HD
BRANCH  15  20
HETATM   20  N5  UNL     1      45.703  33.614  52.422  1.00  0.00    -0.234 N 
ATOM     21  H52 UNL     1      45.386  32.822  52.981  1.00  0.00     0.174 HD
ATOM     22  H51 UNL     1      46.279  33.463  51.594  1.00  0.00     0.174 HD
ENDBRANCH  15  20
BRANCH  18  23
HETATM   23  C14 UNL     1      42.565  36.614  54.309  1.00  0.00     0.073 C 
HETATM   24  C15 UNL     1      42.485  37.370  55.591  1.00  0.00     0.039 C 
HETATM   25  C16 UNL     1      41.443  37.003  53.353  1.00  0.00     0.039 C 
HETATM   26 CL1  UNL     1      42.036  34.924  54.822  1.00  0.00    -0.113 Cl
ENDBRANCH  18  23
ENDBRANCH   9  12
BRANCH   8  27
HETATM   27  N3  UNL     1      43.288  39.548  51.765  1.00  0.00    -0.384 N 
ATOM     28  H32 UNL     1      42.457  39.001  51.542  1.00  0.00     0.157 HD
ATOM     29  H31 UNL     1      43.594  40.028  50.918  1.00  0.00     0.157 HD
ENDBRANCH   8  27
BRANCH   1  30
HETATM   30  C3  UNL     1      46.641  39.698  58.203  1.00  0.00     0.206 C 
BRANCH  30  31
HETATM   31  O1  UNL     1      46.319  40.559  59.222  1.00  0.00    -0.387 OA
BRANCH  31  32
HETATM   32  C2  UNL     1      47.308  40.638  60.197  1.00  0.00     0.163 C 
HETATM   33  C1  UNL     1      48.480  39.753  59.934  1.00  0.00     0.033 C 
ENDBRANCH  31  32
ENDBRANCH  30  31
ENDBRANCH   1  30
TORSDOF 7
ENDMDL
MODEL 3
REMARK VINA RESULT: -6.641572791      2.491      3.955
REMARK  7 active torsions:
REMARK  status: ('A' for Active; 'I' for Inactive)
REMARK    1  A    between atoms: C2_2  and  O1_3 
REMARK    2  A    between atoms: O1_3  and  C3_4 
REMARK    3  A    between atoms: C3_4  and  C4_5 
REMARK    4  A    between atoms: C8_12  and  N3_13 
REMARK    5  A    between atoms: C9_16  and  C10_17 
REMARK    6  A    between atoms: C12_21  and  N5_22 
REMARK    7  A    between atoms: C13_27  and  C14_28 
ROOT
HETATM    1  C4  UNL     1      46.134  39.373  56.686  1.00  0.00    -0.030 A 
HETATM    2  C5  UNL     1      45.841  40.710  56.556  1.00  0.00     0.036 A 
HETATM    3  C6  UNL     1      44.787  41.126  55.738  1.00  0.00     0.031 A 
HETATM    4  C7  UNL     1      44.509  42.586  55.627  1.00  0.00     0.070 C 
HETATM    5  N1  UNL     1      44.055  40.209  55.073  1.00  0.00    -0.259 N 
HETATM    6  N2  UNL     1      43.024  40.355  54.279  1.00  0.00    -0.278 N 
ATOM      7  H2  UNL     1      42.607  41.249  54.020  1.00  0.00     0.189 HD
HETATM    8  C8  UNL     1      42.591  39.136  53.848  1.00  0.00     0.127 A 
HETATM    9  C9  UNL     1      43.395  38.168  54.400  1.00  0.00     0.051 A 
HETATM   10  C17 UNL     1      44.304  38.869  55.166  1.00  0.00     0.072 A 
HETATM   11  C18 UNL     1      45.347  38.500  55.979  1.00  0.00     0.042 A 
ENDROOT
BRANCH   9  12
HETATM   12  C10 UNL     1      43.247  36.748  54.205  1.00  0.00     0.021 A 
HETATM   13  C11 UNL     1      42.449  36.056  55.162  1.00  0.00     0.120 A 
HETATM   14  N4  UNL     1      42.196  34.756  55.080  1.00  0.00    -0.201 N 
HETATM   15  C12 UNL     1      42.723  34.086  54.046  1.00  0.00     0.675 A 
ATOM     16  H4  UNL     1      41.621  34.285  55.779  1.00  0.00     0.183 HD
HETATM   17  N6  UNL     1      43.461  34.710  53.158  1.00  0.00    -0.193 N 
HETATM   18  C13 UNL     1      43.774  36.057  53.167  1.00  0.00     0.062 A 
ATOM     19  H6  UNL     1      43.836  34.152  52.392  1.00  0.00     0.184 HD
BRANCH  15  20
HETATM   20  N5  UNL     1      42.475  32.806  53.964  1.00  0.00    -0.234 N 
ATOM     21  H52 UNL     1      41.579  32.410  54.245  1.00  0.00     0.174 HD
ATOM     22  H51 UNL     1      43.216  32.203  53.605  1.00  0.00     0.174 HD
ENDBRANCH  15  20
BRANCH  18  23
HETATM   23  C14 UNL     1      44.644  36.596  52.137  1.00  0.00     0.073 C 
HETATM   24  C15 UNL     1      44.061  37.512  51.115  1.00  0.00     0.039 C 
HETATM   25  C16 UNL     1      46.001  37.088  52.626  1.00  0.00     0.039 C 
HETATM   26 CL1  UNL     1      45.130  35.138  51.118  1.00  0.00    -0.113 Cl
ENDBRANCH  18  23
ENDBRANCH   9  12
BRANCH   8  27
HETATM   27  N3  UNL     1      41.541  39.012  53.075  1.00  0.00    -0.384 N 
ATOM     28  H32 UNL     1      40.740  38.386  53.156  1.00  0.00     0.157 HD
ATOM     29  H31 UNL     1      41.397  39.616  52.265  1.00  0.00     0.157 HD
ENDBRANCH   8  27
BRANCH   1  30
HETATM   30  C3  UNL     1      47.256  38.957  57.553  1.00  0.00     0.206 C 
BRANCH  30  31
HETATM   31  O1  UNL     1      46.876  38.995  58.872  1.00  0.00    -0.387 OA
BRANCH  31  32
HETATM   32  C2  UNL     1      47.735  39.756  59.660  1.00  0.00     0.163 C 
HETATM   33  C1  UNL     1      47.093  40.968  60.246  1.00  0.00     0.033 C 
ENDBRANCH  31  32
ENDBRANCH  30  31
ENDBRANCH   1  30
TORSDOF 7
ENDMDL
MODEL 4
REMARK VINA RESULT: -6.469499590      2.451      4.269
REMARK  7 active torsions:
REMARK  status: ('A' for Active; 'I' for Inactive)
REMARK    1  A    between atoms: C2_2  and  O1_3 
REMARK    2  A    between atoms: O1_3  and  C3_4 
REMARK    3  A    between atoms: C3_4  and  C4_5 
REMARK    4  A    between atoms: C8_12  and  N3_13 
REMARK    5  A    between atoms: C9_16  and  C10_17 
REMARK    6  A    between atoms: C12_21  and  N5_22 
REMARK    7  A    between atoms: C13_27  and  C14_28 
ROOT
HETATM    1  C4  UNL     1      43.769  41.703  54.812  1.00  0.00    -0.030 A 
HETATM    2  C5  UNL     1      43.575  42.734  53.924  1.00  0.00     0.036 A 
HETATM    3  C6  UNL     1      42.577  42.650  52.950  1.00  0.00     0.031 A 
HETATM    4  C7  UNL     1      42.406  43.791  52.008  1.00  0.00     0.070 C 
HETATM    5  N1  UNL     1      41.800  41.549  52.883  1.00  0.00    -0.259 N 
HETATM    6  N2  UNL     1      40.805  41.255  52.084  1.00  0.00    -0.278 N 
ATOM      7  H2  UNL     1      40.460  41.856  51.335  1.00  0.00     0.189 HD
HETATM    8  C8  UNL     1      40.299  40.029  52.400  1.00  0.00     0.127 A 
HETATM    9  C9  UNL     1      41.017  39.521  53.456  1.00  0.00     0.051 A 
HETATM   10  C17 UNL     1      41.951  40.496  53.740  1.00  0.00     0.072 A 
HETATM   11  C18 UNL     1      42.942  40.617  54.683  1.00  0.00     0.042 A 
ENDROOT
BRANCH   9  12
HETATM   12  C10 UNL     1      40.774  38.254  54.097  1.00  0.00     0.021 A 
HETATM   13  C11 UNL     1      39.827  38.254  55.163  1.00  0.00     0.120 A 
HETATM   14  N4  UNL     1      39.478  37.151  55.814  1.00  0.00    -0.201 N 
HETATM   15  C12 UNL     1      40.053  36.000  55.435  1.00  0.00     0.675 A 
ATOM     16  H4  UNL     1      38.798  37.178  56.573  1.00  0.00     0.183 HD
HETATM   17  N6  UNL     1      40.927  35.986  54.456  1.00  0.00    -0.193 N 
HETATM   18  C13 UNL     1      41.347  37.084  53.728  1.00  0.00     0.062 A 
ATOM     19  H6  UNL     1      41.332  35.084  54.209  1.00  0.00     0.184 HD
BRANCH  15  20
HETATM   20  N5  UNL     1      39.711  34.914  56.074  1.00  0.00    -0.234 N 
ATOM     21  H52 UNL     1      39.494  34.918  57.071  1.00  0.00     0.174 HD
ATOM     22  H51 UNL     1      39.665  34.046  55.540  1.00  0.00     0.174 HD
ENDBRANCH  15  20
BRANCH  18  23
HETATM   23  C14 UNL     1      42.359  36.917  52.701  1.00  0.00     0.073 C 
HETATM   24  C15 UNL     1      41.994  37.198  51.282  1.00  0.00     0.039 C 
HETATM   25  C16 UNL     1      43.734  37.473  53.050  1.00  0.00     0.039 C 
HETATM   26 CL1  UNL     1      42.698  35.105  52.661  1.00  0.00    -0.113 Cl
ENDBRANCH  18  23
ENDBRANCH   9  12
BRANCH   8  27
HETATM   27  N3  UNL     1      39.265  39.529  51.771  1.00  0.00    -0.384 N 
ATOM     28  H32 UNL     1      39.177  39.215  50.805  1.00  0.00     0.157 HD
ATOM     29  H31 UNL     1      38.379  39.358  52.248  1.00  0.00     0.157 HD
ENDBRANCH   8  27
BRANCH   1  30
HETATM   30  C3  UNL     1      44.833  41.814  55.832  1.00  0.00     0.206 C 
BRANCH  30  31
HETATM   31  O1  UNL     1      45.770  40.827  55.650  1.00  0.00    -0.387 OA
BRANCH  31  32
HETATM   32  C2  UNL     1      45.969  40.053  56.789  1.00  0.00     0.163 C 
HETATM   33  C1  UNL     1      45.561  38.628  56.623  1.00  0.00     0.033 C 
ENDBRANCH  31  32
ENDBRANCH  30  31
ENDBRANCH   1  30
TORSDOF 7
ENDMDL
MODEL 5
REMARK VINA RESULT: -6.449725424      3.006      4.744
REMARK  7 active torsions:
REMARK  status: ('A' for Active; 'I' for Inactive)
REMARK    1  A    between atoms: C2_2  and  O1_3 
REMARK    2  A    between atoms: O1_3  and  C3_4 
REMARK    3  A    between atoms: C3_4  and  C4_5 
REMARK    4  A    between atoms: C8_12  and  N3_13 
REMARK    5  A    between atoms: C9_16  and  C10_17 
REMARK    6  A    between atoms: C12_21  and  N5_22 
REMARK    7  A    between atoms: C13_27  and  C14_28 
ROOT
HETATM    1  C4  UNL     1      44.986  37.547  49.978  1.00  0.00    -0.030 A 
HETATM    2  C5  UNL     1      46.067  36.745  49.697  1.00  0.00     0.036 A 
HETATM    3  C6  UNL     1      46.504  35.798  50.626  1.00  0.00     0.031 A 
HETATM    4  C7  UNL     1      47.681  34.953  50.279  1.00  0.00     0.070 C 
HETATM    5  N1  UNL     1      45.861  35.671  51.805  1.00  0.00    -0.259 N 
HETATM    6  N2  UNL     1      46.070  34.855  52.807  1.00  0.00    -0.278 N 
ATOM      7  H2  UNL     1      46.813  34.157  52.847  1.00  0.00     0.189 HD
HETATM    8  C8  UNL     1      45.150  35.075  53.789  1.00  0.00     0.127 A 
HETATM    9  C9  UNL     1      44.315  36.089  53.383  1.00  0.00     0.051 A 
HETATM   10  C17 UNL     1      44.782  36.443  52.135  1.00  0.00     0.072 A 
HETATM   11  C18 UNL     1      44.383  37.362  51.195  1.00  0.00     0.042 A 
ENDROOT
BRANCH   9  12
HETATM   12  C10 UNL     1      43.197  36.600  54.135  1.00  0.00     0.021 A 
HETATM   13  C11 UNL     1      43.473  37.668  55.036  1.00  0.00     0.120 A 
HETATM   14  N4  UNL     1      42.531  38.260  55.760  1.00  0.00    -0.201 N 
HETATM   15  C12 UNL     1      41.273  37.816  55.621  1.00  0.00     0.675 A 
ATOM     16  H4  UNL     1      42.756  39.023  56.398  1.00  0.00     0.183 HD
HETATM   17  N6  UNL     1      41.004  36.832  54.795  1.00  0.00    -0.193 N 
HETATM   18  C13 UNL     1      41.922  36.162  54.006  1.00  0.00     0.062 A 
ATOM     19  H6  UNL     1      40.031  36.535  54.728  1.00  0.00     0.184 HD
BRANCH  15  20
HETATM   20  N5  UNL     1      40.345  38.397  56.332  1.00  0.00    -0.234 N 
ATOM     21  H52 UNL     1      40.497  38.665  57.304  1.00  0.00     0.174 HD
ATOM     22  H51 UNL     1      39.448  38.578  55.881  1.00  0.00     0.174 HD
ENDBRANCH  15  20
BRANCH  18  23
HETATM   23  C14 UNL     1      41.478  35.058  53.174  1.00  0.00     0.073 C 
HETATM   24  C15 UNL     1      41.576  35.194  51.692  1.00  0.00     0.039 C 
HETATM   25  C16 UNL     1      41.916  33.676  53.644  1.00  0.00     0.039 C 
HETATM   26 CL1  UNL     1      39.655  34.972  53.435  1.00  0.00    -0.113 Cl
ENDBRANCH  18  23
ENDBRANCH   9  12
BRANCH   8  27
HETATM   27  N3  UNL     1      45.121  34.352  54.880  1.00  0.00    -0.384 N 
ATOM     28  H32 UNL     1      45.688  33.546  55.144  1.00  0.00     0.157 HD
ATOM     29  H31 UNL     1      44.495  34.574  55.654  1.00  0.00     0.157 HD
ENDBRANCH   8  27
BRANCH   1  30
HETATM   30  C3  UNL     1      44.544  38.544  48.980  1.00  0.00     0.206 C 
BRANCH  30  31
HETATM   31  O1  UNL     1      43.191  38.750  49.082  1.00  0.00    -0.387 OA
BRANCH  31  32
HETATM   32  C2  UNL     1      42.849  40.099  49.109  1.00  0.00     0.163 C 
HETATM   33  C1  UNL     1      42.027  40.484  50.293  1.00  0.00     0.033 C 
ENDBRANCH  31  32
ENDBRANCH  30  31
ENDBRANCH   1  30
TORSDOF 7
ENDMDL
