MODEL 1
REMARK VINA RESULT: -7.446974677      0.000      0.000
REMARK  7 active torsions:
REMARK  status: ('A' for Active; 'I' for Inactive)
REMARK    1  A    between atoms: C2_2  and  C3_3 
REMARK    2  A    between atoms: C3_3  and  C5_5 
REMARK    3  A    between atoms: C5_5  and  O2_7 
REMARK    4  A    between atoms: O2_7  and  S1_8 
REMARK    5  A    between atoms: S1_8  and  C6_11 
REMARK    6  A    between atoms: C14_19  and  O5_21 
REMARK    7  A    between atoms: O5_21  and  C16_22 
ROOT
HETATM    1  C6  UNL     1       9.182  21.265  50.679  1.00  0.00     0.068 C 
HETATM    2  C7  UNL     1       8.910  21.202  49.391  1.00  0.00    -0.049 C 
HETATM    3  C8  UNL     1       8.333  19.879  49.023  1.00  0.00     0.036 C 
HETATM    4  C9  UNL     1       8.379  19.659  47.519  1.00  0.00     0.004 C 
HETATM    5  C10 UNL     1       7.662  20.694  46.733  1.00  0.00     0.001 C 
HETATM    6  C11 UNL     1       7.791  22.039  47.364  1.00  0.00     0.017 C 
HETATM    7  C12 UNL     1       9.043  22.154  48.246  1.00  0.00     0.012 C 
HETATM    8  C13 UNL     1      10.225  21.892  47.367  1.00  0.00     0.023 C 
HETATM    9  C14 UNL     1       9.055  23.596  48.764  1.00  0.00     0.078 C 
HETATM   10  C15 UNL     1       8.881  24.503  47.553  1.00  0.00     0.048 C 
HETATM   11  C18 UNL     1      10.401  23.765  49.379  1.00  0.00     0.040 C 
HETATM   12  C19 UNL     1      10.465  23.472  50.802  1.00  0.00     0.008 C 
HETATM   13  C20 UNL     1       9.717  22.403  51.441  1.00  0.00     0.054 C 
ENDROOT
BRANCH   1  14
HETATM   14  S1  UNL     1       8.866  19.895  51.713  1.00  0.00     0.301 S 
HETATM   15  O3  UNL     1       7.545  19.244  51.505  1.00  0.00    -0.193 OA
HETATM   16  O4  UNL     1       8.779  20.430  53.152  1.00  0.00    -0.193 OA
BRANCH  14  17
HETATM   17  O2  UNL     1      10.168  18.811  51.790  1.00  0.00    -0.192 OA
BRANCH  17  18
HETATM   18  C5  UNL     1      11.489  19.219  51.635  1.00  0.00     0.278 C 
HETATM   19  O1  UNL     1      11.999  19.816  52.616  1.00  0.00    -0.264 OA
BRANCH  18  20
HETATM   20  C3  UNL     1      12.288  18.997  50.433  1.00  0.00     0.082 C 
HETATM   21  C4  UNL     1      11.481  18.423  49.284  1.00  0.00     0.020 C 
BRANCH  20  22
HETATM   22  C2  UNL     1      12.867  20.308  49.957  1.00  0.00     0.010 C 
HETATM   23  C1  UNL     1      14.205  20.171  49.306  1.00  0.00     0.006 C 
ENDBRANCH  20  22
ENDBRANCH  18  20
ENDBRANCH  17  18
ENDBRANCH  14  17
ENDBRANCH   1  14
BRANCH   9  24
HETATM   24  O5  UNL     1       7.961  23.737  49.608  1.00  0.00    -0.310 OA
BRANCH  24  25
HETATM   25  C16 UNL     1       7.176  24.838  49.755  1.00  0.00     0.255 C 
HETATM   26  C17 UNL     1       7.749  26.104  50.264  1.00  0.00     0.126 C 
HETATM   27  O6  UNL     1       5.961  24.790  49.461  1.00  0.00    -0.266 OA
ENDBRANCH  24  25
ENDBRANCH   9  24
TORSDOF 7
ENDMDL
MODEL 2
REMARK VINA RESULT: -7.390649877      2.036      5.690
REMARK  7 active torsions:
REMARK  status: ('A' for Active; 'I' for Inactive)
REMARK    1  A    between atoms: C2_2  and  C3_3 
REMARK    2  A    between atoms: C3_3  and  C5_5 
REMARK    3  A    between atoms: C5_5  and  O2_7 
REMARK    4  A    between atoms: O2_7  and  S1_8 
REMARK    5  A    between atoms: S1_8  and  C6_11 
REMARK    6  A    between atoms: C14_19  and  O5_21 
REMARK    7  A    between atoms: O5_21  and  C16_22 
ROOT
HETATM    1  C6  UNL     1       9.871  19.472  50.195  1.00  0.00     0.068 C 
HETATM    2  C7  UNL     1      11.083  19.743  49.755  1.00  0.00    -0.049 C 
HETATM    3  C8  UNL     1      11.986  20.149  50.867  1.00  0.00     0.036 C 
HETATM    4  C9  UNL     1      13.241  20.824  50.338  1.00  0.00     0.004 C 
HETATM    5  C10 UNL     1      14.032  19.984  49.403  1.00  0.00     0.001 C 
HETATM    6  C11 UNL     1      13.146  19.133  48.558  1.00  0.00     0.017 C 
HETATM    7  C12 UNL     1      11.736  19.722  48.411  1.00  0.00     0.012 C 
HETATM    8  C13 UNL     1      11.888  21.072  47.783  1.00  0.00     0.023 C 
HETATM    9  C14 UNL     1      10.982  18.769  47.478  1.00  0.00     0.078 C 
HETATM   10  C15 UNL     1      11.862  18.560  46.252  1.00  0.00     0.048 C 
HETATM   11  C18 UNL     1       9.729  19.493  47.128  1.00  0.00     0.040 C 
HETATM   12  C19 UNL     1       8.596  19.210  47.996  1.00  0.00     0.008 C 
HETATM   13  C20 UNL     1       8.708  18.999  49.428  1.00  0.00     0.054 C 
ENDROOT
BRANCH   1  14
HETATM   14  S1  UNL     1       9.498  19.618  51.894  1.00  0.00     0.301 S 
HETATM   15  O3  UNL     1      10.233  18.677  52.780  1.00  0.00    -0.193 OA
HETATM   16  O4  UNL     1       8.029  19.201  52.069  1.00  0.00    -0.193 OA
BRANCH  14  17
HETATM   17  O2  UNL     1       9.502  21.226  52.435  1.00  0.00    -0.192 OA
BRANCH  17  18
HETATM   18  C5  UNL     1       8.581  22.167  51.987  1.00  0.00     0.278 C 
HETATM   19  O1  UNL     1       7.470  22.172  52.574  1.00  0.00    -0.264 OA
BRANCH  18  20
HETATM   20  C3  UNL     1       8.829  23.117  50.906  1.00  0.00     0.082 C 
HETATM   21  C4  UNL     1      10.301  23.261  50.571  1.00  0.00     0.020 C 
BRANCH  20  22
HETATM   22  C2  UNL     1       8.132  22.652  49.650  1.00  0.00     0.010 C 
HETATM   23  C1  UNL     1       8.878  22.974  48.397  1.00  0.00     0.006 C 
ENDBRANCH  20  22
ENDBRANCH  18  20
ENDBRANCH  17  18
ENDBRANCH  14  17
ENDBRANCH   1  14
BRANCH   9  24
HETATM   24  O5  UNL     1      10.839  17.564  48.153  1.00  0.00    -0.310 OA
BRANCH  24  25
HETATM   25  C16 UNL     1      11.012  16.314  47.646  1.00  0.00     0.255 C 
HETATM   26  C17 UNL     1      12.349  15.867  47.195  1.00  0.00     0.126 C 
HETATM   27  O6  UNL     1      10.042  15.529  47.557  1.00  0.00    -0.266 OA
ENDBRANCH  24  25
ENDBRANCH   9  24
TORSDOF 7
ENDMDL
MODEL 3
REMARK VINA RESULT: -7.340108400      3.934      5.302
REMARK  7 active torsions:
REMARK  status: ('A' for Active; 'I' for Inactive)
REMARK    1  A    between atoms: C2_2  and  C3_3 
REMARK    2  A    between atoms: C3_3  and  C5_5 
REMARK    3  A    between atoms: C5_5  and  O2_7 
REMARK    4  A    between atoms: O2_7  and  S1_8 
REMARK    5  A    between atoms: S1_8  and  C6_11 
REMARK    6  A    between atoms: C14_19  and  O5_21 
REMARK    7  A    between atoms: O5_21  and  C16_22 
ROOT
HETATM    1  C6  UNL     1      11.901  18.886  48.762  1.00  0.00     0.068 C 
HETATM    2  C7  UNL     1      11.036  19.632  48.104  1.00  0.00    -0.049 C 
HETATM    3  C8  UNL     1      10.848  19.143  46.710  1.00  0.00     0.036 C 
HETATM    4  C9  UNL     1      10.173  20.196  45.845  1.00  0.00     0.004 C 
HETATM    5  C10 UNL     1       8.847  20.634  46.348  1.00  0.00     0.001 C 
HETATM    6  C11 UNL     1       8.816  20.661  47.839  1.00  0.00     0.017 C 
HETATM    7  C12 UNL     1      10.214  20.831  48.450  1.00  0.00     0.012 C 
HETATM    8  C13 UNL     1      10.765  22.122  47.932  1.00  0.00     0.023 C 
HETATM    9  C14 UNL     1       9.999  20.898  49.966  1.00  0.00     0.078 C 
HETATM   10  C15 UNL     1       8.918  21.942  50.215  1.00  0.00     0.048 C 
HETATM   11  C18 UNL     1      11.312  21.337  50.515  1.00  0.00     0.040 C 
HETATM   12  C19 UNL     1      12.208  20.257  50.897  1.00  0.00     0.008 C 
HETATM   13  C20 UNL     1      12.326  19.008  50.164  1.00  0.00     0.054 C 
ENDROOT
BRANCH   1  14
HETATM   14  S1  UNL     1      12.667  17.528  47.978  1.00  0.00     0.301 S 
HETATM   15  O3  UNL     1      11.834  16.298  47.902  1.00  0.00    -0.193 OA
HETATM   16  O4  UNL     1      13.849  17.106  48.865  1.00  0.00    -0.193 OA
BRANCH  14  17
HETATM   17  O2  UNL     1      13.419  17.947  46.517  1.00  0.00    -0.192 OA
BRANCH  17  18
HETATM   18  C5  UNL     1      13.672  17.016  45.514  1.00  0.00     0.278 C 
HETATM   19  O1  UNL     1      14.805  16.474  45.539  1.00  0.00    -0.264 OA
BRANCH  18  20
HETATM   20  C3  UNL     1      12.721  16.649  44.468  1.00  0.00     0.082 C 
HETATM   21  C4  UNL     1      12.243  17.840  43.659  1.00  0.00     0.020 C 
BRANCH  20  22
HETATM   22  C2  UNL     1      13.374  15.690  43.501  1.00  0.00     0.010 C 
HETATM   23  C1  UNL     1      13.403  16.186  42.093  1.00  0.00     0.006 C 
ENDBRANCH  20  22
ENDBRANCH  18  20
ENDBRANCH  17  18
ENDBRANCH  14  17
ENDBRANCH   1  14
BRANCH   9  24
HETATM   24  O5  UNL     1       9.539  19.652  50.370  1.00  0.00    -0.310 OA
BRANCH  24  25
HETATM   25  C16 UNL     1       8.597  19.392  51.315  1.00  0.00     0.255 C 
HETATM   26  C17 UNL     1       7.292  18.807  50.931  1.00  0.00     0.126 C 
HETATM   27  O6  UNL     1       8.824  19.645  52.519  1.00  0.00    -0.266 OA
ENDBRANCH  24  25
ENDBRANCH   9  24
TORSDOF 7
ENDMDL
MODEL 4
REMARK VINA RESULT: -7.225840025      4.008      5.428
REMARK  7 active torsions:
REMARK  status: ('A' for Active; 'I' for Inactive)
REMARK    1  A    between atoms: C2_2  and  C3_3 
REMARK    2  A    between atoms: C3_3  and  C5_5 
REMARK    3  A    between atoms: C5_5  and  O2_7 
REMARK    4  A    between atoms: O2_7  and  S1_8 
REMARK    5  A    between atoms: S1_8  and  C6_11 
REMARK    6  A    between atoms: C14_19  and  O5_21 
REMARK    7  A    between atoms: O5_21  and  C16_22 
ROOT
HETATM    1  C6  UNL     1      11.957  18.658  48.484  1.00  0.00     0.068 C 
HETATM    2  C7  UNL     1      11.092  19.476  47.917  1.00  0.00    -0.049 C 
HETATM    3  C8  UNL     1      10.786  19.058  46.522  1.00  0.00     0.036 C 
HETATM    4  C9  UNL     1      10.112  20.180  45.747  1.00  0.00     0.004 C 
HETATM    5  C10 UNL     1       8.849  20.664  46.358  1.00  0.00     0.001 C 
HETATM    6  C11 UNL     1       8.918  20.628  47.847  1.00  0.00     0.017 C 
HETATM    7  C12 UNL     1      10.361  20.699  48.367  1.00  0.00     0.012 C 
HETATM    8  C13 UNL     1      10.946  21.981  47.864  1.00  0.00     0.023 C 
HETATM    9  C14 UNL     1      10.252  20.711  49.895  1.00  0.00     0.078 C 
HETATM   10  C15 UNL     1       9.248  21.797  50.260  1.00  0.00     0.048 C 
HETATM   11  C18 UNL     1      11.620  21.057  50.370  1.00  0.00     0.040 C 
HETATM   12  C19 UNL     1      12.479  19.916  50.646  1.00  0.00     0.008 C 
HETATM   13  C20 UNL     1      12.480  18.697  49.858  1.00  0.00     0.054 C 
ENDROOT
BRANCH   1  14
HETATM   14  S1  UNL     1      12.594  17.297  47.596  1.00  0.00     0.301 S 
HETATM   15  O3  UNL     1      11.625  16.194  47.360  1.00  0.00    -0.193 OA
HETATM   16  O4  UNL     1      13.669  16.646  48.481  1.00  0.00    -0.193 OA
BRANCH  14  17
HETATM   17  O2  UNL     1      13.466  17.759  46.217  1.00  0.00    -0.192 OA
BRANCH  17  18
HETATM   18  C5  UNL     1      13.410  17.045  45.024  1.00  0.00     0.278 C 
HETATM   19  O1  UNL     1      12.724  17.560  44.106  1.00  0.00    -0.264 OA
BRANCH  18  20
HETATM   20  C3  UNL     1      14.084  15.770  44.791  1.00  0.00     0.082 C 
HETATM   21  C4  UNL     1      14.097  15.367  43.329  1.00  0.00     0.020 C 
BRANCH  20  22
HETATM   22  C2  UNL     1      15.523  15.865  45.238  1.00  0.00     0.010 C 
HETATM   23  C1  UNL     1      15.880  14.894  46.316  1.00  0.00     0.006 C 
ENDBRANCH  20  22
ENDBRANCH  18  20
ENDBRANCH  17  18
ENDBRANCH  14  17
ENDBRANCH   1  14
BRANCH   9  24
HETATM   24  O5  UNL     1       9.752  19.474  50.280  1.00  0.00    -0.310 OA
BRANCH  24  25
HETATM   25  C16 UNL     1       8.860  19.222  51.275  1.00  0.00     0.255 C 
HETATM   26  C17 UNL     1       7.457  18.879  50.953  1.00  0.00     0.126 C 
HETATM   27  O6  UNL     1       9.218  19.278  52.472  1.00  0.00    -0.266 OA
ENDBRANCH  24  25
ENDBRANCH   9  24
TORSDOF 7
ENDMDL
MODEL 5
REMARK VINA RESULT: -7.143644997      3.331      4.880
REMARK  7 active torsions:
REMARK  status: ('A' for Active; 'I' for Inactive)
REMARK    1  A    between atoms: C2_2  and  C3_3 
REMARK    2  A    between atoms: C3_3  and  C5_5 
REMARK    3  A    between atoms: C5_5  and  O2_7 
REMARK    4  A    between atoms: O2_7  and  S1_8 
REMARK    5  A    between atoms: S1_8  and  C6_11 
REMARK    6  A    between atoms: C14_19  and  O5_21 
REMARK    7  A    between atoms: O5_21  and  C16_22 
ROOT
HETATM    1  C6  UNL     1      11.927  18.945  49.834  1.00  0.00     0.068 C 
HETATM    2  C7  UNL     1      11.305  19.545  48.839  1.00  0.00    -0.049 C 
HETATM    3  C8  UNL     1      11.705  18.973  47.524  1.00  0.00     0.036 C 
HETATM    4  C9  UNL     1      11.304  19.891  46.380  1.00  0.00     0.004 C 
HETATM    5  C10 UNL     1       9.850  20.182  46.318  1.00  0.00     0.001 C 
HETATM    6  C11 UNL     1       9.257  20.274  47.683  1.00  0.00     0.017 C 
HETATM    7  C12 UNL     1      10.298  20.646  48.749  1.00  0.00     0.012 C 
HETATM    8  C13 UNL     1      10.872  21.971  48.357  1.00  0.00     0.023 C 
HETATM    9  C14 UNL     1       9.522  20.755  50.066  1.00  0.00     0.078 C 
HETATM   10  C15 UNL     1       8.329  21.665  49.805  1.00  0.00     0.048 C 
HETATM   11  C18 UNL     1      10.481  21.380  51.019  1.00  0.00     0.040 C 
HETATM   12  C19 UNL     1      11.269  20.439  51.800  1.00  0.00     0.008 C 
HETATM   13  C20 UNL     1      11.778  19.184  51.277  1.00  0.00     0.054 C 
ENDROOT
BRANCH   1  14
HETATM   14  S1  UNL     1      13.063  17.659  49.513  1.00  0.00     0.301 S 
HETATM   15  O3  UNL     1      13.317  16.747  50.659  1.00  0.00    -0.193 OA
HETATM   16  O4  UNL     1      14.430  18.318  49.270  1.00  0.00    -0.193 OA
BRANCH  14  17
HETATM   17  O2  UNL     1      12.760  16.861  48.047  1.00  0.00    -0.192 OA
BRANCH  17  18
HETATM   18  C5  UNL     1      13.778  16.330  47.262  1.00  0.00     0.278 C 
HETATM   19  O1  UNL     1      14.538  15.506  47.830  1.00  0.00    -0.264 OA
BRANCH  18  20
HETATM   20  C3  UNL     1      14.004  16.669  45.859  1.00  0.00     0.082 C 
HETATM   21  C4  UNL     1      15.087  15.826  45.215  1.00  0.00     0.020 C 
BRANCH  20  22
HETATM   22  C2  UNL     1      12.736  16.441  45.071  1.00  0.00     0.010 C 
HETATM   23  C1  UNL     1      12.669  17.231  43.805  1.00  0.00     0.006 C 
ENDBRANCH  20  22
ENDBRANCH  18  20
ENDBRANCH  17  18
ENDBRANCH  14  17
ENDBRANCH   1  14
BRANCH   9  24
HETATM   24  O5  UNL     1       9.070  19.480  50.382  1.00  0.00    -0.310 OA
BRANCH  24  25
HETATM   25  C16 UNL     1       7.875  19.148  50.938  1.00  0.00     0.255 C 
HETATM   26  C17 UNL     1       6.919  18.290  50.203  1.00  0.00     0.126 C 
HETATM   27  O6  UNL     1       7.572  19.565  52.078  1.00  0.00    -0.266 OA
ENDBRANCH  24  25
ENDBRANCH   9  24
TORSDOF 7
ENDMDL
