MODEL 1
REMARK VINA RESULT: -7.462300204      0.000      0.000
REMARK  5 active torsions:
REMARK  status: ('A' for Active; 'I' for Inactive)
REMARK    1  A    between atoms: C3_3  and  C5_5 
REMARK    2  A    between atoms: C5_5  and  C6_7 
REMARK    3  A    between atoms: C6_7  and  S1_8 
REMARK    4  A    between atoms: S1_8  and  C7_9 
REMARK    5  A    between atoms: C8_10  and  C9_11 
ROOT
HETATM    1  C1  UNL     1       8.702  19.242  50.954  1.00  0.00     0.013 C 
HETATM    2  C2  UNL     1       9.737  19.577  51.469  1.00  0.00    -0.105 C 
HETATM    3  C3  UNL     1      10.994  19.997  52.122  1.00  0.00     0.130 C 
HETATM    4  C4  UNL     1      11.323  21.410  51.721  1.00  0.00     0.031 C 
ENDROOT
BRANCH   3   5
HETATM    5  C5  UNL     1      12.070  19.047  51.781  1.00  0.00     0.151 C 
HETATM    6  O1  UNL     1      12.388  18.189  52.548  1.00  0.00    -0.296 OA
BRANCH   5   7
HETATM    7  C6  UNL     1      12.776  19.160  50.454  1.00  0.00     0.159 C 
BRANCH   7   8
HETATM    8  S1  UNL     1      12.496  17.817  49.382  1.00  0.00    -0.120 SA
BRANCH   8   9
HETATM    9  C7  UNL     1      12.465  18.135  47.601  1.00  0.00     0.038 A 
HETATM   10  C8  UNL     1      11.585  18.950  47.018  1.00  0.00     0.042 A 
HETATM   11  S3  UNL     1      11.765  18.586  45.321  1.00  0.00    -0.069 SA
HETATM   12  C13 UNL     1      12.965  17.414  45.440  1.00  0.00     0.098 A 
HETATM   13  C14 UNL     1      13.211  17.316  46.773  1.00  0.00     0.085 A 
HETATM   14  N2  UNL     1      13.588  16.695  44.479  1.00  0.00    -0.297 N 
HETATM   15  C15 UNL     1      14.206  16.379  47.104  1.00  0.00     0.265 A 
HETATM   16  O2  UNL     1      14.566  16.152  48.280  1.00  0.00    -0.267 OA
HETATM   17  N1  UNL     1      14.823  15.669  46.158  1.00  0.00    -0.270 N 
HETATM   18  C16 UNL     1      15.851  14.706  46.535  1.00  0.00     0.164 C 
HETATM   19  C17 UNL     1      14.544  15.796  44.833  1.00  0.00     0.331 A 
HETATM   20  O3  UNL     1      15.131  15.123  43.965  1.00  0.00    -0.246 OA
HETATM   21  C18 UNL     1      13.276  16.837  43.083  1.00  0.00     0.162 C 
BRANCH  10  22
HETATM   22  C9  UNL     1      10.768  20.107  47.469  1.00  0.00     0.023 A 
HETATM   23  C10 UNL     1      11.160  21.293  48.019  1.00  0.00     0.021 A 
HETATM   24  C11 UNL     1      10.219  22.219  48.240  1.00  0.00     0.008 A 
HETATM   25  C12 UNL     1       8.927  21.912  47.898  1.00  0.00     0.050 A 
HETATM   26  S2  UNL     1       9.087  20.331  47.279  1.00  0.00    -0.101 SA
ENDBRANCH  10  22
ENDBRANCH   8   9
ENDBRANCH   7   8
ENDBRANCH   5   7
ENDBRANCH   3   5
TORSDOF 5
ENDMDL
MODEL 2
REMARK VINA RESULT: -7.447226313      3.086      5.743
REMARK  5 active torsions:
REMARK  status: ('A' for Active; 'I' for Inactive)
REMARK    1  A    between atoms: C3_3  and  C5_5 
REMARK    2  A    between atoms: C5_5  and  C6_7 
REMARK    3  A    between atoms: C6_7  and  S1_8 
REMARK    4  A    between atoms: S1_8  and  C7_9 
REMARK    5  A    between atoms: C8_10  and  C9_11 
ROOT
HETATM    1  C1  UNL     1      11.613  21.509  50.904  1.00  0.00     0.013 C 
HETATM    2  C2  UNL     1      12.439  20.688  50.598  1.00  0.00    -0.105 C 
HETATM    3  C3  UNL     1      13.472  19.697  50.234  1.00  0.00     0.130 C 
HETATM    4  C4  UNL     1      13.948  19.957  48.830  1.00  0.00     0.031 C 
ENDROOT
BRANCH   3   5
HETATM    5  C5  UNL     1      12.931  18.334  50.405  1.00  0.00     0.151 C 
HETATM    6  O1  UNL     1      12.284  18.055  51.369  1.00  0.00    -0.296 OA
BRANCH   5   7
HETATM    7  C6  UNL     1      13.198  17.286  49.356  1.00  0.00     0.159 C 
BRANCH   7   8
HETATM    8  S1  UNL     1      11.847  16.973  48.302  1.00  0.00    -0.120 SA
BRANCH   8   9
HETATM    9  C7  UNL     1      11.532  18.132  46.948  1.00  0.00     0.038 A 
HETATM   10  C8  UNL     1      12.231  18.141  45.813  1.00  0.00     0.042 A 
HETATM   11  S3  UNL     1      11.772  19.651  45.071  1.00  0.00    -0.069 SA
HETATM   12  C13 UNL     1      10.699  20.194  46.246  1.00  0.00     0.098 A 
HETATM   13  C14 UNL     1      10.707  19.216  47.189  1.00  0.00     0.085 A 
HETATM   14  N2  UNL     1       9.963  21.328  46.308  1.00  0.00    -0.297 N 
HETATM   15  C15 UNL     1       9.858  19.467  48.282  1.00  0.00     0.265 A 
HETATM   16  O2  UNL     1       9.734  18.680  49.246  1.00  0.00    -0.267 OA
HETATM   17  N1  UNL     1       9.130  20.583  48.344  1.00  0.00    -0.270 N 
HETATM   18  C16 UNL     1       8.259  20.813  49.490  1.00  0.00     0.164 C 
HETATM   19  C17 UNL     1       9.153  21.540  47.378  1.00  0.00     0.331 A 
HETATM   20  O3  UNL     1       8.467  22.577  47.455  1.00  0.00    -0.246 OA
HETATM   21  C18 UNL     1      10.005  22.333  45.280  1.00  0.00     0.162 C 
BRANCH  10  22
HETATM   22  C9  UNL     1      13.033  17.135  45.068  1.00  0.00     0.023 A 
HETATM   23  C10 UNL     1      12.945  16.739  43.764  1.00  0.00     0.021 A 
HETATM   24  C11 UNL     1      13.868  15.883  43.309  1.00  0.00     0.008 A 
HETATM   25  C12 UNL     1      14.838  15.464  44.183  1.00  0.00     0.050 A 
HETATM   26  S2  UNL     1      14.412  16.293  45.612  1.00  0.00    -0.101 SA
ENDBRANCH  10  22
ENDBRANCH   8   9
ENDBRANCH   7   8
ENDBRANCH   5   7
ENDBRANCH   3   5
TORSDOF 5
ENDMDL
MODEL 3
REMARK VINA RESULT: -7.424747599      7.843     10.913
REMARK  5 active torsions:
REMARK  status: ('A' for Active; 'I' for Inactive)
REMARK    1  A    between atoms: C3_3  and  C5_5 
REMARK    2  A    between atoms: C5_5  and  C6_7 
REMARK    3  A    between atoms: C6_7  and  S1_8 
REMARK    4  A    between atoms: S1_8  and  C7_9 
REMARK    5  A    between atoms: C8_10  and  C9_11 
ROOT
HETATM    1  C1  UNL     1      13.614  15.282  43.022  1.00  0.00     0.013 C 
HETATM    2  C2  UNL     1      13.115  16.271  42.551  1.00  0.00    -0.105 C 
HETATM    3  C3  UNL     1      12.525  17.498  41.978  1.00  0.00     0.130 C 
HETATM    4  C4  UNL     1      11.765  18.239  43.046  1.00  0.00     0.031 C 
ENDROOT
BRANCH   3   5
HETATM    5  C5  UNL     1      11.677  17.146  40.822  1.00  0.00     0.151 C 
HETATM    6  O1  UNL     1      10.944  16.205  40.872  1.00  0.00    -0.296 OA
BRANCH   5   7
HETATM    7  C6  UNL     1      11.739  17.978  39.567  1.00  0.00     0.159 C 
BRANCH   7   8
HETATM    8  S1  UNL     1      10.589  19.286  39.524  1.00  0.00    -0.120 SA
BRANCH   8   9
HETATM    9  C7  UNL     1      10.179  20.012  37.918  1.00  0.00     0.038 A 
HETATM   10  C8  UNL     1      10.534  21.246  37.560  1.00  0.00     0.042 A 
HETATM   11  S3  UNL     1       9.577  21.541  36.132  1.00  0.00    -0.069 SA
HETATM   12  C13 UNL     1       8.776  20.064  36.056  1.00  0.00     0.098 A 
HETATM   13  C14 UNL     1       9.249  19.368  37.123  1.00  0.00     0.085 A 
HETATM   14  N2  UNL     1       7.862  19.605  35.171  1.00  0.00    -0.297 N 
HETATM   15  C15 UNL     1       8.705  18.077  37.251  1.00  0.00     0.265 A 
HETATM   16  O2  UNL     1       9.022  17.291  38.172  1.00  0.00    -0.267 OA
HETATM   17  N1  UNL     1       7.805  17.621  36.379  1.00  0.00    -0.270 N 
HETATM   18  C16 UNL     1       7.263  16.278  36.539  1.00  0.00     0.164 C 
HETATM   19  C17 UNL     1       7.356  18.353  35.324  1.00  0.00     0.331 A 
HETATM   20  O3  UNL     1       6.513  17.910  34.521  1.00  0.00    -0.246 OA
HETATM   21  C18 UNL     1       7.392  20.395  34.066  1.00  0.00     0.162 C 
BRANCH  10  22
HETATM   22  C9  UNL     1      11.611  22.188  37.965  1.00  0.00     0.023 A 
HETATM   23  C10 UNL     1      12.461  22.137  39.033  1.00  0.00     0.021 A 
HETATM   24  C11 UNL     1      13.421  23.066  39.110  1.00  0.00     0.008 A 
HETATM   25  C12 UNL     1      13.485  24.005  38.112  1.00  0.00     0.050 A 
HETATM   26  S2  UNL     1      12.190  23.541  37.103  1.00  0.00    -0.101 SA
ENDBRANCH  10  22
ENDBRANCH   8   9
ENDBRANCH   7   8
ENDBRANCH   5   7
ENDBRANCH   3   5
TORSDOF 5
ENDMDL
MODEL 4
REMARK VINA RESULT: -7.362374417      1.753      2.619
REMARK  5 active torsions:
REMARK  status: ('A' for Active; 'I' for Inactive)
REMARK    1  A    between atoms: C3_3  and  C5_5 
REMARK    2  A    between atoms: C5_5  and  C6_7 
REMARK    3  A    between atoms: C6_7  and  S1_8 
REMARK    4  A    between atoms: S1_8  and  C7_9 
REMARK    5  A    between atoms: C8_10  and  C9_11 
ROOT
HETATM    1  C1  UNL     1      15.862  20.730  50.020  1.00  0.00     0.013 C 
HETATM    2  C2  UNL     1      14.691  20.450  49.989  1.00  0.00    -0.105 C 
HETATM    3  C3  UNL     1      13.251  20.128  49.935  1.00  0.00     0.130 C 
HETATM    4  C4  UNL     1      12.529  20.853  51.039  1.00  0.00     0.031 C 
ENDROOT
BRANCH   3   5
HETATM    5  C5  UNL     1      13.069  18.665  50.006  1.00  0.00     0.151 C 
HETATM    6  O1  UNL     1      12.378  18.180  50.851  1.00  0.00    -0.296 OA
BRANCH   5   7
HETATM    7  C6  UNL     1      13.762  17.774  49.008  1.00  0.00     0.159 C 
BRANCH   7   8
HETATM    8  S1  UNL     1      12.689  17.011  47.868  1.00  0.00    -0.120 SA
BRANCH   8   9
HETATM    9  C7  UNL     1      12.312  17.885  46.329  1.00  0.00     0.038 A 
HETATM   10  C8  UNL     1      11.437  18.888  46.252  1.00  0.00     0.042 A 
HETATM   11  S3  UNL     1      11.197  19.078  44.535  1.00  0.00    -0.069 SA
HETATM   12  C13 UNL     1      12.236  17.869  43.999  1.00  0.00     0.098 A 
HETATM   13  C14 UNL     1      12.750  17.337  45.138  1.00  0.00     0.085 A 
HETATM   14  N2  UNL     1      12.539  17.465  42.744  1.00  0.00    -0.297 N 
HETATM   15  C15 UNL     1      13.666  16.292  44.918  1.00  0.00     0.265 A 
HETATM   16  O2  UNL     1      14.241  15.682  45.846  1.00  0.00    -0.267 OA
HETATM   17  N1  UNL     1      13.969  15.892  43.682  1.00  0.00    -0.270 N 
HETATM   18  C16 UNL     1      14.923  14.807  43.489  1.00  0.00     0.164 C 
HETATM   19  C17 UNL     1      13.427  16.451  42.567  1.00  0.00     0.331 A 
HETATM   20  O3  UNL     1      13.722  16.063  41.421  1.00  0.00    -0.246 OA
HETATM   21  C18 UNL     1      11.952  18.063  41.576  1.00  0.00     0.162 C 
BRANCH  10  22
HETATM   22  C9  UNL     1      10.890  19.880  47.214  1.00  0.00     0.023 A 
HETATM   23  C10 UNL     1      11.055  21.235  47.262  1.00  0.00     0.021 A 
HETATM   24  C11 UNL     1      10.359  21.916  48.180  1.00  0.00     0.008 A 
HETATM   25  C12 UNL     1       9.529  21.205  49.010  1.00  0.00     0.050 A 
HETATM   26  S2  UNL     1       9.761  19.606  48.463  1.00  0.00    -0.101 SA
ENDBRANCH  10  22
ENDBRANCH   8   9
ENDBRANCH   7   8
ENDBRANCH   5   7
ENDBRANCH   3   5
TORSDOF 5
ENDMDL
MODEL 5
REMARK VINA RESULT: -7.355144687      3.845      7.958
REMARK  5 active torsions:
REMARK  status: ('A' for Active; 'I' for Inactive)
REMARK    1  A    between atoms: C3_3  and  C5_5 
REMARK    2  A    between atoms: C5_5  and  C6_7 
REMARK    3  A    between atoms: C6_7  and  S1_8 
REMARK    4  A    between atoms: S1_8  and  C7_9 
REMARK    5  A    between atoms: C8_10  and  C9_11 
ROOT
HETATM    1  C1  UNL     1      13.885  16.116  44.092  1.00  0.00     0.013 C 
HETATM    2  C2  UNL     1      13.046  16.973  44.197  1.00  0.00    -0.105 C 
HETATM    3  C3  UNL     1      11.997  18.006  44.324  1.00  0.00     0.130 C 
HETATM    4  C4  UNL     1      11.648  18.540  42.961  1.00  0.00     0.031 C 
ENDROOT
BRANCH   3   5
HETATM    5  C5  UNL     1      12.454  19.063  45.246  1.00  0.00     0.151 C 
HETATM    6  O1  UNL     1      13.466  18.932  45.866  1.00  0.00    -0.296 OA
BRANCH   5   7
HETATM    7  C6  UNL     1      11.636  20.319  45.411  1.00  0.00     0.159 C 
BRANCH   7   8
HETATM    8  S1  UNL     1      10.120  20.078  46.233  1.00  0.00    -0.120 SA
BRANCH   8   9
HETATM    9  C7  UNL     1      10.124  20.044  48.043  1.00  0.00     0.038 A 
HETATM   10  C8  UNL     1      10.531  18.994  48.755  1.00  0.00     0.042 A 
HETATM   11  S3  UNL     1       9.971  19.359  50.365  1.00  0.00    -0.069 SA
HETATM   12  C13 UNL     1       9.249  20.845  50.050  1.00  0.00     0.098 A 
HETATM   13  C14 UNL     1       9.445  21.041  48.720  1.00  0.00     0.085 A 
HETATM   14  N2  UNL     1       8.606  21.702  50.876  1.00  0.00    -0.297 N 
HETATM   15  C15 UNL     1       8.916  22.251  48.235  1.00  0.00     0.265 A 
HETATM   16  O2  UNL     1       9.001  22.601  47.038  1.00  0.00    -0.267 OA
HETATM   17  N1  UNL     1       8.283  23.098  49.048  1.00  0.00    -0.270 N 
HETATM   18  C16 UNL     1       7.747  24.344  48.514  1.00  0.00     0.164 C 
HETATM   19  C17 UNL     1       8.106  22.862  50.375  1.00  0.00     0.331 A 
HETATM   20  O3  UNL     1       7.510  23.665  51.117  1.00  0.00    -0.246 OA
HETATM   21  C18 UNL     1       8.421  21.433  52.277  1.00  0.00     0.162 C 
BRANCH  10  22
HETATM   22  C9  UNL     1      11.446  17.848  48.505  1.00  0.00     0.023 A 
HETATM   23  C10 UNL     1      11.260  16.731  47.743  1.00  0.00     0.021 A 
HETATM   24  C11 UNL     1      12.295  15.894  47.599  1.00  0.00     0.008 A 
HETATM   25  C12 UNL     1      13.470  16.217  48.230  1.00  0.00     0.050 A 
HETATM   26  S2  UNL     1      13.071  17.686  48.998  1.00  0.00    -0.101 SA
ENDBRANCH  10  22
ENDBRANCH   8   9
ENDBRANCH   7   8
ENDBRANCH   5   7
ENDBRANCH   3   5
TORSDOF 5
ENDMDL
