MODEL 1
REMARK VINA RESULT: -7.029162716      0.000      0.000
REMARK  9 active torsions:
REMARK  status: ('A' for Active; 'I' for Inactive)
REMARK    1  A    between atoms: C2_2  and  C4_5 
REMARK    2  A    between atoms: C4_5  and  O1_6 
REMARK    3  A    between atoms: O1_6  and  C5_7 
REMARK    4  A    between atoms: C5_7  and  C6_9 
REMARK    5  A    between atoms: C6_9  and  C7_10 
REMARK    6  A    between atoms: C10_14  and  S1_15 
REMARK    7  A    between atoms: S1_15  and  S2_16 
REMARK    8  A    between atoms: S2_16  and  C11_17 
REMARK    9  A    between atoms: C11_17  and  N2_19 
ROOT
HETATM    1  C1  UNL     1      12.380  17.967  44.443  1.00  0.00     0.033 C 
HETATM    2  C2  UNL     1      12.998  16.925  43.925  1.00  0.00     0.037 C 
HETATM    3  C3  UNL     1      13.063  16.741  42.509  1.00  0.00     0.096 C 
HETATM    4  N1  UNL     1      13.102  16.586  41.361  1.00  0.00    -0.192 NA
ENDROOT
BRANCH   2   5
HETATM    5  C4  UNL     1      13.636  15.927  44.805  1.00  0.00     0.228 C 
BRANCH   5   6
HETATM    6  O1  UNL     1      14.378  16.571  45.839  1.00  0.00    -0.316 OA
BRANCH   6   7
HETATM    7  C5  UNL     1      14.176  16.157  47.151  1.00  0.00     0.260 C 
HETATM    8  O2  UNL     1      15.007  15.416  47.737  1.00  0.00    -0.265 OA
BRANCH   7   9
HETATM    9  C6  UNL     1      12.974  16.565  47.924  1.00  0.00     0.126 C 
BRANCH   9  10
HETATM   10  C7  UNL     1      13.099  18.021  48.229  1.00  0.00     0.065 C 
HETATM   11  C8  UNL     1      13.818  18.273  49.550  1.00  0.00     0.096 C 
HETATM   12  C9  UNL     1      13.529  19.707  49.849  1.00  0.00     0.152 C 
HETATM   13  O3  UNL     1      14.307  20.634  50.007  1.00  0.00    -0.296 OA
HETATM   14  C10 UNL     1      12.036  19.911  49.944  1.00  0.00     0.190 C 
HETATM   15  S4  UNL     1      11.472  18.761  48.652  1.00  0.00    -0.139 SA
BRANCH  14  16
HETATM   16  S1  UNL     1      11.442  19.402  51.576  1.00  0.00    -0.067 SA
BRANCH  16  17
HETATM   17  S2  UNL     1       9.567  20.314  51.987  1.00  0.00    -0.026 SA
BRANCH  17  18
HETATM   18  C11 UNL     1       8.627  20.557  50.485  1.00  0.00     0.147 C 
HETATM   19  S3  UNL     1       8.738  22.008  49.740  1.00  0.00    -0.052 SA
BRANCH  18  20
HETATM   20  N2  UNL     1       7.815  19.512  49.973  1.00  0.00    -0.366 N 
HETATM   21  C12 UNL     1       7.544  19.271  48.569  1.00  0.00     0.124 C 
HETATM   22  C13 UNL     1       6.185  18.586  48.634  1.00  0.00     0.021 C 
HETATM   23  C14 UNL     1       6.356  17.671  49.828  1.00  0.00     0.021 C 
HETATM   24  C15 UNL     1       7.133  18.526  50.786  1.00  0.00     0.124 C 
ENDBRANCH  18  20
ENDBRANCH  17  18
ENDBRANCH  16  17
ENDBRANCH  14  16
ENDBRANCH   9  10
ENDBRANCH   7   9
ENDBRANCH   6   7
ENDBRANCH   5   6
ENDBRANCH   2   5
TORSDOF 9
ENDMDL
MODEL 2
REMARK VINA RESULT: -7.007337093      2.123      2.696
REMARK  9 active torsions:
REMARK  status: ('A' for Active; 'I' for Inactive)
REMARK    1  A    between atoms: C2_2  and  C4_5 
REMARK    2  A    between atoms: C4_5  and  O1_6 
REMARK    3  A    between atoms: O1_6  and  C5_7 
REMARK    4  A    between atoms: C5_7  and  C6_9 
REMARK    5  A    between atoms: C6_9  and  C7_10 
REMARK    6  A    between atoms: C10_14  and  S1_15 
REMARK    7  A    between atoms: S1_15  and  S2_16 
REMARK    8  A    between atoms: S2_16  and  C11_17 
REMARK    9  A    between atoms: C11_17  and  N2_19 
ROOT
HETATM    1  C1  UNL     1      12.600  16.979  42.761  1.00  0.00     0.033 C 
HETATM    2  C2  UNL     1      13.498  16.225  43.363  1.00  0.00     0.037 C 
HETATM    3  C3  UNL     1      14.108  15.126  42.682  1.00  0.00     0.096 C 
HETATM    4  N1  UNL     1      14.590  14.227  42.132  1.00  0.00    -0.192 NA
ENDROOT
BRANCH   2   5
HETATM    5  C4  UNL     1      13.890  16.506  44.758  1.00  0.00     0.228 C 
BRANCH   5   6
HETATM    6  O1  UNL     1      12.834  16.161  45.653  1.00  0.00    -0.316 OA
BRANCH   6   7
HETATM    7  C5  UNL     1      13.141  15.989  46.999  1.00  0.00     0.260 C 
HETATM    8  O2  UNL     1      14.140  15.314  47.360  1.00  0.00    -0.265 OA
BRANCH   7   9
HETATM    9  C6  UNL     1      12.311  16.590  48.075  1.00  0.00     0.126 C 
BRANCH   9  10
HETATM   10  C7  UNL     1      12.765  17.999  48.271  1.00  0.00     0.065 C 
HETATM   11  C8  UNL     1      13.713  18.138  49.458  1.00  0.00     0.096 C 
HETATM   12  C9  UNL     1      13.761  19.610  49.708  1.00  0.00     0.152 C 
HETATM   13  O3  UNL     1      14.721  20.363  49.698  1.00  0.00    -0.296 OA
HETATM   14  C10 UNL     1      12.369  20.117  50.002  1.00  0.00     0.190 C 
HETATM   15  S4  UNL     1      11.401  19.068  48.875  1.00  0.00    -0.139 SA
BRANCH  14  16
HETATM   16  S1  UNL     1      11.942  19.789  51.730  1.00  0.00    -0.067 SA
BRANCH  16  17
HETATM   17  S2  UNL     1       9.843  19.520  51.924  1.00  0.00    -0.026 SA
BRANCH  17  18
HETATM   18  C11 UNL     1       8.986  21.089  51.883  1.00  0.00     0.147 C 
HETATM   19  S3  UNL     1       7.857  21.372  53.033  1.00  0.00    -0.052 SA
BRANCH  18  20
HETATM   20  N2  UNL     1       9.289  22.043  50.878  1.00  0.00    -0.366 N 
HETATM   21  C12 UNL     1       8.889  21.952  49.488  1.00  0.00     0.124 C 
HETATM   22  C13 UNL     1       9.990  22.750  48.800  1.00  0.00     0.021 C 
HETATM   23  C14 UNL     1      10.171  23.913  49.754  1.00  0.00     0.021 C 
HETATM   24  C15 UNL     1      10.050  23.256  51.097  1.00  0.00     0.124 C 
ENDBRANCH  18  20
ENDBRANCH  17  18
ENDBRANCH  16  17
ENDBRANCH  14  16
ENDBRANCH   9  10
ENDBRANCH   7   9
ENDBRANCH   6   7
ENDBRANCH   5   6
ENDBRANCH   2   5
TORSDOF 9
ENDMDL
MODEL 3
REMARK VINA RESULT: -6.995133688      2.835      3.417
REMARK  9 active torsions:
REMARK  status: ('A' for Active; 'I' for Inactive)
REMARK    1  A    between atoms: C2_2  and  C4_5 
REMARK    2  A    between atoms: C4_5  and  O1_6 
REMARK    3  A    between atoms: O1_6  and  C5_7 
REMARK    4  A    between atoms: C5_7  and  C6_9 
REMARK    5  A    between atoms: C6_9  and  C7_10 
REMARK    6  A    between atoms: C10_14  and  S1_15 
REMARK    7  A    between atoms: S1_15  and  S2_16 
REMARK    8  A    between atoms: S2_16  and  C11_17 
REMARK    9  A    between atoms: C11_17  and  N2_19 
ROOT
HETATM    1  C1  UNL     1      13.289  16.425  42.952  1.00  0.00     0.033 C 
HETATM    2  C2  UNL     1      13.973  15.299  42.928  1.00  0.00     0.037 C 
HETATM    3  C3  UNL     1      13.383  14.093  42.437  1.00  0.00     0.096 C 
HETATM    4  N1  UNL     1      12.897  13.114  42.053  1.00  0.00    -0.192 NA
ENDROOT
BRANCH   2   5
HETATM    5  C4  UNL     1      15.367  15.266  43.411  1.00  0.00     0.228 C 
BRANCH   5   6
HETATM    6  O1  UNL     1      15.508  14.318  44.467  1.00  0.00    -0.316 OA
BRANCH   6   7
HETATM    7  C5  UNL     1      15.617  14.794  45.770  1.00  0.00     0.260 C 
HETATM    8  O2  UNL     1      16.214  14.133  46.659  1.00  0.00    -0.265 OA
BRANCH   7   9
HETATM    9  C6  UNL     1      15.036  16.100  46.177  1.00  0.00     0.126 C 
BRANCH   9  10
HETATM   10  C7  UNL     1      13.864  15.824  47.060  1.00  0.00     0.065 C 
HETATM   11  C8  UNL     1      12.601  16.527  46.576  1.00  0.00     0.096 C 
HETATM   12  C9  UNL     1      11.670  16.436  47.741  1.00  0.00     0.152 C 
HETATM   13  O3  UNL     1      10.566  15.922  47.808  1.00  0.00    -0.296 OA
HETATM   14  C10 UNL     1      12.297  17.108  48.940  1.00  0.00     0.190 C 
HETATM   15  S4  UNL     1      14.040  16.653  48.689  1.00  0.00    -0.139 SA
BRANCH  14  16
HETATM   16  S1  UNL     1      12.067  18.901  48.836  1.00  0.00    -0.067 SA
BRANCH  16  17
HETATM   17  S2  UNL     1       9.994  19.368  48.795  1.00  0.00    -0.026 SA
BRANCH  17  18
HETATM   18  C11 UNL     1       9.690  21.005  49.448  1.00  0.00     0.147 C 
HETATM   19  S3  UNL     1       9.896  22.279  48.443  1.00  0.00    -0.052 SA
BRANCH  18  20
HETATM   20  N2  UNL     1       9.284  21.172  50.797  1.00  0.00    -0.366 N 
HETATM   21  C12 UNL     1      10.030  20.727  51.958  1.00  0.00     0.124 C 
HETATM   22  C13 UNL     1       8.914  20.511  52.974  1.00  0.00     0.021 C 
HETATM   23  C14 UNL     1       8.021  21.705  52.710  1.00  0.00     0.021 C 
HETATM   24  C15 UNL     1       8.055  21.815  51.214  1.00  0.00     0.124 C 
ENDBRANCH  18  20
ENDBRANCH  17  18
ENDBRANCH  16  17
ENDBRANCH  14  16
ENDBRANCH   9  10
ENDBRANCH   7   9
ENDBRANCH   6   7
ENDBRANCH   5   6
ENDBRANCH   2   5
TORSDOF 9
ENDMDL
MODEL 4
REMARK VINA RESULT: -6.988979590      2.661      4.083
REMARK  9 active torsions:
REMARK  status: ('A' for Active; 'I' for Inactive)
REMARK    1  A    between atoms: C2_2  and  C4_5 
REMARK    2  A    between atoms: C4_5  and  O1_6 
REMARK    3  A    between atoms: O1_6  and  C5_7 
REMARK    4  A    between atoms: C5_7  and  C6_9 
REMARK    5  A    between atoms: C6_9  and  C7_10 
REMARK    6  A    between atoms: C10_14  and  S1_15 
REMARK    7  A    between atoms: S1_15  and  S2_16 
REMARK    8  A    between atoms: S2_16  and  C11_17 
REMARK    9  A    between atoms: C11_17  and  N2_19 
ROOT
HETATM    1  C1  UNL     1      13.188  13.019  42.122  1.00  0.00     0.033 C 
HETATM    2  C2  UNL     1      14.481  13.238  42.247  1.00  0.00     0.037 C 
HETATM    3  C3  UNL     1      15.386  12.161  42.501  1.00  0.00     0.096 C 
HETATM    4  N1  UNL     1      16.115  11.288  42.723  1.00  0.00    -0.192 NA
ENDROOT
BRANCH   2   5
HETATM    5  C4  UNL     1      15.018  14.608  42.126  1.00  0.00     0.228 C 
BRANCH   5   6
HETATM    6  O1  UNL     1      14.517  15.436  43.174  1.00  0.00    -0.316 OA
BRANCH   6   7
HETATM    7  C5  UNL     1      13.459  16.293  42.887  1.00  0.00     0.260 C 
HETATM    8  O2  UNL     1      13.166  16.595  41.701  1.00  0.00    -0.265 OA
BRANCH   7   9
HETATM    9  C6  UNL     1      12.627  16.895  43.961  1.00  0.00     0.126 C 
BRANCH   9  10
HETATM   10  C7  UNL     1      13.466  16.987  45.193  1.00  0.00     0.065 C 
HETATM   11  C8  UNL     1      13.104  15.917  46.218  1.00  0.00     0.096 C 
HETATM   12  C9  UNL     1      13.766  16.383  47.473  1.00  0.00     0.152 C 
HETATM   13  O3  UNL     1      14.603  15.820  48.158  1.00  0.00    -0.296 OA
HETATM   14  C10 UNL     1      13.242  17.751  47.840  1.00  0.00     0.190 C 
HETATM   15  S4  UNL     1      13.045  18.475  46.183  1.00  0.00    -0.139 SA
BRANCH  14  16
HETATM   16  S1  UNL     1      11.646  17.600  48.681  1.00  0.00    -0.067 SA
BRANCH  16  17
HETATM   17  S2  UNL     1      11.324  19.280  49.941  1.00  0.00    -0.026 SA
BRANCH  17  18
HETATM   18  C11 UNL     1       9.771  20.082  49.562  1.00  0.00     0.147 C 
HETATM   19  S3  UNL     1       9.311  20.153  47.994  1.00  0.00    -0.052 SA
BRANCH  18  20
HETATM   20  N2  UNL     1       8.978  20.632  50.602  1.00  0.00    -0.366 N 
HETATM   21  C12 UNL     1       8.294  21.909  50.549  1.00  0.00     0.124 C 
HETATM   22  C13 UNL     1       8.239  22.287  52.024  1.00  0.00     0.021 C 
HETATM   23  C14 UNL     1       7.906  20.959  52.672  1.00  0.00     0.021 C 
HETATM   24  C15 UNL     1       8.736  19.992  51.879  1.00  0.00     0.124 C 
ENDBRANCH  18  20
ENDBRANCH  17  18
ENDBRANCH  16  17
ENDBRANCH  14  16
ENDBRANCH   9  10
ENDBRANCH   7   9
ENDBRANCH   6   7
ENDBRANCH   5   6
ENDBRANCH   2   5
TORSDOF 9
ENDMDL
MODEL 5
REMARK VINA RESULT: -6.953832696      2.784      3.680
REMARK  9 active torsions:
REMARK  status: ('A' for Active; 'I' for Inactive)
REMARK    1  A    between atoms: C2_2  and  C4_5 
REMARK    2  A    between atoms: C4_5  and  O1_6 
REMARK    3  A    between atoms: O1_6  and  C5_7 
REMARK    4  A    between atoms: C5_7  and  C6_9 
REMARK    5  A    between atoms: C6_9  and  C7_10 
REMARK    6  A    between atoms: C10_14  and  S1_15 
REMARK    7  A    between atoms: S1_15  and  S2_16 
REMARK    8  A    between atoms: S2_16  and  C11_17 
REMARK    9  A    between atoms: C11_17  and  N2_19 
ROOT
HETATM    1  C1  UNL     1      13.159  16.432  42.923  1.00  0.00     0.033 C 
HETATM    2  C2  UNL     1      13.890  15.336  42.908  1.00  0.00     0.037 C 
HETATM    3  C3  UNL     1      13.357  14.105  42.413  1.00  0.00     0.096 C 
HETATM    4  N1  UNL     1      12.917  13.106  42.025  1.00  0.00    -0.192 NA
ENDROOT
BRANCH   2   5
HETATM    5  C4  UNL     1      15.279  15.363  43.407  1.00  0.00     0.228 C 
BRANCH   5   6
HETATM    6  O1  UNL     1      15.463  14.384  44.429  1.00  0.00    -0.316 OA
BRANCH   6   7
HETATM    7  C5  UNL     1      15.560  14.818  45.747  1.00  0.00     0.260 C 
HETATM    8  O2  UNL     1      16.147  14.129  46.620  1.00  0.00    -0.265 OA
BRANCH   7   9
HETATM    9  C6  UNL     1      14.977  16.112  46.190  1.00  0.00     0.126 C 
BRANCH   9  10
HETATM   10  C7  UNL     1      13.799  15.809  47.057  1.00  0.00     0.065 C 
HETATM   11  C8  UNL     1      12.519  16.453  46.535  1.00  0.00     0.096 C 
HETATM   12  C9  UNL     1      11.571  16.350  47.684  1.00  0.00     0.152 C 
HETATM   13  O3  UNL     1      10.486  15.795  47.742  1.00  0.00    -0.296 OA
HETATM   14  C10 UNL     1      12.148  17.072  48.879  1.00  0.00     0.190 C 
HETATM   15  S4  UNL     1      13.912  16.679  48.670  1.00  0.00    -0.139 SA
BRANCH  14  16
HETATM   16  S1  UNL     1      11.852  18.852  48.732  1.00  0.00    -0.067 SA
BRANCH  16  17
HETATM   17  S2  UNL     1       9.852  19.306  49.291  1.00  0.00    -0.026 SA
BRANCH  17  18
HETATM   18  C11 UNL     1       9.809  20.301  50.776  1.00  0.00     0.147 C 
HETATM   19  S3  UNL     1      10.227  19.587  52.187  1.00  0.00    -0.052 SA
BRANCH  18  20
HETATM   20  N2  UNL     1       9.422  21.665  50.712  1.00  0.00    -0.366 N 
HETATM   21  C12 UNL     1       8.247  22.234  51.342  1.00  0.00     0.124 C 
HETATM   22  C13 UNL     1       7.953  23.417  50.428  1.00  0.00     0.021 C 
HETATM   23  C14 UNL     1       9.344  23.950  50.155  1.00  0.00     0.021 C 
HETATM   24  C15 UNL     1      10.150  22.694  49.999  1.00  0.00     0.124 C 
ENDBRANCH  18  20
ENDBRANCH  17  18
ENDBRANCH  16  17
ENDBRANCH  14  16
ENDBRANCH   9  10
ENDBRANCH   7   9
ENDBRANCH   6   7
ENDBRANCH   5   6
ENDBRANCH   2   5
TORSDOF 9
ENDMDL
