MODEL 1
REMARK VINA RESULT: -7.768918907      0.000      0.000
REMARK  8 active torsions:
REMARK  status: ('A' for Active; 'I' for Inactive)
REMARK    1  A    between atoms: C8_11  and  N3_12 
REMARK    2  A    between atoms: N6_16  and  C9_17 
REMARK    3  A    between atoms: C9_17  and  C10_18 
REMARK    4  A    between atoms: C10_18  and  N7_19 
REMARK    5  A    between atoms: C10_18  and  C11_23 
REMARK    6  A    between atoms: C11_23  and  N9_27 
REMARK    7  A    between atoms: N9_27  and  O3_29 
REMARK    8  A    between atoms: O3_29  and  C12_30 
ROOT
HETATM    1  C1  UNL     1      26.327  59.790 -36.354  1.00  0.00     0.132 C 
HETATM    2  N1  UNL     1      25.169  60.103 -35.577  1.00  0.00    -0.232 NA
HETATM    3  N2  UNL     1      24.076  60.522 -36.343  1.00  0.00    -0.157 NA
HETATM    4  C2  UNL     1      23.156  61.165 -35.424  1.00  0.00     0.125 C 
HETATM    5  C3  UNL     1      23.683  62.557 -35.143  1.00  0.00     0.027 C 
HETATM    6  C4  UNL     1      25.202  62.408 -34.976  1.00  0.00     0.025 C 
HETATM    7  C5  UNL     1      25.425  60.997 -34.472  1.00  0.00     0.111 C 
HETATM    8  C6  UNL     1      24.375  60.778 -33.362  1.00  0.00     0.277 C 
HETATM    9  C7  UNL     1      23.128  60.337 -34.167  1.00  0.00     0.181 C 
HETATM   10  O1  UNL     1      23.316  58.998 -34.346  1.00  0.00    -0.334 OA
HETATM   11  C8  UNL     1      24.191  58.531 -33.375  1.00  0.00     0.486 C 
HETATM   12  N6  UNL     1      24.622  59.639 -32.600  1.00  0.00     0.146 N 
ENDROOT
BRANCH  12  13
HETATM   13  C9  UNL     1      24.040  59.631 -31.309  1.00  0.00     0.319 C 
BRANCH  13  14
HETATM   14  C10 UNL     1      24.947  59.843 -30.136  1.00  0.00     0.280 C 
BRANCH  14  15
HETATM   15  N7  UNL     1      25.300  61.171 -29.805  1.00  0.00    -0.066 N 
ATOM     16  H73 UNL     1      24.481  61.653 -29.432  1.00  0.00     0.275 HD
ATOM     17  H72 UNL     1      25.909  61.163 -28.988  1.00  0.00     0.275 HD
ATOM     18  H71 UNL     1      25.724  61.745 -30.533  1.00  0.00     0.275 HD
ENDBRANCH  14  15
BRANCH  14  19
HETATM   19  C11 UNL     1      24.315  59.252 -28.900  1.00  0.00     0.128 C 
HETATM   20  N8  UNL     1      23.521  58.249 -28.926  1.00  0.00    -0.386 N 
ATOM     21  H82 UNL     1      23.295  57.818 -29.822  1.00  0.00     0.157 HD
ATOM     22  H81 UNL     1      23.094  57.849 -28.091  1.00  0.00     0.157 HD
BRANCH  19  23
HETATM   23  N9  UNL     1      24.628  59.848 -27.659  1.00  0.00    -0.242 N 
ATOM     24  H9  UNL     1      23.939  60.465 -27.229  1.00  0.00     0.196 HD
BRANCH  23  25
HETATM   25  O3  UNL     1      25.829  59.634 -26.996  1.00  0.00    -0.182 OA
BRANCH  25  26
HETATM   26  C12 UNL     1      26.068  58.327 -26.567  1.00  0.00     0.394 C 
HETATM   27  N10 UNL     1      25.014  57.562 -25.990  1.00  0.00    -0.031 NA
HETATM   28  O4  UNL     1      27.212  57.808 -26.682  1.00  0.00    -0.240 OA
ENDBRANCH  25  26
ENDBRANCH  23  25
ENDBRANCH  19  23
ENDBRANCH  14  19
ENDBRANCH  13  14
ENDBRANCH  12  13
BRANCH  11  29
HETATM   29  N3  UNL     1      23.589  57.446 -32.619  1.00  0.00    -0.006 NA
HETATM   30  N4  UNL     1      22.793  56.686 -33.521  1.00  0.00     0.006 NA
HETATM   31  N5  UNL     1      23.827  55.755 -33.674  1.00  0.00     0.053 NA
HETATM   32  O2  UNL     1      24.407  56.340 -32.598  1.00  0.00    -0.148 OA
ENDBRANCH  11  29
TORSDOF 8
ENDMDL
MODEL 2
REMARK VINA RESULT: -7.707563968      1.281      1.439
REMARK  8 active torsions:
REMARK  status: ('A' for Active; 'I' for Inactive)
REMARK    1  A    between atoms: C8_11  and  N3_12 
REMARK    2  A    between atoms: N6_16  and  C9_17 
REMARK    3  A    between atoms: C9_17  and  C10_18 
REMARK    4  A    between atoms: C10_18  and  N7_19 
REMARK    5  A    between atoms: C10_18  and  C11_23 
REMARK    6  A    between atoms: C11_23  and  N9_27 
REMARK    7  A    between atoms: N9_27  and  O3_29 
REMARK    8  A    between atoms: O3_29  and  C12_30 
ROOT
HETATM    1  C1  UNL     1      26.716  60.174 -36.354  1.00  0.00     0.132 C 
HETATM    2  N1  UNL     1      25.758  60.891 -35.570  1.00  0.00    -0.232 NA
HETATM    3  N2  UNL     1      24.986  61.790 -36.313  1.00  0.00    -0.157 NA
HETATM    4  C2  UNL     1      24.375  62.692 -35.355  1.00  0.00     0.125 C 
HETATM    5  C3  UNL     1      25.424  63.703 -34.939  1.00  0.00     0.027 C 
HETATM    6  C4  UNL     1      26.727  62.911 -34.762  1.00  0.00     0.025 C 
HETATM    7  C5  UNL     1      26.307  61.504 -34.385  1.00  0.00     0.111 C 
HETATM    8  C6  UNL     1      25.206  61.669 -33.316  1.00  0.00     0.277 C 
HETATM    9  C7  UNL     1      23.934  61.861 -34.178  1.00  0.00     0.181 C 
HETATM   10  O1  UNL     1      23.549  60.588 -34.476  1.00  0.00    -0.334 OA
HETATM   11  C8  UNL     1      24.093  59.721 -33.537  1.00  0.00     0.486 C 
HETATM   12  N6  UNL     1      24.909  60.479 -32.657  1.00  0.00     0.146 N 
ENDROOT
BRANCH  12  13
HETATM   13  C9  UNL     1      24.310  60.621 -31.383  1.00  0.00     0.319 C 
BRANCH  13  14
HETATM   14  C10 UNL     1      25.131  60.258 -30.183  1.00  0.00     0.280 C 
BRANCH  14  15
HETATM   15  N7  UNL     1      25.460  61.288 -29.272  1.00  0.00    -0.066 N 
ATOM     16  H73 UNL     1      26.319  61.745 -29.577  1.00  0.00     0.275 HD
ATOM     17  H72 UNL     1      24.790  62.050 -29.372  1.00  0.00     0.275 HD
ATOM     18  H71 UNL     1      25.543  61.042 -28.286  1.00  0.00     0.275 HD
ENDBRANCH  14  15
BRANCH  14  19
HETATM   19  C11 UNL     1      24.414  59.198 -29.385  1.00  0.00     0.128 C 
HETATM   20  N8  UNL     1      23.913  58.142 -29.907  1.00  0.00    -0.386 N 
ATOM     21  H82 UNL     1      23.997  57.999 -30.913  1.00  0.00     0.157 HD
ATOM     22  H81 UNL     1      23.429  57.425 -29.367  1.00  0.00     0.157 HD
BRANCH  19  23
HETATM   23  N9  UNL     1      24.298  59.397 -27.993  1.00  0.00    -0.242 N 
ATOM     24  H9  UNL     1      23.366  59.496 -27.591  1.00  0.00     0.196 HD
BRANCH  23  25
HETATM   25  O3  UNL     1      25.394  59.465 -27.142  1.00  0.00    -0.182 OA
BRANCH  25  26
HETATM   26  C12 UNL     1      25.801  58.259 -26.570  1.00  0.00     0.394 C 
HETATM   27  N10 UNL     1      27.164  57.854 -26.654  1.00  0.00    -0.031 NA
HETATM   28  O4  UNL     1      24.976  57.515 -25.972  1.00  0.00    -0.240 OA
ENDBRANCH  25  26
ENDBRANCH  23  25
ENDBRANCH  19  23
ENDBRANCH  14  19
ENDBRANCH  13  14
ENDBRANCH  12  13
BRANCH  11  29
HETATM   29  N3  UNL     1      23.051  58.940 -32.893  1.00  0.00    -0.006 NA
HETATM   30  N4  UNL     1      22.052  58.670 -33.870  1.00  0.00     0.006 NA
HETATM   31  N5  UNL     1      22.599  57.401 -34.100  1.00  0.00     0.053 NA
HETATM   32  O2  UNL     1      23.318  57.593 -32.968  1.00  0.00    -0.148 OA
ENDBRANCH  11  29
TORSDOF 8
ENDMDL
MODEL 3
REMARK VINA RESULT: -7.644321960      2.088      2.416
REMARK  8 active torsions:
REMARK  status: ('A' for Active; 'I' for Inactive)
REMARK    1  A    between atoms: C8_11  and  N3_12 
REMARK    2  A    between atoms: N6_16  and  C9_17 
REMARK    3  A    between atoms: C9_17  and  C10_18 
REMARK    4  A    between atoms: C10_18  and  N7_19 
REMARK    5  A    between atoms: C10_18  and  C11_23 
REMARK    6  A    between atoms: C11_23  and  N9_27 
REMARK    7  A    between atoms: N9_27  and  O3_29 
REMARK    8  A    between atoms: O3_29  and  C12_30 
ROOT
HETATM    1  C1  UNL     1      27.571  62.086 -35.266  1.00  0.00     0.132 C 
HETATM    2  N1  UNL     1      26.392  62.397 -34.520  1.00  0.00    -0.232 NA
HETATM    3  N2  UNL     1      25.634  63.432 -35.078  1.00  0.00    -0.157 NA
HETATM    4  C2  UNL     1      24.733  63.885 -34.035  1.00  0.00     0.125 C 
HETATM    5  C3  UNL     1      25.524  64.770 -33.094  1.00  0.00     0.027 C 
HETATM    6  C4  UNL     1      26.881  64.079 -32.906  1.00  0.00     0.025 C 
HETATM    7  C5  UNL     1      26.623  62.600 -33.110  1.00  0.00     0.111 C 
HETATM    8  C6  UNL     1      25.339  62.285 -32.314  1.00  0.00     0.277 C 
HETATM    9  C7  UNL     1      24.225  62.660 -33.320  1.00  0.00     0.181 C 
HETATM   10  O1  UNL     1      24.099  61.544 -34.094  1.00  0.00    -0.334 OA
HETATM   11  C8  UNL     1      24.596  60.452 -33.396  1.00  0.00     0.486 C 
HETATM   12  N6  UNL     1      25.118  60.919 -32.161  1.00  0.00     0.146 N 
ENDROOT
BRANCH  12  13
HETATM   13  C9  UNL     1      24.290  60.553 -31.073  1.00  0.00     0.319 C 
BRANCH  13  14
HETATM   14  C10 UNL     1      24.918  59.796 -29.943  1.00  0.00     0.280 C 
BRANCH  14  15
HETATM   15  N7  UNL     1      24.906  60.391 -28.662  1.00  0.00    -0.066 N 
ATOM     16  H73 UNL     1      24.505  61.327 -28.730  1.00  0.00     0.275 HD
ATOM     17  H72 UNL     1      24.208  59.924 -28.082  1.00  0.00     0.275 HD
ATOM     18  H71 UNL     1      25.787  60.440 -28.152  1.00  0.00     0.275 HD
ENDBRANCH  14  15
BRANCH  14  19
HETATM   19  C11 UNL     1      24.238  58.457 -29.797  1.00  0.00     0.128 C 
HETATM   20  N8  UNL     1      24.023  57.665 -30.778  1.00  0.00    -0.386 N 
ATOM     21  H82 UNL     1      24.321  57.941 -31.713  1.00  0.00     0.157 HD
ATOM     22  H81 UNL     1      23.563  56.760 -30.679  1.00  0.00     0.157 HD
BRANCH  19  23
HETATM   23  N9  UNL     1      23.825  58.075 -28.502  1.00  0.00    -0.242 N 
ATOM     24  H9  UNL     1      22.999  58.522 -28.103  1.00  0.00     0.196 HD
BRANCH  23  25
HETATM   25  O3  UNL     1      24.488  57.119 -27.746  1.00  0.00    -0.182 OA
BRANCH  25  26
HETATM   26  C12 UNL     1      25.184  57.592 -26.632  1.00  0.00     0.394 C 
HETATM   27  N10 UNL     1      26.244  58.529 -26.799  1.00  0.00    -0.031 NA
HETATM   28  O4  UNL     1      24.889  57.200 -25.470  1.00  0.00    -0.240 OA
ENDBRANCH  25  26
ENDBRANCH  23  25
ENDBRANCH  19  23
ENDBRANCH  14  19
ENDBRANCH  13  14
ENDBRANCH  12  13
BRANCH  11  29
HETATM   29  N3  UNL     1      23.590  59.410 -33.286  1.00  0.00    -0.006 NA
HETATM   30  N4  UNL     1      22.882  59.367 -34.520  1.00  0.00     0.006 NA
HETATM   31  N5  UNL     1      23.673  58.295 -34.954  1.00  0.00     0.053 NA
HETATM   32  O2  UNL     1      24.093  58.189 -33.669  1.00  0.00    -0.148 OA
ENDBRANCH  11  29
TORSDOF 8
ENDMDL
MODEL 4
REMARK VINA RESULT: -7.312961984      4.522      8.017
REMARK  8 active torsions:
REMARK  status: ('A' for Active; 'I' for Inactive)
REMARK    1  A    between atoms: C8_11  and  N3_12 
REMARK    2  A    between atoms: N6_16  and  C9_17 
REMARK    3  A    between atoms: C9_17  and  C10_18 
REMARK    4  A    between atoms: C10_18  and  N7_19 
REMARK    5  A    between atoms: C10_18  and  C11_23 
REMARK    6  A    between atoms: C11_23  and  N9_27 
REMARK    7  A    between atoms: N9_27  and  O3_29 
REMARK    8  A    between atoms: O3_29  and  C12_30 
ROOT
HETATM    1  C1  UNL     1      30.949  62.453 -24.433  1.00  0.00     0.132 C 
HETATM    2  N1  UNL     1      30.523  62.313 -25.791  1.00  0.00    -0.232 NA
HETATM    3  N2  UNL     1      31.407  62.876 -26.716  1.00  0.00    -0.157 NA
HETATM    4  C2  UNL     1      30.669  63.009 -27.958  1.00  0.00     0.125 C 
HETATM    5  C3  UNL     1      29.781  64.230 -27.838  1.00  0.00     0.027 C 
HETATM    6  C4  UNL     1      29.201  64.193 -26.417  1.00  0.00     0.025 C 
HETATM    7  C5  UNL     1      29.161  62.730 -26.026  1.00  0.00     0.111 C 
HETATM    8  C6  UNL     1      28.585  61.986 -27.250  1.00  0.00     0.277 C 
HETATM    9  C7  UNL     1      29.843  61.759 -28.122  1.00  0.00     0.181 C 
HETATM   10  O1  UNL     1      30.396  60.624 -27.607  1.00  0.00    -0.334 OA
HETATM   11  C8  UNL     1      29.415  59.914 -26.927  1.00  0.00     0.486 C 
HETATM   12  N6  UNL     1      28.217  60.674 -26.962  1.00  0.00     0.146 N 
ENDROOT
BRANCH  12  13
HETATM   13  C9  UNL     1      27.261  60.103 -27.836  1.00  0.00     0.319 C 
BRANCH  13  14
HETATM   14  C10 UNL     1      25.891  59.838 -27.293  1.00  0.00     0.280 C 
BRANCH  14  15
HETATM   15  N7  UNL     1      24.825  60.632 -27.775  1.00  0.00    -0.066 N 
ATOM     16  H73 UNL     1      24.959  61.596 -27.467  1.00  0.00     0.275 HD
ATOM     17  H72 UNL     1      24.916  60.738 -28.785  1.00  0.00     0.275 HD
ATOM     18  H71 UNL     1      23.875  60.338 -27.553  1.00  0.00     0.275 HD
ENDBRANCH  14  15
BRANCH  14  19
HETATM   19  C11 UNL     1      25.510  58.405 -27.567  1.00  0.00     0.128 C 
HETATM   20  N8  UNL     1      26.178  57.403 -27.135  1.00  0.00    -0.386 N 
ATOM     21  H82 UNL     1      27.014  57.569 -26.575  1.00  0.00     0.157 HD
ATOM     22  H81 UNL     1      25.920  56.434 -27.320  1.00  0.00     0.157 HD
BRANCH  19  23
HETATM   23  N9  UNL     1      24.352  58.175 -28.343  1.00  0.00    -0.242 N 
ATOM     24  H9  UNL     1      23.440  58.281 -27.898  1.00  0.00     0.196 HD
BRANCH  23  25
HETATM   25  O3  UNL     1      24.396  57.812 -29.682  1.00  0.00    -0.182 OA
BRANCH  25  26
HETATM   26  C12 UNL     1      23.906  58.753 -30.589  1.00  0.00     0.394 C 
HETATM   27  N10 UNL     1      23.090  58.336 -31.679  1.00  0.00    -0.031 NA
HETATM   28  O4  UNL     1      24.177  59.979 -30.459  1.00  0.00    -0.240 OA
ENDBRANCH  25  26
ENDBRANCH  23  25
ENDBRANCH  19  23
ENDBRANCH  14  19
ENDBRANCH  13  14
ENDBRANCH  12  13
BRANCH  11  29
HETATM   29  N3  UNL     1      29.304  58.563 -27.449  1.00  0.00    -0.006 NA
HETATM   30  N4  UNL     1      30.607  57.990 -27.434  1.00  0.00     0.006 NA
HETATM   31  N5  UNL     1      30.326  57.344 -26.223  1.00  0.00     0.053 NA
HETATM   32  O2  UNL     1      29.028  57.663 -26.446  1.00  0.00    -0.148 OA
ENDBRANCH  11  29
TORSDOF 8
ENDMDL
MODEL 5
REMARK VINA RESULT: -7.127308233      2.474      3.970
REMARK  8 active torsions:
REMARK  status: ('A' for Active; 'I' for Inactive)
REMARK    1  A    between atoms: C8_11  and  N3_12 
REMARK    2  A    between atoms: N6_16  and  C9_17 
REMARK    3  A    between atoms: C9_17  and  C10_18 
REMARK    4  A    between atoms: C10_18  and  N7_19 
REMARK    5  A    between atoms: C10_18  and  C11_23 
REMARK    6  A    between atoms: C11_23  and  N9_27 
REMARK    7  A    between atoms: N9_27  and  O3_29 
REMARK    8  A    between atoms: O3_29  and  C12_30 
ROOT
HETATM    1  C1  UNL     1      24.644  65.059 -32.921  1.00  0.00     0.132 C 
HETATM    2  N1  UNL     1      25.099  63.762 -33.314  1.00  0.00    -0.232 NA
HETATM    3  N2  UNL     1      25.862  63.769 -34.487  1.00  0.00    -0.157 NA
HETATM    4  C2  UNL     1      25.901  62.396 -34.955  1.00  0.00     0.125 C 
HETATM    5  C3  UNL     1      24.581  62.105 -35.639  1.00  0.00     0.027 C 
HETATM    6  C4  UNL     1      23.500  62.751 -34.761  1.00  0.00     0.025 C 
HETATM    7  C5  UNL     1      24.061  62.760 -33.354  1.00  0.00     0.111 C 
HETATM    8  C6  UNL     1      24.671  61.359 -33.139  1.00  0.00     0.277 C 
HETATM    9  C7  UNL     1      26.086  61.516 -33.747  1.00  0.00     0.181 C 
HETATM   10  O1  UNL     1      26.816  62.063 -32.733  1.00  0.00    -0.334 OA
HETATM   11  C8  UNL     1      26.187  61.789 -31.526  1.00  0.00     0.486 C 
HETATM   12  N6  UNL     1      24.978  61.101 -31.805  1.00  0.00     0.146 N 
ENDROOT
BRANCH  12  13
HETATM   13  C9  UNL     1      25.062  59.733 -31.452  1.00  0.00     0.319 C 
BRANCH  13  14
HETATM   14  C10 UNL     1      23.868  59.107 -30.799  1.00  0.00     0.280 C 
BRANCH  14  15
HETATM   15  N7  UNL     1      23.462  57.831 -31.250  1.00  0.00    -0.066 N 
ATOM     16  H73 UNL     1      24.004  57.579 -32.077  1.00  0.00     0.275 HD
ATOM     17  H72 UNL     1      23.779  57.124 -30.588  1.00  0.00     0.275 HD
ATOM     18  H71 UNL     1      22.471  57.688 -31.444  1.00  0.00     0.275 HD
ENDBRANCH  14  15
BRANCH  14  19
HETATM   19  C11 UNL     1      24.120  58.973 -29.317  1.00  0.00     0.128 C 
HETATM   20  N8  UNL     1      23.582  58.067 -28.590  1.00  0.00    -0.386 N 
ATOM     21  H82 UNL     1      22.947  57.396 -29.023  1.00  0.00     0.157 HD
ATOM     22  H81 UNL     1      23.752  57.976 -27.589  1.00  0.00     0.157 HD
BRANCH  19  23
HETATM   23  N9  UNL     1      24.998  59.902 -28.719  1.00  0.00    -0.242 N 
ATOM     24  H9  UNL     1      25.402  60.634 -29.302  1.00  0.00     0.196 HD
BRANCH  23  25
HETATM   25  O3  UNL     1      25.338  59.866 -27.373  1.00  0.00    -0.182 OA
BRANCH  25  26
HETATM   26  C12 UNL     1      26.502  59.166 -27.053  1.00  0.00     0.394 C 
HETATM   27  N10 UNL     1      27.690  59.874 -26.714  1.00  0.00    -0.031 NA
HETATM   28  O4  UNL     1      26.520  57.904 -27.058  1.00  0.00    -0.240 OA
ENDBRANCH  25  26
ENDBRANCH  23  25
ENDBRANCH  19  23
ENDBRANCH  14  19
ENDBRANCH  13  14
ENDBRANCH  12  13
BRANCH  11  29
HETATM   29  N3  UNL     1      27.092  61.104 -30.619  1.00  0.00    -0.006 NA
HETATM   30  N4  UNL     1      28.416  61.510 -30.947  1.00  0.00     0.006 NA
HETATM   31  N5  UNL     1      28.398  62.456 -29.914  1.00  0.00     0.053 NA
HETATM   32  O2  UNL     1      27.284  61.827 -29.466  1.00  0.00    -0.148 OA
ENDBRANCH  11  29
TORSDOF 8
ENDMDL
