MODEL 1
REMARK VINA RESULT: -7.842119341      0.000      0.000
REMARK  6 active torsions:
REMARK  status: ('A' for Active; 'I' for Inactive)
REMARK    1  A    between atoms: C2_2  and  O1_3 
REMARK    2  A    between atoms: C2_2  and  C3_5 
REMARK    3  A    between atoms: C3_5  and  N1_6 
REMARK    4  A    between atoms: C6_15  and  O3_16 
REMARK    5  A    between atoms: C7_18  and  C8_19 
REMARK    6  A    between atoms: C10_26  and  C11_27 
ROOT
HETATM    1  N1  UNL     1      31.348  59.672 -26.366  1.00  0.00    -0.331 N 
HETATM    2  C4  UNL     1      31.117  59.626 -24.972  1.00  0.00     0.190 C 
HETATM    3  N2  UNL     1      31.287  58.358 -24.283  1.00  0.00    -0.064 NA
HETATM    4  N3  UNL     1      30.772  60.601 -24.220  1.00  0.00    -0.329 N 
ATOM      5  H3  UNL     1      30.639  60.422 -23.224  1.00  0.00     0.165 HD
HETATM    6  C5  UNL     1      30.564  61.938 -24.711  1.00  0.00     0.210 C 
HETATM    7  N4  UNL     1      29.178  62.235 -24.948  1.00  0.00    -0.089 NA
HETATM    8  N5  UNL     1      29.084  62.445 -23.542  1.00  0.00    -0.069 NA
HETATM    9  O2  UNL     1      28.192  63.374 -23.144  1.00  0.00    -0.215 OA
HETATM   10  C6  UNL     1      28.350  64.729 -23.202  1.00  0.00     0.233 C 
HETATM   11  C7  UNL     1      29.477  65.228 -23.689  1.00  0.00     0.167 C 
HETATM   12  N6  UNL     1      30.485  64.310 -24.137  1.00  0.00    -0.356 N 
ATOM     13  H6  UNL     1      31.209  64.610 -24.791  1.00  0.00     0.162 HD
HETATM   14  C9  UNL     1      30.454  62.969 -23.651  1.00  0.00     0.262 C 
HETATM   15  S1  UNL     1      31.715  62.308 -26.058  1.00  0.00    -0.081 SA
HETATM   16  C10 UNL     1      31.531  60.848 -27.183  1.00  0.00     0.242 C 
ENDROOT
BRANCH  16  17
HETATM   17  C11 UNL     1      30.410  61.087 -28.101  1.00  0.00     0.264 C 
HETATM   18  N7  UNL     1      29.054  60.916 -27.777  1.00  0.00    -0.059 NA
HETATM   19  O6  UNL     1      30.710  61.481 -29.279  1.00  0.00    -0.274 OA
ENDBRANCH  16  17
BRANCH   1  20
HETATM   20  C3  UNL     1      31.420  58.359 -27.018  1.00  0.00     0.158 C 
BRANCH  20  21
HETATM   21  C2  UNL     1      30.110  57.696 -27.252  1.00  0.00     0.132 C 
HETATM   22  C1  UNL     1      30.280  56.191 -27.007  1.00  0.00     0.041 C 
BRANCH  21  23
HETATM   23  O1  UNL     1      29.052  58.118 -26.478  1.00  0.00    -0.394 OA
ATOM     24  H1  UNL     1      28.287  57.628 -26.757  1.00  0.00     0.210 HD
ENDBRANCH  21  23
ENDBRANCH  20  21
ENDBRANCH   1  20
BRANCH  11  25
HETATM   25  C8  UNL     1      29.664  66.664 -23.760  1.00  0.00     0.231 C 
HETATM   26  O4  UNL     1      30.324  67.138 -24.705  1.00  0.00    -0.643 OA
HETATM   27  O5  UNL     1      29.136  67.522 -22.817  1.00  0.00    -0.643 OA
ENDBRANCH  11  25
BRANCH  10  28
HETATM   28  O3  UNL     1      27.366  65.633 -22.766  1.00  0.00    -0.338 OA
ATOM     29  H3  UNL     1      26.895  65.530 -21.947  1.00  0.00     0.220 HD
ENDBRANCH  10  28
TORSDOF 6
ENDMDL
MODEL 2
REMARK VINA RESULT: -7.563042081      1.149      1.230
REMARK  6 active torsions:
REMARK  status: ('A' for Active; 'I' for Inactive)
REMARK    1  A    between atoms: C2_2  and  O1_3 
REMARK    2  A    between atoms: C2_2  and  C3_5 
REMARK    3  A    between atoms: C3_5  and  N1_6 
REMARK    4  A    between atoms: C6_15  and  O3_16 
REMARK    5  A    between atoms: C7_18  and  C8_19 
REMARK    6  A    between atoms: C10_26  and  C11_27 
ROOT
HETATM    1  N1  UNL     1      31.319  59.726 -26.488  1.00  0.00    -0.331 N 
HETATM    2  C4  UNL     1      30.974  59.621 -25.121  1.00  0.00     0.190 C 
HETATM    3  N2  UNL     1      31.045  58.316 -24.486  1.00  0.00    -0.064 NA
HETATM    4  N3  UNL     1      30.601  60.570 -24.350  1.00  0.00    -0.329 N 
ATOM      5  H3  UNL     1      30.380  60.349 -23.379  1.00  0.00     0.165 HD
HETATM    6  C5  UNL     1      30.477  61.936 -24.787  1.00  0.00     0.210 C 
HETATM    7  N4  UNL     1      29.125  62.295 -25.118  1.00  0.00    -0.089 NA
HETATM    8  N5  UNL     1      28.924  62.441 -23.716  1.00  0.00    -0.069 NA
HETATM    9  O2  UNL     1      28.033  63.382 -23.344  1.00  0.00    -0.215 OA
HETATM   10  C6  UNL     1      28.239  64.731 -23.319  1.00  0.00     0.233 C 
HETATM   11  C7  UNL     1      29.418  65.211 -23.688  1.00  0.00     0.167 C 
HETATM   12  N6  UNL     1      30.429  64.280 -24.101  1.00  0.00    -0.356 N 
ATOM     13  H6  UNL     1      31.213  64.584 -24.678  1.00  0.00     0.162 HD
HETATM   14  C9  UNL     1      30.314  62.918 -23.687  1.00  0.00     0.262 C 
HETATM   15  S1  UNL     1      31.745  62.329 -26.017  1.00  0.00    -0.081 SA
HETATM   16  C10 UNL     1      31.607  60.932 -27.226  1.00  0.00     0.242 C 
ENDROOT
BRANCH  16  17
HETATM   17  C11 UNL     1      30.573  61.257 -28.217  1.00  0.00     0.264 C 
HETATM   18  N7  UNL     1      29.267  60.738 -28.218  1.00  0.00    -0.059 NA
HETATM   19  O6  UNL     1      30.903  62.075 -29.142  1.00  0.00    -0.274 OA
ENDBRANCH  16  17
BRANCH   1  20
HETATM   20  C3  UNL     1      31.401  58.444 -27.199  1.00  0.00     0.158 C 
BRANCH  20  21
HETATM   21  C2  UNL     1      32.762  57.849 -27.273  1.00  0.00     0.132 C 
HETATM   22  C1  UNL     1      32.617  56.329 -27.422  1.00  0.00     0.041 C 
BRANCH  21  23
HETATM   23  O1  UNL     1      33.577  58.283 -28.295  1.00  0.00    -0.394 OA
ATOM     24  H1  UNL     1      33.304  59.166 -28.517  1.00  0.00     0.210 HD
ENDBRANCH  21  23
ENDBRANCH  20  21
ENDBRANCH   1  20
BRANCH  11  25
HETATM   25  C8  UNL     1      29.657  66.641 -23.671  1.00  0.00     0.231 C 
HETATM   26  O4  UNL     1      30.308  67.153 -24.602  1.00  0.00    -0.643 OA
HETATM   27  O5  UNL     1      29.188  67.453 -22.658  1.00  0.00    -0.643 OA
ENDBRANCH  11  25
BRANCH  10  28
HETATM   28  O3  UNL     1      27.253  65.648 -22.918  1.00  0.00    -0.338 OA
ATOM     29  H3  UNL     1      26.487  65.848 -23.444  1.00  0.00     0.220 HD
ENDBRANCH  10  28
TORSDOF 6
ENDMDL
MODEL 3
REMARK VINA RESULT: -7.514479174      3.492      5.199
REMARK  6 active torsions:
REMARK  status: ('A' for Active; 'I' for Inactive)
REMARK    1  A    between atoms: C2_2  and  O1_3 
REMARK    2  A    between atoms: C2_2  and  C3_5 
REMARK    3  A    between atoms: C3_5  and  N1_6 
REMARK    4  A    between atoms: C6_15  and  O3_16 
REMARK    5  A    between atoms: C7_18  and  C8_19 
REMARK    6  A    between atoms: C10_26  and  C11_27 
ROOT
HETATM    1  N1  UNL     1      32.476  56.458 -24.371  1.00  0.00    -0.331 N 
HETATM    2  C4  UNL     1      32.244  57.615 -23.591  1.00  0.00     0.190 C 
HETATM    3  N2  UNL     1      32.599  57.583 -22.182  1.00  0.00    -0.064 NA
HETATM    4  N3  UNL     1      31.749  58.724 -23.992  1.00  0.00    -0.329 N 
ATOM      5  H3  UNL     1      31.636  59.478 -23.315  1.00  0.00     0.165 HD
HETATM    6  C5  UNL     1      31.344  58.957 -25.354  1.00  0.00     0.210 C 
HETATM    7  N4  UNL     1      29.931  58.787 -25.552  1.00  0.00    -0.089 NA
HETATM    8  N5  UNL     1      29.795  60.093 -25.002  1.00  0.00    -0.069 NA
HETATM    9  O2  UNL     1      28.770  60.828 -25.476  1.00  0.00    -0.215 OA
HETATM   10  C6  UNL     1      28.720  61.474 -26.678  1.00  0.00     0.233 C 
HETATM   11  C7  UNL     1      29.763  61.401 -27.493  1.00  0.00     0.167 C 
HETATM   12  N6  UNL     1      30.902  60.638 -27.069  1.00  0.00    -0.356 N 
ATOM     13  H6  UNL     1      31.577  60.289 -27.749  1.00  0.00     0.162 HD
HETATM   14  C9  UNL     1      31.071  60.379 -25.676  1.00  0.00     0.262 C 
HETATM   15  S1  UNL     1      32.436  58.082 -26.502  1.00  0.00    -0.081 SA
HETATM   16  C10 UNL     1      32.485  56.364 -25.811  1.00  0.00     0.242 C 
ENDROOT
BRANCH  16  17
HETATM   17  C11 UNL     1      31.348  55.601 -26.341  1.00  0.00     0.264 C 
HETATM   18  N7  UNL     1      31.270  55.068 -27.639  1.00  0.00    -0.059 NA
HETATM   19  O6  UNL     1      30.363  55.417 -25.548  1.00  0.00    -0.274 OA
ENDBRANCH  16  17
BRANCH   1  20
HETATM   20  C3  UNL     1      32.751  55.243 -23.596  1.00  0.00     0.158 C 
BRANCH  20  21
HETATM   21  C2  UNL     1      34.085  54.630 -23.835  1.00  0.00     0.132 C 
HETATM   22  C1  UNL     1      35.010  55.017 -22.673  1.00  0.00     0.041 C 
BRANCH  21  23
HETATM   23  O1  UNL     1      34.128  53.258 -23.952  1.00  0.00    -0.394 OA
ATOM     24  H1  UNL     1      33.743  53.035 -24.791  1.00  0.00     0.210 HD
ENDBRANCH  21  23
ENDBRANCH  20  21
ENDBRANCH   1  20
BRANCH  11  25
HETATM   25  C8  UNL     1      29.731  62.079 -28.775  1.00  0.00     0.231 C 
HETATM   26  O4  UNL     1      29.902  61.411 -29.812  1.00  0.00    -0.643 OA
HETATM   27  O5  UNL     1      29.516  63.438 -28.883  1.00  0.00    -0.643 OA
ENDBRANCH  11  25
BRANCH  10  28
HETATM   28  O3  UNL     1      27.608  62.221 -27.100  1.00  0.00    -0.338 OA
ATOM     29  H3  UNL     1      27.629  63.165 -27.207  1.00  0.00     0.220 HD
ENDBRANCH  10  28
TORSDOF 6
ENDMDL
MODEL 4
REMARK VINA RESULT: -7.204022493      2.899      7.102
REMARK  6 active torsions:
REMARK  status: ('A' for Active; 'I' for Inactive)
REMARK    1  A    between atoms: C2_2  and  O1_3 
REMARK    2  A    between atoms: C2_2  and  C3_5 
REMARK    3  A    between atoms: C3_5  and  N1_6 
REMARK    4  A    between atoms: C6_15  and  O3_16 
REMARK    5  A    between atoms: C7_18  and  C8_19 
REMARK    6  A    between atoms: C10_26  and  C11_27 
ROOT
HETATM    1  N1  UNL     1      30.418  64.890 -25.758  1.00  0.00    -0.331 N 
HETATM    2  C4  UNL     1      30.242  64.634 -27.137  1.00  0.00     0.190 C 
HETATM    3  N2  UNL     1      30.819  65.564 -28.093  1.00  0.00    -0.064 NA
HETATM    4  N3  UNL     1      29.622  63.646 -27.661  1.00  0.00    -0.329 N 
ATOM      5  H3  UNL     1      29.573  63.588 -28.678  1.00  0.00     0.165 HD
HETATM    6  C5  UNL     1      28.991  62.612 -26.882  1.00  0.00     0.210 C 
HETATM    7  N4  UNL     1      27.578  62.818 -26.723  1.00  0.00    -0.089 NA
HETATM    8  N5  UNL     1      27.452  62.283 -28.037  1.00  0.00    -0.069 NA
HETATM    9  O2  UNL     1      26.320  61.594 -28.286  1.00  0.00    -0.215 OA
HETATM   10  C6  UNL     1      26.039  60.320 -27.884  1.00  0.00     0.233 C 
HETATM   11  C7  UNL     1      26.941  59.653 -27.177  1.00  0.00     0.167 C 
HETATM   12  N6  UNL     1      28.178  60.310 -26.865  1.00  0.00    -0.356 N 
ATOM     13  H6  UNL     1      28.756  59.989 -26.088  1.00  0.00     0.162 HD
HETATM   14  C9  UNL     1      28.583  61.420 -27.665  1.00  0.00     0.262 C 
HETATM   15  S1  UNL     1      29.938  62.283 -25.375  1.00  0.00    -0.081 SA
HETATM   16  C10 UNL     1      30.203  63.972 -24.665  1.00  0.00     0.242 C 
ENDROOT
BRANCH  16  17
HETATM   17  C11 UNL     1      29.045  64.331 -23.836  1.00  0.00     0.264 C 
HETATM   18  N7  UNL     1      28.714  65.637 -23.436  1.00  0.00    -0.059 NA
HETATM   19  O6  UNL     1      28.291  63.370 -23.460  1.00  0.00    -0.274 OA
ENDBRANCH  16  17
BRANCH   1  20
HETATM   20  C3  UNL     1      30.888  66.244 -25.441  1.00  0.00     0.158 C 
BRANCH  20  21
HETATM   21  C2  UNL     1      32.056  66.309 -24.524  1.00  0.00     0.132 C 
HETATM   22  C1  UNL     1      33.082  67.286 -25.115  1.00  0.00     0.041 C 
BRANCH  21  23
HETATM   23  O1  UNL     1      31.811  66.709 -23.230  1.00  0.00    -0.394 OA
ATOM     24  H1  UNL     1      32.553  66.432 -22.704  1.00  0.00     0.210 HD
ENDBRANCH  21  23
ENDBRANCH  20  21
ENDBRANCH   1  20
BRANCH  11  25
HETATM   25  C8  UNL     1      26.662  58.298 -26.739  1.00  0.00     0.231 C 
HETATM   26  O4  UNL     1      27.557  57.438 -26.843  1.00  0.00    -0.643 OA
HETATM   27  O5  UNL     1      25.440  57.933 -26.212  1.00  0.00    -0.643 OA
ENDBRANCH  11  25
BRANCH  10  28
HETATM   28  O3  UNL     1      24.830  59.672 -28.184  1.00  0.00    -0.338 OA
ATOM     29  H3  UNL     1      23.985  59.985 -27.881  1.00  0.00     0.220 HD
ENDBRANCH  10  28
TORSDOF 6
ENDMDL
MODEL 5
REMARK VINA RESULT: -7.152173204      3.210      7.012
REMARK  6 active torsions:
REMARK  status: ('A' for Active; 'I' for Inactive)
REMARK    1  A    between atoms: C2_2  and  O1_3 
REMARK    2  A    between atoms: C2_2  and  C3_5 
REMARK    3  A    between atoms: C3_5  and  N1_6 
REMARK    4  A    between atoms: C6_15  and  O3_16 
REMARK    5  A    between atoms: C7_18  and  C8_19 
REMARK    6  A    between atoms: C10_26  and  C11_27 
ROOT
HETATM    1  N1  UNL     1      30.605  63.074 -26.221  1.00  0.00    -0.331 N 
HETATM    2  C4  UNL     1      30.448  62.659 -27.564  1.00  0.00     0.190 C 
HETATM    3  N2  UNL     1      31.321  63.233 -28.573  1.00  0.00    -0.064 NA
HETATM    4  N3  UNL     1      29.607  61.805 -28.009  1.00  0.00    -0.329 N 
ATOM      5  H3  UNL     1      29.604  61.601 -29.009  1.00  0.00     0.165 HD
HETATM    6  C5  UNL     1      28.663  61.118 -27.166  1.00  0.00     0.210 C 
HETATM    7  N4  UNL     1      27.358  61.722 -27.182  1.00  0.00    -0.089 NA
HETATM    8  N5  UNL     1      27.166  61.039 -28.417  1.00  0.00    -0.069 NA
HETATM    9  O2  UNL     1      25.902  60.652 -28.684  1.00  0.00    -0.215 OA
HETATM   10  C6  UNL     1      25.249  59.582 -28.144  1.00  0.00     0.233 C 
HETATM   11  C7  UNL     1      25.880  58.817 -27.265  1.00  0.00     0.167 C 
HETATM   12  N6  UNL     1      27.231  59.155 -26.920  1.00  0.00    -0.356 N 
ATOM     13  H6  UNL     1      27.647  58.818 -26.051  1.00  0.00     0.162 HD
HETATM   14  C9  UNL     1      27.982  59.973 -27.817  1.00  0.00     0.262 C 
HETATM   15  S1  UNL     1      29.384  60.789 -25.539  1.00  0.00    -0.081 SA
HETATM   16  C10 UNL     1      30.073  62.435 -25.042  1.00  0.00     0.242 C 
ENDROOT
BRANCH  16  17
HETATM   17  C11 UNL     1      29.016  63.221 -24.393  1.00  0.00     0.264 C 
HETATM   18  N7  UNL     1      28.721  63.194 -23.020  1.00  0.00    -0.059 NA
HETATM   19  O6  UNL     1      28.323  63.982 -25.150  1.00  0.00    -0.274 OA
ENDBRANCH  16  17
BRANCH   1  20
HETATM   20  C3  UNL     1      31.419  64.282 -26.045  1.00  0.00     0.158 C 
BRANCH  20  21
HETATM   21  C2  UNL     1      30.751  65.555 -26.423  1.00  0.00     0.132 C 
HETATM   22  C1  UNL     1      31.025  66.590 -25.323  1.00  0.00     0.041 C 
BRANCH  21  23
HETATM   23  O1  UNL     1      31.126  66.125 -27.620  1.00  0.00    -0.394 OA
ATOM     24  H1  UNL     1      30.511  66.827 -27.802  1.00  0.00     0.210 HD
ENDBRANCH  21  23
ENDBRANCH  20  21
ENDBRANCH   1  20
BRANCH  11  25
HETATM   25  C8  UNL     1      25.204  57.676 -26.677  1.00  0.00     0.231 C 
HETATM   26  O4  UNL     1      25.529  57.309 -25.533  1.00  0.00    -0.643 OA
HETATM   27  O5  UNL     1      24.212  56.985 -27.345  1.00  0.00    -0.643 OA
ENDBRANCH  11  25
BRANCH  10  28
HETATM   28  O3  UNL     1      23.926  59.246 -28.476  1.00  0.00    -0.338 OA
ATOM     29  H3  UNL     1      23.700  58.484 -28.996  1.00  0.00     0.220 HD
ENDBRANCH  10  28
TORSDOF 6
ENDMDL
