MODEL 1
REMARK VINA RESULT: -10.444900936      0.000      0.000
REMARK  3 active torsions:
REMARK  status: ('A' for Active; 'I' for Inactive)
REMARK    1  A    between atoms: C6_6  and  C7_7 
REMARK    2  A    between atoms: C9_10  and  N1_11 
REMARK       I    between atoms: N1_11  and  C10_13 
REMARK       I    between atoms: C10_13  and  N2_15 
REMARK    3  A    between atoms: N2_15  and  C11_17 
ROOT
HETATM    1  C7  UNL     1     -34.171   4.130  21.775  1.00  0.00     0.052 A 
HETATM    2  C8  UNL     1     -34.887   3.197  22.496  1.00  0.00     0.083 A 
HETATM    3  S1  UNL     1     -35.715   4.174  23.631  1.00  0.00    -0.063 SA
HETATM    4  C9  UNL     1     -35.117   5.683  23.135  1.00  0.00     0.152 A 
HETATM    5  N3  UNL     1     -34.312   5.377  22.128  1.00  0.00    -0.335 N 
ATOM      6  H3  UNL     1     -33.807   6.112  21.632  1.00  0.00     0.168 HD
ENDROOT
BRANCH   4   7
HETATM    7  N1  UNL     1     -35.368   6.885  23.612  1.00  0.00    -0.288 N 
HETATM    8  C10 UNL     1     -36.272   7.707  22.832  1.00  0.00     0.326 C 
HETATM    9  O1  UNL     1     -37.242   8.143  23.462  1.00  0.00    -0.247 OA
HETATM   10  N2  UNL     1     -36.047   7.968  21.487  1.00  0.00    -0.307 N 
ATOM     11  H2  UNL     1     -35.211   7.548  21.083  1.00  0.00     0.170 HD
ATOM     12  H1  UNL     1     -34.950   7.218  24.481  1.00  0.00     0.172 HD
BRANCH  10  13
HETATM   13  C11 UNL     1     -36.826   8.733  20.625  1.00  0.00     0.059 A 
HETATM   14  C12 UNL     1     -36.608  10.052  20.294  1.00  0.00     0.055 A 
HETATM   15  C13 UNL     1     -37.437  10.749  19.421  1.00  0.00     0.036 A 
HETATM   16 CL1  UNL     1     -37.089  12.424  19.054  1.00  0.00    -0.084 Cl
HETATM   17  C14 UNL     1     -38.527  10.130  18.845  1.00  0.00     0.026 A 
HETATM   18  C15 UNL     1     -38.774   8.815  19.153  1.00  0.00     0.028 A 
HETATM   19  C16 UNL     1     -37.945   8.139  20.019  1.00  0.00     0.060 A 
HETATM   20 CL2  UNL     1     -38.290   6.466  20.388  1.00  0.00    -0.082 Cl
ENDBRANCH  10  13
ENDBRANCH   4   7
BRANCH   1  21
HETATM   21  C6  UNL     1     -33.388   3.667  20.587  1.00  0.00     0.005 A 
HETATM   22  C4  UNL     1     -33.951   3.510  19.349  1.00  0.00    -0.048 A 
HETATM   23  C3  UNL     1     -33.187   3.184  18.215  1.00  0.00     0.016 A 
HETATM   24  C5  UNL     1     -35.431   3.601  19.179  1.00  0.00     0.049 C 
HETATM   25  C2  UNL     1     -31.835   3.006  18.300  1.00  0.00    -0.039 A 
HETATM   26  C1  UNL     1     -30.984   2.662  17.131  1.00  0.00     0.050 C 
HETATM   27  C19 UNL     1     -31.258   3.158  19.532  1.00  0.00     0.046 A 
HETATM   28  C17 UNL     1     -32.023   3.487  20.669  1.00  0.00    -0.027 A 
HETATM   29 CL3  UNL     1     -29.517   2.932  19.667  1.00  0.00    -0.083 Cl
HETATM   30  C18 UNL     1     -31.271   3.664  21.914  1.00  0.00     0.051 C 
ENDBRANCH   1  21
TORSDOF 3
ENDMDL
MODEL 2
REMARK VINA RESULT: -10.085244356      1.822      2.215
REMARK  3 active torsions:
REMARK  status: ('A' for Active; 'I' for Inactive)
REMARK    1  A    between atoms: C6_6  and  C7_7 
REMARK    2  A    between atoms: C9_10  and  N1_11 
REMARK       I    between atoms: N1_11  and  C10_13 
REMARK       I    between atoms: C10_13  and  N2_15 
REMARK    3  A    between atoms: N2_15  and  C11_17 
ROOT
HETATM    1  C7  UNL     1     -34.864   2.688  21.446  1.00  0.00     0.052 A 
HETATM    2  C8  UNL     1     -35.449   1.458  21.666  1.00  0.00     0.083 A 
HETATM    3  S1  UNL     1     -36.638   1.826  22.841  1.00  0.00    -0.063 SA
HETATM    4  C9  UNL     1     -36.331   3.490  22.982  1.00  0.00     0.152 A 
HETATM    5  N3  UNL     1     -35.337   3.691  22.131  1.00  0.00    -0.335 N 
ATOM      6  H3  UNL     1     -34.944   4.625  22.011  1.00  0.00     0.168 HD
ENDROOT
BRANCH   4   7
HETATM    7  N1  UNL     1     -36.918   4.390  23.744  1.00  0.00    -0.288 N 
HETATM    8  C10 UNL     1     -37.325   5.617  23.085  1.00  0.00     0.326 C 
HETATM    9  O1  UNL     1     -38.519   5.904  23.229  1.00  0.00    -0.247 OA
HETATM   10  N2  UNL     1     -36.431   6.389  22.357  1.00  0.00    -0.307 N 
ATOM     11  H2  UNL     1     -35.472   6.042  22.313  1.00  0.00     0.170 HD
ATOM     12  H1  UNL     1     -37.076   4.235  24.740  1.00  0.00     0.172 HD
BRANCH  10  13
HETATM   13  C11 UNL     1     -36.683   7.577  21.681  1.00  0.00     0.059 A 
HETATM   14  C12 UNL     1     -37.521   7.730  20.598  1.00  0.00     0.055 A 
HETATM   15  C13 UNL     1     -37.718   8.958  19.975  1.00  0.00     0.036 A 
HETATM   16 CL1  UNL     1     -38.801   9.064  18.604  1.00  0.00    -0.084 Cl
HETATM   17  C14 UNL     1     -37.071  10.087  20.431  1.00  0.00     0.026 A 
HETATM   18  C15 UNL     1     -36.228   9.971  21.508  1.00  0.00     0.028 A 
HETATM   19  C16 UNL     1     -36.042   8.749  22.113  1.00  0.00     0.060 A 
HETATM   20 CL2  UNL     1     -34.961   8.640  23.483  1.00  0.00    -0.082 Cl
ENDBRANCH  10  13
ENDBRANCH   4   7
BRANCH   1  21
HETATM   21  C6  UNL     1     -33.828   2.804  20.374  1.00  0.00     0.005 A 
HETATM   22  C4  UNL     1     -34.148   2.900  19.046  1.00  0.00    -0.048 A 
HETATM   23  C3  UNL     1     -33.177   3.122  18.055  1.00  0.00     0.016 A 
HETATM   24  C5  UNL     1     -35.555   2.687  18.595  1.00  0.00     0.049 C 
HETATM   25  C2  UNL     1     -31.855   3.252  18.377  1.00  0.00    -0.039 A 
HETATM   26  C1  UNL     1     -30.791   3.488  17.367  1.00  0.00     0.050 C 
HETATM   27  C19 UNL     1     -31.519   3.155  19.700  1.00  0.00     0.046 A 
HETATM   28  C17 UNL     1     -32.493   2.934  20.694  1.00  0.00    -0.027 A 
HETATM   29 CL3  UNL     1     -29.821   3.316  20.140  1.00  0.00    -0.083 Cl
HETATM   30  C18 UNL     1     -32.000   2.899  22.073  1.00  0.00     0.051 C 
ENDBRANCH   1  21
TORSDOF 3
ENDMDL
MODEL 3
REMARK VINA RESULT: -9.644142285      2.065      2.868
REMARK  3 active torsions:
REMARK  status: ('A' for Active; 'I' for Inactive)
REMARK    1  A    between atoms: C6_6  and  C7_7 
REMARK    2  A    between atoms: C9_10  and  N1_11 
REMARK       I    between atoms: N1_11  and  C10_13 
REMARK       I    between atoms: C10_13  and  N2_15 
REMARK    3  A    between atoms: N2_15  and  C11_17 
ROOT
HETATM    1  C7  UNL     1     -34.723   3.306  21.656  1.00  0.00     0.052 A 
HETATM    2  C8  UNL     1     -34.962   2.354  22.625  1.00  0.00     0.083 A 
HETATM    3  S1  UNL     1     -36.655   2.471  22.840  1.00  0.00    -0.063 SA
HETATM    4  C9  UNL     1     -36.958   3.699  21.707  1.00  0.00     0.152 A 
HETATM    5  N3  UNL     1     -35.757   3.966  21.217  1.00  0.00    -0.335 N 
ATOM      6  H3  UNL     1     -35.643   4.684  20.500  1.00  0.00     0.168 HD
ENDROOT
BRANCH   4   7
HETATM    7  N1  UNL     1     -38.097   4.271  21.373  1.00  0.00    -0.288 N 
HETATM    8  C10 UNL     1     -37.997   5.577  20.749  1.00  0.00     0.326 C 
HETATM    9  O1  UNL     1     -38.569   5.668  19.656  1.00  0.00    -0.247 OA
HETATM   10  N2  UNL     1     -37.309   6.623  21.347  1.00  0.00    -0.307 N 
ATOM     11  H2  UNL     1     -36.878   6.419  22.249  1.00  0.00     0.170 HD
ATOM     12  H1  UNL     1     -38.997   3.823  21.543  1.00  0.00     0.172 HD
BRANCH  10  13
HETATM   13  C11 UNL     1     -37.134   7.916  20.864  1.00  0.00     0.059 A 
HETATM   14  C12 UNL     1     -37.965   8.568  19.981  1.00  0.00     0.055 A 
HETATM   15  C13 UNL     1     -37.719   9.866  19.545  1.00  0.00     0.036 A 
HETATM   16 CL1  UNL     1     -38.826  10.623  18.420  1.00  0.00    -0.084 Cl
HETATM   17  C14 UNL     1     -36.613  10.558  19.994  1.00  0.00     0.026 A 
HETATM   18  C15 UNL     1     -35.763   9.937  20.875  1.00  0.00     0.028 A 
HETATM   19  C16 UNL     1     -36.020   8.653  21.296  1.00  0.00     0.060 A 
HETATM   20 CL2  UNL     1     -34.915   7.895  22.420  1.00  0.00    -0.082 Cl
ENDBRANCH  10  13
ENDBRANCH   4   7
BRANCH   1  21
HETATM   21  C6  UNL     1     -33.338   3.431  21.104  1.00  0.00     0.005 A 
HETATM   22  C4  UNL     1     -32.312   4.001  21.809  1.00  0.00    -0.048 A 
HETATM   23  C3  UNL     1     -30.991   4.013  21.330  1.00  0.00     0.016 A 
HETATM   24  C5  UNL     1     -32.585   4.711  23.093  1.00  0.00     0.049 C 
HETATM   25  C2  UNL     1     -30.669   3.452  20.127  1.00  0.00    -0.039 A 
HETATM   26  C1  UNL     1     -29.289   3.439  19.577  1.00  0.00     0.050 C 
HETATM   27  C19 UNL     1     -31.685   2.880  19.409  1.00  0.00     0.046 A 
HETATM   28  C17 UNL     1     -33.010   2.866  19.889  1.00  0.00    -0.027 A 
HETATM   29 CL3  UNL     1     -31.297   2.153  17.853  1.00  0.00    -0.083 Cl
HETATM   30  C18 UNL     1     -33.988   2.181  19.041  1.00  0.00     0.051 C 
ENDBRANCH   1  21
TORSDOF 3
ENDMDL
MODEL 4
REMARK VINA RESULT: -9.482278735      2.374      7.665
REMARK  3 active torsions:
REMARK  status: ('A' for Active; 'I' for Inactive)
REMARK    1  A    between atoms: C6_6  and  C7_7 
REMARK    2  A    between atoms: C9_10  and  N1_11 
REMARK       I    between atoms: N1_11  and  C10_13 
REMARK       I    between atoms: C10_13  and  N2_15 
REMARK    3  A    between atoms: N2_15  and  C11_17 
ROOT
HETATM    1  C7  UNL     1     -37.378   6.397  21.955  1.00  0.00     0.052 A 
HETATM    2  C8  UNL     1     -37.836   6.268  23.250  1.00  0.00     0.083 A 
HETATM    3  S1  UNL     1     -37.726   4.581  23.509  1.00  0.00    -0.063 SA
HETATM    4  C9  UNL     1     -37.114   4.142  21.988  1.00  0.00     0.152 A 
HETATM    5  N3  UNL     1     -37.023   5.299  21.349  1.00  0.00    -0.335 N 
ATOM      6  H3  UNL     1     -36.677   5.330  20.390  1.00  0.00     0.168 HD
ENDROOT
BRANCH   4   7
HETATM    7  N1  UNL     1     -36.799   2.951  21.521  1.00  0.00    -0.288 N 
HETATM    8  C10 UNL     1     -35.382   2.654  21.431  1.00  0.00     0.326 C 
HETATM    9  O1  UNL     1     -35.037   1.620  22.014  1.00  0.00    -0.247 OA
HETATM   10  N2  UNL     1     -34.503   3.479  20.744  1.00  0.00    -0.307 N 
ATOM     11  H2  UNL     1     -34.913   4.305  20.307  1.00  0.00     0.170 HD
ATOM     12  H1  UNL     1     -37.510   2.277  21.238  1.00  0.00     0.172 HD
BRANCH  10  13
HETATM   13  C11 UNL     1     -33.132   3.317  20.579  1.00  0.00     0.059 A 
HETATM   14  C12 UNL     1     -32.515   2.655  19.541  1.00  0.00     0.055 A 
HETATM   15  C13 UNL     1     -31.132   2.536  19.450  1.00  0.00     0.036 A 
HETATM   16 CL1  UNL     1     -30.428   1.679  18.096  1.00  0.00    -0.084 Cl
HETATM   17  C14 UNL     1     -30.316   3.088  20.415  1.00  0.00     0.026 A 
HETATM   18  C15 UNL     1     -30.898   3.754  21.465  1.00  0.00     0.028 A 
HETATM   19  C16 UNL     1     -32.267   3.863  21.542  1.00  0.00     0.060 A 
HETATM   20 CL2  UNL     1     -32.973   4.719  22.893  1.00  0.00    -0.082 Cl
ENDBRANCH  10  13
ENDBRANCH   4   7
BRANCH   1  21
HETATM   21  C6  UNL     1     -37.214   7.771  21.389  1.00  0.00     0.005 A 
HETATM   22  C4  UNL     1     -36.192   8.604  21.759  1.00  0.00    -0.048 A 
HETATM   23  C3  UNL     1     -35.978   9.848  21.141  1.00  0.00     0.016 A 
HETATM   24  C5  UNL     1     -35.308   8.244  22.907  1.00  0.00     0.049 C 
HETATM   25  C2  UNL     1     -36.791  10.286  20.134  1.00  0.00    -0.039 A 
HETATM   26  C1  UNL     1     -36.607  11.592  19.449  1.00  0.00     0.050 C 
HETATM   27  C19 UNL     1     -37.818   9.466  19.754  1.00  0.00     0.046 A 
HETATM   28  C17 UNL     1     -38.032   8.217  20.372  1.00  0.00    -0.027 A 
HETATM   29 CL3  UNL     1     -38.880  10.009  18.459  1.00  0.00    -0.083 Cl
HETATM   30  C18 UNL     1     -39.139   7.422  19.836  1.00  0.00     0.051 C 
ENDBRANCH   1  21
TORSDOF 3
ENDMDL
MODEL 5
REMARK VINA RESULT: -9.446308959      2.080      7.242
REMARK  3 active torsions:
REMARK  status: ('A' for Active; 'I' for Inactive)
REMARK    1  A    between atoms: C6_6  and  C7_7 
REMARK    2  A    between atoms: C9_10  and  N1_11 
REMARK       I    between atoms: N1_11  and  C10_13 
REMARK       I    between atoms: C10_13  and  N2_15 
REMARK    3  A    between atoms: N2_15  and  C11_17 
ROOT
HETATM    1  C7  UNL     1     -36.858   6.189  22.427  1.00  0.00     0.052 A 
HETATM    2  C8  UNL     1     -37.988   5.702  23.051  1.00  0.00     0.083 A 
HETATM    3  S1  UNL     1     -37.413   4.261  23.772  1.00  0.00    -0.063 SA
HETATM    4  C9  UNL     1     -35.800   4.357  23.252  1.00  0.00     0.152 A 
HETATM    5  N3  UNL     1     -35.770   5.481  22.551  1.00  0.00    -0.335 N 
ATOM      6  H3  UNL     1     -34.903   5.791  22.112  1.00  0.00     0.168 HD
ENDROOT
BRANCH   4   7
HETATM    7  N1  UNL     1     -34.796   3.533  23.471  1.00  0.00    -0.288 N 
HETATM    8  C10 UNL     1     -33.737   3.538  22.480  1.00  0.00     0.326 C 
HETATM    9  O1  UNL     1     -32.607   3.740  22.937  1.00  0.00    -0.247 OA
HETATM   10  N2  UNL     1     -33.996   3.330  21.132  1.00  0.00    -0.307 N 
ATOM     11  H2  UNL     1     -34.973   3.176  20.882  1.00  0.00     0.170 HD
ATOM     12  H1  UNL     1     -34.764   2.927  24.291  1.00  0.00     0.172 HD
BRANCH  10  13
HETATM   13  C11 UNL     1     -33.085   3.308  20.082  1.00  0.00     0.059 A 
HETATM   14  C12 UNL     1     -31.713   3.266  20.201  1.00  0.00     0.055 A 
HETATM   15  C13 UNL     1     -30.868   3.248  19.096  1.00  0.00     0.036 A 
HETATM   16 CL1  UNL     1     -29.136   3.194  19.337  1.00  0.00    -0.084 Cl
HETATM   17  C14 UNL     1     -31.386   3.270  17.818  1.00  0.00     0.026 A 
HETATM   18  C15 UNL     1     -32.749   3.313  17.662  1.00  0.00     0.028 A 
HETATM   19  C16 UNL     1     -33.572   3.332  18.765  1.00  0.00     0.060 A 
HETATM   20 CL2  UNL     1     -35.303   3.385  18.527  1.00  0.00    -0.082 Cl
ENDBRANCH  10  13
ENDBRANCH   4   7
BRANCH   1  21
HETATM   21  C6  UNL     1     -36.929   7.528  21.765  1.00  0.00     0.005 A 
HETATM   22  C4  UNL     1     -36.143   8.582  22.146  1.00  0.00    -0.048 A 
HETATM   23  C3  UNL     1     -36.134   9.801  21.447  1.00  0.00     0.016 A 
HETATM   24  C5  UNL     1     -35.316   8.494  23.386  1.00  0.00     0.049 C 
HETATM   25  C2  UNL     1     -36.919   9.991  20.346  1.00  0.00    -0.039 A 
HETATM   26  C1  UNL     1     -36.946  11.260  19.572  1.00  0.00     0.050 C 
HETATM   27  C19 UNL     1     -37.713   8.947  19.953  1.00  0.00     0.046 A 
HETATM   28  C17 UNL     1     -37.721   7.724  20.653  1.00  0.00    -0.027 A 
HETATM   29 CL3  UNL     1     -38.737   9.167  18.538  1.00  0.00    -0.083 Cl
HETATM   30  C18 UNL     1     -38.582   6.677  20.097  1.00  0.00     0.051 C 
ENDBRANCH   1  21
TORSDOF 3
ENDMDL
