MODEL 1
REMARK VINA RESULT: -8.444348408      0.000      0.000
REMARK  10 active torsions:
REMARK  status: ('A' for Active; 'I' for Inactive)
REMARK    1  A    between atoms: C2_2  and  C3_3 
REMARK       I    between atoms: C3_3  and  N1_5 
REMARK    2  A    between atoms: N1_5  and  C4_7 
REMARK    3  A    between atoms: C4_7  and  C6_9 
REMARK    4  A    between atoms: C6_9  and  C7_10 
REMARK    5  A    between atoms: C6_9  and  N4_24 
REMARK    6  A    between atoms: C7_10  and  C8_11 
REMARK       I    between atoms: C8_11  and  N2_13 
REMARK    7  A    between atoms: N2_13  and  C9_15 
REMARK    8  A    between atoms: C9_15  and  C10_16 
REMARK       I    between atoms: N4_24  and  C15_26 
REMARK       I    between atoms: C15_26  and  N5_28 
REMARK    9  A    between atoms: N5_28  and  C16_30 
REMARK   10  A    between atoms: C16_30  and  C18_32 
ROOT
HETATM    1  C6  UNL     1      71.150  36.257  -0.126  1.00  0.00     0.117 C 
ENDROOT
BRANCH   1   2
HETATM    2  C4  UNL     1      71.528  34.876   0.436  1.00  0.00     0.103 C 
HETATM    3  C5  UNL     1      70.340  33.975   0.189  1.00  0.00     0.034 C 
BRANCH   2   4
HETATM    4  N1  UNL     1      72.732  34.383  -0.151  1.00  0.00    -0.355 N 
HETATM    5  C3  UNL     1      73.850  34.110   0.670  1.00  0.00     0.217 C 
HETATM    6  O1  UNL     1      73.783  34.299   1.906  1.00  0.00    -0.274 OA
ATOM      7  H1  UNL     1      72.785  34.228  -1.158  1.00  0.00     0.162 HD
BRANCH   5   8
HETATM    8  C2  UNL     1      75.090  33.604   0.081  1.00  0.00     0.098 C 
HETATM    9  C1  UNL     1      76.317  33.978   0.848  1.00  0.00     0.014 C 
ENDBRANCH   5   8
ENDBRANCH   2   4
ENDBRANCH   1   2
BRANCH   1  10
HETATM   10  C7  UNL     1      71.406  37.240   0.955  1.00  0.00     0.130 C 
BRANCH  10  11
HETATM   11  C8  UNL     1      70.315  37.453   1.910  1.00  0.00     0.219 C 
HETATM   12  O2  UNL     1      69.475  38.343   1.704  1.00  0.00    -0.274 OA
HETATM   13  N2  UNL     1      70.234  36.645   3.049  1.00  0.00    -0.361 N 
ATOM     14  H2  UNL     1      70.933  35.917   3.197  1.00  0.00     0.162 HD
BRANCH  13  15
HETATM   15  C9  UNL     1      69.186  36.822   4.016  1.00  0.00     0.127 C 
BRANCH  15  16
HETATM   16  C10 UNL     1      68.193  35.723   3.922  1.00  0.00     0.006 C 
HETATM   17  C11 UNL     1      66.980  36.203   3.110  1.00  0.00     0.034 C 
HETATM   18  C12 UNL     1      66.222  34.972   2.697  1.00  0.00     0.232 C 
HETATM   19  N3  UNL     1      66.273  33.976   3.732  1.00  0.00    -0.075 N 
HETATM   20  C13 UNL     1      66.337  34.563   5.062  1.00  0.00     0.232 C 
ATOM     21  H32 UNL     1      65.491  33.324   3.655  1.00  0.00     0.277 HD
ATOM     22  H31 UNL     1      67.043  33.325   3.579  1.00  0.00     0.277 HD
HETATM   23  C14 UNL     1      67.619  35.337   5.276  1.00  0.00     0.034 C 
ENDBRANCH  15  16
ENDBRANCH  13  15
ENDBRANCH  10  11
ENDBRANCH   1  10
BRANCH   1  24
HETATM   24  N4  UNL     1      71.803  36.520  -1.360  1.00  0.00    -0.336 N 
HETATM   25  C15 UNL     1      71.160  37.240  -2.391  1.00  0.00     0.316 C 
HETATM   26  O3  UNL     1      69.987  37.659  -2.226  1.00  0.00    -0.247 OA
HETATM   27  N5  UNL     1      71.789  37.520  -3.643  1.00  0.00    -0.339 N 
ATOM     28  H5  UNL     1      72.741  37.189  -3.801  1.00  0.00     0.164 HD
ATOM     29  H4  UNL     1      72.755  36.182  -1.504  1.00  0.00     0.164 HD
BRANCH  27  30
HETATM   30  C16 UNL     1      71.125  38.255  -4.687  1.00  0.00     0.081 C 
HETATM   31  C17 UNL     1      71.369  39.725  -4.597  1.00  0.00     0.032 C 
BRANCH  30  32
HETATM   32  C18 UNL     1      71.450  37.682  -6.039  1.00  0.00     0.020 C 
HETATM   33  C19 UNL     1      71.782  38.760  -7.048  1.00  0.00     0.007 C 
ENDBRANCH  30  32
ENDBRANCH  27  30
ENDBRANCH   1  24
TORSDOF 10
ENDMDL
MODEL 2
REMARK VINA RESULT: -8.242448812      0.876      1.312
REMARK  10 active torsions:
REMARK  status: ('A' for Active; 'I' for Inactive)
REMARK    1  A    between atoms: C2_2  and  C3_3 
REMARK       I    between atoms: C3_3  and  N1_5 
REMARK    2  A    between atoms: N1_5  and  C4_7 
REMARK    3  A    between atoms: C4_7  and  C6_9 
REMARK    4  A    between atoms: C6_9  and  C7_10 
REMARK    5  A    between atoms: C6_9  and  N4_24 
REMARK    6  A    between atoms: C7_10  and  C8_11 
REMARK       I    between atoms: C8_11  and  N2_13 
REMARK    7  A    between atoms: N2_13  and  C9_15 
REMARK    8  A    between atoms: C9_15  and  C10_16 
REMARK       I    between atoms: N4_24  and  C15_26 
REMARK       I    between atoms: C15_26  and  N5_28 
REMARK    9  A    between atoms: N5_28  and  C16_30 
REMARK   10  A    between atoms: C16_30  and  C18_32 
ROOT
HETATM    1  C6  UNL     1      71.203  35.697   0.485  1.00  0.00     0.117 C 
ENDROOT
BRANCH   1   2
HETATM    2  C4  UNL     1      71.811  34.401   1.048  1.00  0.00     0.103 C 
HETATM    3  C5  UNL     1      70.745  33.337   0.916  1.00  0.00     0.034 C 
BRANCH   2   4
HETATM    4  N1  UNL     1      73.025  34.058   0.379  1.00  0.00    -0.355 N 
HETATM    5  C3  UNL     1      74.264  34.257   1.030  1.00  0.00     0.217 C 
HETATM    6  O1  UNL     1      74.295  34.731   2.188  1.00  0.00    -0.274 OA
ATOM      7  H1  UNL     1      72.998  33.670  -0.565  1.00  0.00     0.162 HD
BRANCH   5   8
HETATM    8  C2  UNL     1      75.515  33.910   0.355  1.00  0.00     0.098 C 
HETATM    9  C1  UNL     1      76.731  34.120   1.198  1.00  0.00     0.014 C 
ENDBRANCH   5   8
ENDBRANCH   2   4
ENDBRANCH   1   2
BRANCH   1  10
HETATM   10  C7  UNL     1      71.217  36.686   1.591  1.00  0.00     0.130 C 
BRANCH  10  11
HETATM   11  C8  UNL     1      69.915  37.222   1.998  1.00  0.00     0.219 C 
HETATM   12  O2  UNL     1      69.652  38.421   1.812  1.00  0.00    -0.274 OA
HETATM   13  N2  UNL     1      68.980  36.371   2.595  1.00  0.00    -0.361 N 
ATOM     14  H2  UNL     1      69.215  35.388   2.735  1.00  0.00     0.162 HD
BRANCH  13  15
HETATM   15  C9  UNL     1      67.694  36.854   3.016  1.00  0.00     0.127 C 
BRANCH  15  16
HETATM   16  C10 UNL     1      66.773  35.724   3.298  1.00  0.00     0.006 C 
HETATM   17  C11 UNL     1      67.259  34.974   4.547  1.00  0.00     0.034 C 
HETATM   18  C12 UNL     1      66.106  34.133   5.021  1.00  0.00     0.232 C 
HETATM   19  N3  UNL     1      65.355  33.627   3.905  1.00  0.00    -0.075 N 
HETATM   20  C13 UNL     1      66.192  33.392   2.738  1.00  0.00     0.232 C 
ATOM     21  H32 UNL     1      64.836  32.788   4.160  1.00  0.00     0.277 HD
ATOM     22  H31 UNL     1      64.572  34.241   3.679  1.00  0.00     0.277 HD
HETATM   23  C14 UNL     1      66.779  34.677   2.196  1.00  0.00     0.034 C 
ENDBRANCH  15  16
ENDBRANCH  13  15
ENDBRANCH  10  11
ENDBRANCH   1  10
BRANCH   1  24
HETATM   24  N4  UNL     1      71.851  36.107  -0.711  1.00  0.00    -0.336 N 
HETATM   25  C15 UNL     1      71.173  36.872  -1.686  1.00  0.00     0.316 C 
HETATM   26  O3  UNL     1      69.975  37.202  -1.503  1.00  0.00    -0.247 OA
HETATM   27  N5  UNL     1      71.796  37.300  -2.898  1.00  0.00    -0.339 N 
ATOM     28  H5  UNL     1      72.768  37.044  -3.070  1.00  0.00     0.164 HD
ATOM     29  H4  UNL     1      72.824  35.843  -0.869  1.00  0.00     0.164 HD
BRANCH  27  30
HETATM   30  C16 UNL     1      71.096  38.080  -3.885  1.00  0.00     0.081 C 
HETATM   31  C17 UNL     1      71.313  39.547  -3.713  1.00  0.00     0.032 C 
BRANCH  30  32
HETATM   32  C18 UNL     1      71.406  37.595  -5.274  1.00  0.00     0.020 C 
HETATM   33  C19 UNL     1      71.468  38.730  -6.273  1.00  0.00     0.007 C 
ENDBRANCH  30  32
ENDBRANCH  27  30
ENDBRANCH   1  24
TORSDOF 10
ENDMDL
MODEL 3
REMARK VINA RESULT: -8.215420564      2.191      5.671
REMARK  10 active torsions:
REMARK  status: ('A' for Active; 'I' for Inactive)
REMARK    1  A    between atoms: C2_2  and  C3_3 
REMARK       I    between atoms: C3_3  and  N1_5 
REMARK    2  A    between atoms: N1_5  and  C4_7 
REMARK    3  A    between atoms: C4_7  and  C6_9 
REMARK    4  A    between atoms: C6_9  and  C7_10 
REMARK    5  A    between atoms: C6_9  and  N4_24 
REMARK    6  A    between atoms: C7_10  and  C8_11 
REMARK       I    between atoms: C8_11  and  N2_13 
REMARK    7  A    between atoms: N2_13  and  C9_15 
REMARK    8  A    between atoms: C9_15  and  C10_16 
REMARK       I    between atoms: N4_24  and  C15_26 
REMARK       I    between atoms: C15_26  and  N5_28 
REMARK    9  A    between atoms: N5_28  and  C16_30 
REMARK   10  A    between atoms: C16_30  and  C18_32 
ROOT
HETATM    1  C6  UNL     1      70.392  35.722   0.546  1.00  0.00     0.117 C 
ENDROOT
BRANCH   1   2
HETATM    2  C4  UNL     1      71.224  36.859  -0.069  1.00  0.00     0.103 C 
HETATM    3  C5  UNL     1      72.531  36.892   0.690  1.00  0.00     0.034 C 
BRANCH   2   4
HETATM    4  N1  UNL     1      71.402  36.678  -1.474  1.00  0.00    -0.355 N 
HETATM    5  C3  UNL     1      70.905  37.649  -2.374  1.00  0.00     0.217 C 
HETATM    6  O1  UNL     1      70.313  38.663  -1.939  1.00  0.00    -0.274 OA
ATOM      7  H1  UNL     1      71.885  35.851  -1.827  1.00  0.00     0.162 HD
BRANCH   5   8
HETATM    8  C2  UNL     1      71.080  37.475  -3.816  1.00  0.00     0.098 C 
HETATM    9  C1  UNL     1      71.306  38.755  -4.553  1.00  0.00     0.014 C 
ENDBRANCH   5   8
ENDBRANCH   2   4
ENDBRANCH   1   2
BRANCH   1  10
HETATM   10  C7  UNL     1      68.969  36.126   0.430  1.00  0.00     0.130 C 
BRANCH  10  11
HETATM   11  C8  UNL     1      68.255  36.357   1.689  1.00  0.00     0.219 C 
HETATM   12  O2  UNL     1      67.390  37.244   1.758  1.00  0.00    -0.274 OA
HETATM   13  N2  UNL     1      68.561  35.570   2.804  1.00  0.00    -0.361 N 
ATOM     14  H2  UNL     1      69.273  34.844   2.724  1.00  0.00     0.162 HD
BRANCH  13  15
HETATM   15  C9  UNL     1      67.891  35.765   4.060  1.00  0.00     0.127 C 
BRANCH  15  16
HETATM   16  C10 UNL     1      66.814  34.760   4.244  1.00  0.00     0.006 C 
HETATM   17  C11 UNL     1      65.453  35.472   4.258  1.00  0.00     0.034 C 
HETATM   18  C12 UNL     1      64.410  34.414   4.028  1.00  0.00     0.232 C 
HETATM   19  N3  UNL     1      64.787  33.184   4.670  1.00  0.00    -0.075 N 
HETATM   20  C13 UNL     1      65.559  33.408   5.883  1.00  0.00     0.232 C 
ATOM     21  H32 UNL     1      63.971  32.601   4.856  1.00  0.00     0.277 HD
ATOM     22  H31 UNL     1      65.283  32.570   4.026  1.00  0.00     0.277 HD
HETATM   23  C14 UNL     1      66.893  34.059   5.591  1.00  0.00     0.034 C 
ENDBRANCH  15  16
ENDBRANCH  13  15
ENDBRANCH  10  11
ENDBRANCH   1  10
BRANCH   1  24
HETATM   24  N4  UNL     1      70.719  34.462  -0.024  1.00  0.00    -0.336 N 
HETATM   25  C15 UNL     1      70.841  33.305   0.777  1.00  0.00     0.316 C 
HETATM   26  O3  UNL     1      70.662  33.379   2.018  1.00  0.00    -0.247 OA
HETATM   27  N5  UNL     1      71.168  32.024   0.234  1.00  0.00    -0.339 N 
ATOM     28  H5  UNL     1      71.320  31.939  -0.771  1.00  0.00     0.164 HD
ATOM     29  H4  UNL     1      70.867  34.392  -1.031  1.00  0.00     0.164 HD
BRANCH  27  30
HETATM   30  C16 UNL     1      71.291  30.851   1.060  1.00  0.00     0.081 C 
HETATM   31  C17 UNL     1      70.791  29.620   0.381  1.00  0.00     0.032 C 
BRANCH  30  32
HETATM   32  C18 UNL     1      72.691  30.709   1.588  1.00  0.00     0.020 C 
HETATM   33  C19 UNL     1      73.359  29.443   1.097  1.00  0.00     0.007 C 
ENDBRANCH  30  32
ENDBRANCH  27  30
ENDBRANCH   1  24
TORSDOF 10
ENDMDL
MODEL 4
REMARK VINA RESULT: -8.209703688      1.847      8.299
REMARK  10 active torsions:
REMARK  status: ('A' for Active; 'I' for Inactive)
REMARK    1  A    between atoms: C2_2  and  C3_3 
REMARK       I    between atoms: C3_3  and  N1_5 
REMARK    2  A    between atoms: N1_5  and  C4_7 
REMARK    3  A    between atoms: C4_7  and  C6_9 
REMARK    4  A    between atoms: C6_9  and  C7_10 
REMARK    5  A    between atoms: C6_9  and  N4_24 
REMARK    6  A    between atoms: C7_10  and  C8_11 
REMARK       I    between atoms: C8_11  and  N2_13 
REMARK    7  A    between atoms: N2_13  and  C9_15 
REMARK    8  A    between atoms: C9_15  and  C10_16 
REMARK       I    between atoms: N4_24  and  C15_26 
REMARK       I    between atoms: C15_26  and  N5_28 
REMARK    9  A    between atoms: N5_28  and  C16_30 
REMARK   10  A    between atoms: C16_30  and  C18_32 
ROOT
HETATM    1  C6  UNL     1      70.453  36.970  -0.797  1.00  0.00     0.117 C 
ENDROOT
BRANCH   1   2
HETATM    2  C4  UNL     1      71.950  36.966  -0.443  1.00  0.00     0.103 C 
HETATM    3  C5  UNL     1      72.155  38.078   0.560  1.00  0.00     0.034 C 
BRANCH   2   4
HETATM    4  N1  UNL     1      72.370  35.692   0.045  1.00  0.00    -0.355 N 
HETATM    5  C3  UNL     1      73.705  35.272  -0.152  1.00  0.00     0.217 C 
HETATM    6  O1  UNL     1      74.515  36.015  -0.751  1.00  0.00    -0.274 OA
ATOM      7  H1  UNL     1      71.709  35.087   0.534  1.00  0.00     0.162 HD
BRANCH   5   8
HETATM    8  C2  UNL     1      74.148  33.968   0.344  1.00  0.00     0.098 C 
HETATM    9  C1  UNL     1      75.631  33.855   0.495  1.00  0.00     0.014 C 
ENDBRANCH   5   8
ENDBRANCH   2   4
ENDBRANCH   1   2
BRANCH   1  10
HETATM   10  C7  UNL     1      70.368  37.016  -2.277  1.00  0.00     0.130 C 
BRANCH  10  11
HETATM   11  C8  UNL     1      70.632  38.315  -2.902  1.00  0.00     0.219 C 
HETATM   12  O2  UNL     1      70.200  39.355  -2.380  1.00  0.00    -0.274 OA
HETATM   13  N2  UNL     1      71.372  38.367  -4.088  1.00  0.00    -0.361 N 
ATOM     14  H2  UNL     1      71.721  37.502  -4.498  1.00  0.00     0.162 HD
BRANCH  13  15
HETATM   15  C9  UNL     1      71.650  39.618  -4.739  1.00  0.00     0.127 C 
BRANCH  15  16
HETATM   16  C10 UNL     1      71.303  39.549  -6.181  1.00  0.00     0.006 C 
HETATM   17  C11 UNL     1      71.782  38.206  -6.754  1.00  0.00     0.034 C 
HETATM   18  C12 UNL     1      71.060  38.012  -8.059  1.00  0.00     0.232 C 
HETATM   19  N3  UNL     1      70.892  39.269  -8.736  1.00  0.00    -0.075 N 
HETATM   20  C13 UNL     1      71.982  40.194  -8.464  1.00  0.00     0.232 C 
ATOM     21  H32 UNL     1      70.766  39.133  -9.739  1.00  0.00     0.277 HD
ATOM     22  H31 UNL     1      69.989  39.689  -8.514  1.00  0.00     0.277 HD
HETATM   23  C14 UNL     1      72.029  40.598  -7.007  1.00  0.00     0.034 C 
ENDBRANCH  15  16
ENDBRANCH  13  15
ENDBRANCH  10  11
ENDBRANCH   1  10
BRANCH   1  24
HETATM   24  N4  UNL     1      69.763  35.894  -0.177  1.00  0.00    -0.336 N 
HETATM   25  C15 UNL     1      68.823  36.123   0.852  1.00  0.00     0.316 C 
HETATM   26  O3  UNL     1      68.585  37.296   1.236  1.00  0.00    -0.247 OA
HETATM   27  N5  UNL     1      68.112  35.064   1.495  1.00  0.00    -0.339 N 
ATOM     28  H5  UNL     1      68.288  34.103   1.202  1.00  0.00     0.164 HD
ATOM     29  H4  UNL     1      69.949  34.938  -0.481  1.00  0.00     0.164 HD
BRANCH  27  30
HETATM   30  C16 UNL     1      67.156  35.308   2.543  1.00  0.00     0.081 C 
HETATM   31  C17 UNL     1      65.990  34.379   2.482  1.00  0.00     0.032 C 
BRANCH  30  32
HETATM   32  C18 UNL     1      67.826  35.329   3.889  1.00  0.00     0.020 C 
HETATM   33  C19 UNL     1      66.852  35.057   5.015  1.00  0.00     0.007 C 
ENDBRANCH  30  32
ENDBRANCH  27  30
ENDBRANCH   1  24
TORSDOF 10
ENDMDL
MODEL 5
REMARK VINA RESULT: -8.207997084      2.320      7.188
REMARK  10 active torsions:
REMARK  status: ('A' for Active; 'I' for Inactive)
REMARK    1  A    between atoms: C2_2  and  C3_3 
REMARK       I    between atoms: C3_3  and  N1_5 
REMARK    2  A    between atoms: N1_5  and  C4_7 
REMARK    3  A    between atoms: C4_7  and  C6_9 
REMARK    4  A    between atoms: C6_9  and  C7_10 
REMARK    5  A    between atoms: C6_9  and  N4_24 
REMARK    6  A    between atoms: C7_10  and  C8_11 
REMARK       I    between atoms: C8_11  and  N2_13 
REMARK    7  A    between atoms: N2_13  and  C9_15 
REMARK    8  A    between atoms: C9_15  and  C10_16 
REMARK       I    between atoms: N4_24  and  C15_26 
REMARK       I    between atoms: C15_26  and  N5_28 
REMARK    9  A    between atoms: N5_28  and  C16_30 
REMARK   10  A    between atoms: C16_30  and  C18_32 
ROOT
HETATM    1  C6  UNL     1      68.512  35.769   2.570  1.00  0.00     0.117 C 
ENDROOT
BRANCH   1   2
HETATM    2  C4  UNL     1      67.194  35.081   2.961  1.00  0.00     0.103 C 
HETATM    3  C5  UNL     1      66.638  34.471   1.695  1.00  0.00     0.034 C 
BRANCH   2   4
HETATM    4  N1  UNL     1      67.392  34.122   4.000  1.00  0.00    -0.355 N 
HETATM    5  C3  UNL     1      66.698  34.262   5.224  1.00  0.00     0.217 C 
HETATM    6  O1  UNL     1      65.913  35.223   5.394  1.00  0.00    -0.274 OA
ATOM      7  H1  UNL     1      68.032  33.339   3.861  1.00  0.00     0.162 HD
BRANCH   5   8
HETATM    8  C2  UNL     1      66.892  33.286   6.297  1.00  0.00     0.098 C 
HETATM    9  C1  UNL     1      65.901  32.168   6.279  1.00  0.00     0.014 C 
ENDBRANCH   5   8
ENDBRANCH   2   4
ENDBRANCH   1   2
BRANCH   1  10
HETATM   10  C7  UNL     1      68.500  37.107   3.212  1.00  0.00     0.130 C 
BRANCH  10  11
HETATM   11  C8  UNL     1      69.055  38.210   2.423  1.00  0.00     0.219 C 
HETATM   12  O2  UNL     1      68.464  39.301   2.380  1.00  0.00    -0.274 OA
HETATM   13  N2  UNL     1      70.252  38.019   1.725  1.00  0.00    -0.361 N 
ATOM     14  H2  UNL     1      70.723  37.117   1.778  1.00  0.00     0.162 HD
BRANCH  13  15
HETATM   15  C9  UNL     1      70.829  39.071   0.934  1.00  0.00     0.127 C 
BRANCH  15  16
HETATM   16  C10 UNL     1      71.822  38.524  -0.024  1.00  0.00     0.006 C 
HETATM   17  C11 UNL     1      71.114  38.166  -1.340  1.00  0.00     0.034 C 
HETATM   18  C12 UNL     1      72.187  38.020  -2.382  1.00  0.00     0.232 C 
HETATM   19  N3  UNL     1      73.371  37.438  -1.812  1.00  0.00    -0.075 N 
HETATM   20  C13 UNL     1      73.066  36.513  -0.731  1.00  0.00     0.232 C 
ATOM     21  H32 UNL     1      73.943  36.990  -2.529  1.00  0.00     0.277 HD
ATOM     22  H31 UNL     1      74.026  38.158  -1.508  1.00  0.00     0.277 HD
HETATM   23  C14 UNL     1      72.433  37.215   0.450  1.00  0.00     0.034 C 
ENDBRANCH  15  16
ENDBRANCH  13  15
ENDBRANCH  10  11
ENDBRANCH   1  10
BRANCH   1  24
HETATM   24  N4  UNL     1      69.639  34.958   2.868  1.00  0.00    -0.336 N 
HETATM   25  C15 UNL     1      70.339  34.272   1.850  1.00  0.00     0.316 C 
HETATM   26  O3  UNL     1      69.966  34.373   0.655  1.00  0.00    -0.247 OA
HETATM   27  N5  UNL     1      71.475  33.448   2.117  1.00  0.00    -0.339 N 
ATOM     28  H5  UNL     1      71.797  33.349   3.080  1.00  0.00     0.164 HD
ATOM     29  H4  UNL     1      69.950  34.868   3.836  1.00  0.00     0.164 HD
BRANCH  27  30
HETATM   30  C16 UNL     1      72.181  32.754   1.073  1.00  0.00     0.081 C 
HETATM   31  C17 UNL     1      73.504  33.373   0.766  1.00  0.00     0.032 C 
BRANCH  30  32
HETATM   32  C18 UNL     1      72.270  31.282   1.370  1.00  0.00     0.020 C 
HETATM   33  C19 UNL     1      71.097  30.514   0.802  1.00  0.00     0.007 C 
ENDBRANCH  30  32
ENDBRANCH  27  30
ENDBRANCH   1  24
TORSDOF 10
ENDMDL
