MODEL 1
REMARK VINA RESULT: -8.101457107      0.000      0.000
REMARK  7 active torsions:
REMARK  status: ('A' for Active; 'I' for Inactive)
REMARK    1  A    between atoms: C2_2  and  N1_3 
REMARK    2  A    between atoms: C2_2  and  C8_16 
REMARK    3  A    between atoms: N1_3  and  C3_5 
REMARK    4  A    between atoms: C3_5  and  O1_6 
REMARK    5  A    between atoms: C3_5  and  N2_8 
REMARK       I    between atoms: C8_16  and  N4_18 
REMARK    6  A    between atoms: N4_18  and  N5_20 
REMARK    7  A    between atoms: N5_20  and  C9_22 
ROOT
HETATM    1  N1  UNL     1      39.534   3.848 104.062  1.00  0.00    -0.344 N 
ATOM      2  H1  UNL     1      40.191   4.628 104.078  1.00  0.00     0.164 HD
ENDROOT
BRANCH   1   3
HETATM    3  C2  UNL     1      38.876   3.441 105.281  1.00  0.00     0.174 C 
HETATM    4  C1  UNL     1      39.571   4.180 106.451  1.00  0.00     0.042 C 
BRANCH   3   5
HETATM    5  C8  UNL     1      37.454   3.807 105.314  1.00  0.00     0.258 C 
HETATM    6  O2  UNL     1      37.226   5.026 105.694  1.00  0.00    -0.269 OA
HETATM    7  N4  UNL     1      36.367   2.961 104.972  1.00  0.00    -0.266 N 
ATOM      8  H4  UNL     1      36.576   2.009 104.672  1.00  0.00     0.190 HD
BRANCH   7   9
HETATM    9  N5  UNL     1      35.034   3.353 105.024  1.00  0.00    -0.276 N 
ATOM     10  H5  UNL     1      34.523   3.256 105.902  1.00  0.00     0.189 HD
BRANCH   9  11
HETATM   11  C9  UNL     1      34.359   3.886 103.885  1.00  0.00     0.199 C 
HETATM   12  N6  UNL     1      33.877   3.036 102.836  1.00  0.00    -0.068 NA
HETATM   13  S1  UNL     1      34.126   5.490 103.754  1.00  0.00    -0.043 SA
ENDBRANCH   9  11
ENDBRANCH   7   9
ENDBRANCH   3   5
ENDBRANCH   1   3
BRANCH   1  14
HETATM   14  C3  UNL     1      39.275   3.180 102.859  1.00  0.00     0.215 C 
BRANCH  14  15
HETATM   15  O1  UNL     1      38.575   3.803 101.951  1.00  0.00    -0.333 OA
ATOM     16  H1  UNL     1      38.642   4.750 101.909  1.00  0.00     0.220 HD
ENDBRANCH  14  15
BRANCH  14  17
HETATM   17  N2  UNL     1      39.692   1.872 102.503  1.00  0.00    -0.344 N 
HETATM   18  C4  UNL     1      40.818   1.720 101.613  1.00  0.00     0.154 C 
HETATM   19  C5  UNL     1      41.231   0.273 101.578  1.00  0.00     0.252 C 
HETATM   20  N3  UNL     1      40.031  -0.510 101.323  1.00  0.00    -0.072 N 
HETATM   21  C6  UNL     1      39.266  -0.565 102.552  1.00  0.00     0.252 C 
ATOM     22  H32 UNL     1      39.489  -0.157 100.536  1.00  0.00     0.277 HD
ATOM     23  H31 UNL     1      40.235  -1.434 100.944  1.00  0.00     0.277 HD
HETATM   24  C7  UNL     1      38.944   0.777 103.102  1.00  0.00     0.154 C 
ENDBRANCH  14  17
ENDBRANCH   1  14
TORSDOF 7
ENDMDL
MODEL 2
REMARK VINA RESULT: -7.866072995      1.292      1.292
REMARK  7 active torsions:
REMARK  status: ('A' for Active; 'I' for Inactive)
REMARK    1  A    between atoms: C2_2  and  N1_3 
REMARK    2  A    between atoms: C2_2  and  C8_16 
REMARK    3  A    between atoms: N1_3  and  C3_5 
REMARK    4  A    between atoms: C3_5  and  O1_6 
REMARK    5  A    between atoms: C3_5  and  N2_8 
REMARK       I    between atoms: C8_16  and  N4_18 
REMARK    6  A    between atoms: N4_18  and  N5_20 
REMARK    7  A    between atoms: N5_20  and  C9_22 
ROOT
HETATM    1  N1  UNL     1      39.477   3.875 104.233  1.00  0.00    -0.344 N 
ATOM      2  H1  UNL     1      40.123   4.658 104.129  1.00  0.00     0.164 HD
ENDROOT
BRANCH   1   3
HETATM    3  C2  UNL     1      38.991   3.517 105.545  1.00  0.00     0.174 C 
HETATM    4  C1  UNL     1      39.911   4.208 106.584  1.00  0.00     0.042 C 
BRANCH   3   5
HETATM    5  C8  UNL     1      37.621   3.981 105.794  1.00  0.00     0.258 C 
HETATM    6  O2  UNL     1      37.080   3.494 106.868  1.00  0.00    -0.269 OA
HETATM    7  N4  UNL     1      36.886   4.883 104.983  1.00  0.00    -0.266 N 
ATOM      8  H4  UNL     1      37.337   5.254 104.147  1.00  0.00     0.190 HD
BRANCH   7   9
HETATM    9  N5  UNL     1      35.585   5.291 105.259  1.00  0.00    -0.276 N 
ATOM     10  H5  UNL     1      35.370   5.671 106.181  1.00  0.00     0.189 HD
BRANCH   9  11
HETATM   11  C9  UNL     1      34.542   5.195 104.290  1.00  0.00     0.199 C 
HETATM   12  N6  UNL     1      33.694   6.311 103.991  1.00  0.00    -0.068 NA
HETATM   13  S1  UNL     1      34.291   3.796 103.500  1.00  0.00    -0.043 SA
ENDBRANCH   9  11
ENDBRANCH   7   9
ENDBRANCH   3   5
ENDBRANCH   1   3
BRANCH   1  14
HETATM   14  C3  UNL     1      39.068   3.155 103.105  1.00  0.00     0.215 C 
BRANCH  14  15
HETATM   15  O1  UNL     1      38.118   3.662 102.367  1.00  0.00    -0.333 OA
ATOM     16  H1  UNL     1      38.344   3.962 101.494  1.00  0.00     0.220 HD
ENDBRANCH  14  15
BRANCH  14  17
HETATM   17  N2  UNL     1      39.573   1.907 102.659  1.00  0.00    -0.344 N 
HETATM   18  C4  UNL     1      40.686   1.897 101.739  1.00  0.00     0.154 C 
HETATM   19  C5  UNL     1      41.206   0.491 101.605  1.00  0.00     0.252 C 
HETATM   20  N3  UNL     1      40.062  -0.365 101.326  1.00  0.00    -0.072 N 
HETATM   21  C6  UNL     1      39.334  -0.553 102.563  1.00  0.00     0.252 C 
ATOM     22  H32 UNL     1      39.476  -0.007 100.572  1.00  0.00     0.277 HD
ATOM     23  H31 UNL     1      40.326  -1.246 100.885  1.00  0.00     0.277 HD
HETATM   24  C7  UNL     1      38.925   0.723 103.203  1.00  0.00     0.154 C 
ENDBRANCH  14  17
ENDBRANCH   1  14
TORSDOF 7
ENDMDL
MODEL 3
REMARK VINA RESULT: -7.841401250      0.353      1.210
REMARK  7 active torsions:
REMARK  status: ('A' for Active; 'I' for Inactive)
REMARK    1  A    between atoms: C2_2  and  N1_3 
REMARK    2  A    between atoms: C2_2  and  C8_16 
REMARK    3  A    between atoms: N1_3  and  C3_5 
REMARK    4  A    between atoms: C3_5  and  O1_6 
REMARK    5  A    between atoms: C3_5  and  N2_8 
REMARK       I    between atoms: C8_16  and  N4_18 
REMARK    6  A    between atoms: N4_18  and  N5_20 
REMARK    7  A    between atoms: N5_20  and  C9_22 
ROOT
HETATM    1  N1  UNL     1      39.547   3.876 104.126  1.00  0.00    -0.344 N 
ATOM      2  H1  UNL     1      40.216   4.645 104.173  1.00  0.00     0.164 HD
ENDROOT
BRANCH   1   3
HETATM    3  C2  UNL     1      38.860   3.449 105.322  1.00  0.00     0.174 C 
HETATM    4  C1  UNL     1      39.547   4.145 106.524  1.00  0.00     0.042 C 
BRANCH   3   5
HETATM    5  C8  UNL     1      37.445   3.840 105.339  1.00  0.00     0.258 C 
HETATM    6  O2  UNL     1      37.237   5.081 105.656  1.00  0.00    -0.269 OA
HETATM    7  N4  UNL     1      36.343   2.995 105.044  1.00  0.00    -0.266 N 
ATOM      8  H4  UNL     1      36.536   2.026 104.793  1.00  0.00     0.190 HD
BRANCH   7   9
HETATM    9  N5  UNL     1      35.016   3.411 105.078  1.00  0.00    -0.276 N 
ATOM     10  H5  UNL     1      34.503   3.357 105.958  1.00  0.00     0.189 HD
BRANCH   9  11
HETATM   11  C9  UNL     1      34.353   3.912 103.919  1.00  0.00     0.199 C 
HETATM   12  N6  UNL     1      33.894   3.034 102.883  1.00  0.00    -0.068 NA
HETATM   13  S1  UNL     1      34.104   5.510 103.749  1.00  0.00    -0.043 SA
ENDBRANCH   9  11
ENDBRANCH   7   9
ENDBRANCH   3   5
ENDBRANCH   1   3
BRANCH   1  14
HETATM   14  C3  UNL     1      39.302   3.242 102.903  1.00  0.00     0.215 C 
BRANCH  14  15
HETATM   15  O1  UNL     1      38.826   3.962 101.924  1.00  0.00    -0.333 OA
ATOM     16  H1  UNL     1      39.444   4.419 101.365  1.00  0.00     0.220 HD
ENDBRANCH  14  15
BRANCH  14  17
HETATM   17  N2  UNL     1      39.510   1.873 102.594  1.00  0.00    -0.344 N 
HETATM   18  C4  UNL     1      38.678   0.882 103.235  1.00  0.00     0.154 C 
HETATM   19  C5  UNL     1      38.902  -0.454 102.578  1.00  0.00     0.252 C 
HETATM   20  N3  UNL     1      40.340  -0.674 102.534  1.00  0.00    -0.072 N 
HETATM   21  C6  UNL     1      40.884   0.148 101.474  1.00  0.00     0.252 C 
ATOM     22  H32 UNL     1      40.792  -0.510 103.433  1.00  0.00     0.277 HD
ATOM     23  H31 UNL     1      40.586  -1.659 102.436  1.00  0.00     0.277 HD
HETATM   24  C7  UNL     1      40.551   1.588 101.618  1.00  0.00     0.154 C 
ENDBRANCH  14  17
ENDBRANCH   1  14
TORSDOF 7
ENDMDL
MODEL 4
REMARK VINA RESULT: -7.676591008      1.348      1.778
REMARK  7 active torsions:
REMARK  status: ('A' for Active; 'I' for Inactive)
REMARK    1  A    between atoms: C2_2  and  N1_3 
REMARK    2  A    between atoms: C2_2  and  C8_16 
REMARK    3  A    between atoms: N1_3  and  C3_5 
REMARK    4  A    between atoms: C3_5  and  O1_6 
REMARK    5  A    between atoms: C3_5  and  N2_8 
REMARK       I    between atoms: C8_16  and  N4_18 
REMARK    6  A    between atoms: N4_18  and  N5_20 
REMARK    7  A    between atoms: N5_20  and  C9_22 
ROOT
HETATM    1  N1  UNL     1      39.507   3.792 104.338  1.00  0.00    -0.344 N 
ATOM      2  H1  UNL     1      40.232   4.505 104.251  1.00  0.00     0.164 HD
ENDROOT
BRANCH   1   3
HETATM    3  C2  UNL     1      38.980   3.460 105.640  1.00  0.00     0.174 C 
HETATM    4  C1  UNL     1      39.861   4.179 106.693  1.00  0.00     0.042 C 
BRANCH   3   5
HETATM    5  C8  UNL     1      37.600   3.922 105.834  1.00  0.00     0.258 C 
HETATM    6  O2  UNL     1      36.981   3.355 106.823  1.00  0.00    -0.269 OA
HETATM    7  N4  UNL     1      36.931   4.901 105.054  1.00  0.00    -0.266 N 
ATOM      8  H4  UNL     1      37.443   5.334 104.286  1.00  0.00     0.190 HD
BRANCH   7   9
HETATM    9  N5  UNL     1      35.618   5.303 105.274  1.00  0.00    -0.276 N 
ATOM     10  H5  UNL     1      35.368   5.704 106.179  1.00  0.00     0.189 HD
BRANCH   9  11
HETATM   11  C9  UNL     1      34.611   5.173 104.273  1.00  0.00     0.199 C 
HETATM   12  N6  UNL     1      33.767   6.275 103.914  1.00  0.00    -0.068 NA
HETATM   13  S1  UNL     1      34.396   3.752 103.513  1.00  0.00    -0.043 SA
ENDBRANCH   9  11
ENDBRANCH   7   9
ENDBRANCH   3   5
ENDBRANCH   1   3
BRANCH   1  14
HETATM   14  C3  UNL     1      39.030   3.142 103.193  1.00  0.00     0.215 C 
BRANCH  14  15
HETATM   15  O1  UNL     1      38.210   3.794 102.415  1.00  0.00    -0.333 OA
ATOM     16  H1  UNL     1      37.656   3.291 101.830  1.00  0.00     0.220 HD
ENDBRANCH  14  15
BRANCH  14  17
HETATM   17  N2  UNL     1      39.337   1.823 102.771  1.00  0.00    -0.344 N 
HETATM   18  C4  UNL     1      38.601   0.721 103.344  1.00  0.00     0.154 C 
HETATM   19  C5  UNL     1      38.913  -0.536 102.577  1.00  0.00     0.252 C 
HETATM   20  N3  UNL     1      40.362  -0.637 102.490  1.00  0.00    -0.072 N 
HETATM   21  C6  UNL     1      40.815   0.307 101.490  1.00  0.00     0.252 C 
ATOM     22  H32 UNL     1      40.822  -0.509 103.390  1.00  0.00     0.277 HD
ATOM     23  H31 UNL     1      40.682  -1.588 102.308  1.00  0.00     0.277 HD
HETATM   24  C7  UNL     1      40.373   1.700 101.756  1.00  0.00     0.154 C 
ENDBRANCH  14  17
ENDBRANCH   1  14
TORSDOF 7
ENDMDL
MODEL 5
REMARK VINA RESULT: -6.691699443      2.466      5.572
REMARK  7 active torsions:
REMARK  status: ('A' for Active; 'I' for Inactive)
REMARK    1  A    between atoms: C2_2  and  N1_3 
REMARK    2  A    between atoms: C2_2  and  C8_16 
REMARK    3  A    between atoms: N1_3  and  C3_5 
REMARK    4  A    between atoms: C3_5  and  O1_6 
REMARK    5  A    between atoms: C3_5  and  N2_8 
REMARK       I    between atoms: C8_16  and  N4_18 
REMARK    6  A    between atoms: N4_18  and  N5_20 
REMARK    7  A    between atoms: N5_20  and  C9_22 
ROOT
HETATM    1  N1  UNL     1      37.986   5.215 105.734  1.00  0.00    -0.344 N 
ATOM      2  H1  UNL     1      37.965   6.216 105.930  1.00  0.00     0.164 HD
ENDROOT
BRANCH   1   3
HETATM    3  C2  UNL     1      39.224   4.588 105.337  1.00  0.00     0.174 C 
HETATM    4  C1  UNL     1      39.904   4.053 106.623  1.00  0.00     0.042 C 
BRANCH   3   5
HETATM    5  C8  UNL     1      39.024   3.444 104.438  1.00  0.00     0.258 C 
HETATM    6  O2  UNL     1      38.815   2.317 105.047  1.00  0.00    -0.269 OA
HETATM    7  N4  UNL     1      39.040   3.486 103.020  1.00  0.00    -0.266 N 
ATOM      8  H4  UNL     1      39.201   4.386 102.568  1.00  0.00     0.190 HD
BRANCH   7   9
HETATM    9  N5  UNL     1      38.849   2.372 102.210  1.00  0.00    -0.276 N 
ATOM     10  H5  UNL     1      37.968   2.272 101.705  1.00  0.00     0.189 HD
BRANCH   9  11
HETATM   11  C9  UNL     1      39.849   1.366 102.062  1.00  0.00     0.199 C 
HETATM   12  N6  UNL     1      41.117   1.655 101.459  1.00  0.00    -0.068 NA
HETATM   13  S1  UNL     1      39.564  -0.149 102.579  1.00  0.00    -0.043 SA
ENDBRANCH   9  11
ENDBRANCH   7   9
ENDBRANCH   3   5
ENDBRANCH   1   3
BRANCH   1  14
HETATM   14  C3  UNL     1      36.813   4.459 105.851  1.00  0.00     0.215 C 
BRANCH  14  15
HETATM   15  O1  UNL     1      36.670   3.714 106.913  1.00  0.00    -0.333 OA
ATOM     16  H1  UNL     1      37.376   3.703 107.549  1.00  0.00     0.220 HD
ENDBRANCH  14  15
BRANCH  14  17
HETATM   17  N2  UNL     1      35.739   4.402 104.928  1.00  0.00    -0.344 N 
HETATM   18  C4  UNL     1      35.577   3.214 104.123  1.00  0.00     0.154 C 
HETATM   19  C5  UNL     1      34.250   3.272 103.414  1.00  0.00     0.252 C 
HETATM   20  N3  UNL     1      34.169   4.571 102.763  1.00  0.00    -0.072 N 
HETATM   21  C6  UNL     1      33.879   5.561 103.779  1.00  0.00     0.252 C 
ATOM     22  H32 UNL     1      35.003   4.794 102.220  1.00  0.00     0.277 HD
ATOM     23  H31 UNL     1      33.498   4.587 101.994  1.00  0.00     0.277 HD
HETATM   24  C7  UNL     1      34.862   5.563 104.893  1.00  0.00     0.154 C 
ENDBRANCH  14  17
ENDBRANCH   1  14
TORSDOF 7
ENDMDL
