MODEL 1
REMARK VINA RESULT: -9.262516375      0.000      0.000
REMARK  9 active torsions:
REMARK  status: ('A' for Active; 'I' for Inactive)
REMARK       I    between atoms: C2_4  and  N2_5 
REMARK       I    between atoms: C2_4  and  N3_18 
REMARK    1  A    between atoms: N2_5  and  C3_7 
REMARK    2  A    between atoms: C8_14  and  C9_15 
REMARK    3  A    between atoms: C10_21  and  C11_22 
REMARK    4  A    between atoms: C15_26  and  C16_27 
REMARK    5  A    between atoms: C16_27  and  C17_28 
REMARK    6  A    between atoms: C16_27  and  S1_37 
REMARK    7  A    between atoms: C17_28  and  C18_29 
REMARK    8  A    between atoms: C18_29  and  C19_30 
REMARK    9  A    between atoms: C19_30  and  N5_31 
ROOT
HETATM    1  C1  UNL     1      10.961   4.340   8.226  1.00  0.00     0.165 C 
HETATM    2  N1  UNL     1      11.744   5.402   8.713  1.00  0.00    -0.229 N 
ATOM      3  H1  UNL     1      12.610   5.548   8.194  1.00  0.00     0.177 HD
HETATM    4  C2  UNL     1      11.580   6.207   9.668  1.00  0.00     0.699 C 
HETATM    5  N2  UNL     1      12.558   7.179   9.908  1.00  0.00    -0.189 N 
ATOM      6  H2  UNL     1      12.204   8.116  10.100  1.00  0.00     0.184 HD
HETATM    7  N3  UNL     1      10.383   6.168  10.421  1.00  0.00    -0.089 N 
HETATM    8  N4  UNL     1       9.254   6.751   9.885  1.00  0.00    -0.283 N 
ATOM      9  H4  UNL     1       9.213   7.217   8.978  1.00  0.00     0.188 HD
HETATM   10  C10 UNL     1       8.229   6.618  10.718  1.00  0.00     0.032 A 
HETATM   11  C14 UNL     1       8.724   5.948  11.781  1.00  0.00     0.056 A 
HETATM   12  C15 UNL     1      10.105   5.650  11.609  1.00  0.00     0.072 A 
ENDROOT
BRANCH  12  13
HETATM   13  C16 UNL     1      10.869   4.922  12.646  1.00  0.00     0.160 C 
BRANCH  13  14
HETATM   14  C17 UNL     1      12.288   4.676  12.319  1.00  0.00     0.028 C 
BRANCH  14  15
HETATM   15  C18 UNL     1      13.301   5.054  13.361  1.00  0.00     0.032 C 
BRANCH  15  16
HETATM   16  C19 UNL     1      14.624   4.304  13.187  1.00  0.00     0.272 C 
BRANCH  16  17
HETATM   17  N5  UNL     1      15.731   5.179  13.649  1.00  0.00     0.088 N 
HETATM   18  C20 UNL     1      16.960   4.444  13.436  1.00  0.00     0.272 C 
HETATM   19  C21 UNL     1      17.895   4.548  14.627  1.00  0.00     0.030 C 
HETATM   20  C22 UNL     1      17.272   3.808  15.790  1.00  0.00     0.003 C 
HETATM   21  C23 UNL     1      15.835   4.223  15.891  1.00  0.00     0.030 C 
HETATM   22  C24 UNL     1      15.512   5.423  15.055  1.00  0.00     0.272 C 
ENDBRANCH  16  17
ENDBRANCH  15  16
ENDBRANCH  14  15
ENDBRANCH  13  14
BRANCH  13  23
HETATM   23  S1  UNL     1       9.988   3.518  13.274  1.00  0.00     0.150 S 
HETATM   24  C25 UNL     1       9.216   4.039  14.808  1.00  0.00     0.162 C 
HETATM   25  O1  UNL     1      10.987   2.465  13.761  1.00  0.00    -0.228 OA
HETATM   26  O2  UNL     1       9.092   2.835  12.355  1.00  0.00    -0.228 OA
ENDBRANCH  13  23
ENDBRANCH  12  13
BRANCH   5  27
HETATM   27  C3  UNL     1      13.962   7.053   9.924  1.00  0.00     0.064 A 
HETATM   28  C4  UNL     1      14.561   5.801  10.003  1.00  0.00     0.054 A 
HETATM   29  C5  UNL     1      15.941   5.612  10.037  1.00  0.00     0.037 A 
HETATM   30 CL1  UNL     1      16.612   4.002  10.136  1.00  0.00    -0.084 Cl
HETATM   31  C6  UNL     1      16.767   6.705   9.991  1.00  0.00     0.048 A 
HETATM   32  C7  UNL     1      16.214   7.952   9.914  1.00  0.00     0.049 A 
HETATM   33 CL2  UNL     1      17.228   9.387   9.853  1.00  0.00    -0.083 Cl
HETATM   34  C8  UNL     1      14.808   8.128   9.879  1.00  0.00     0.055 A 
BRANCH  34  35
HETATM   35  C9  UNL     1      14.300   9.510   9.786  1.00  0.00     0.390 C 
HETATM   36  F1  UNL     1      14.781  10.011   8.578  1.00  0.00    -0.209 F 
HETATM   37  F2  UNL     1      14.955  10.279  10.772  1.00  0.00    -0.209 F 
ENDBRANCH  34  35
ENDBRANCH   5  27
BRANCH  10  38
HETATM   38  C11 UNL     1       6.841   7.107  10.512  1.00  0.00     0.029 C 
HETATM   39  C12 UNL     1       6.190   7.502  11.816  1.00  0.00     0.016 C 
HETATM   40  C13 UNL     1       6.028   6.013   9.849  1.00  0.00     0.016 C 
ENDBRANCH  10  38
TORSDOF 9
ENDMDL
MODEL 2
REMARK VINA RESULT: -9.132879445      0.819      1.007
REMARK  9 active torsions:
REMARK  status: ('A' for Active; 'I' for Inactive)
REMARK       I    between atoms: C2_4  and  N2_5 
REMARK       I    between atoms: C2_4  and  N3_18 
REMARK    1  A    between atoms: N2_5  and  C3_7 
REMARK    2  A    between atoms: C8_14  and  C9_15 
REMARK    3  A    between atoms: C10_21  and  C11_22 
REMARK    4  A    between atoms: C15_26  and  C16_27 
REMARK    5  A    between atoms: C16_27  and  C17_28 
REMARK    6  A    between atoms: C16_27  and  S1_37 
REMARK    7  A    between atoms: C17_28  and  C18_29 
REMARK    8  A    between atoms: C18_29  and  C19_30 
REMARK    9  A    between atoms: C19_30  and  N5_31 
ROOT
HETATM    1  C1  UNL     1      11.014   4.367   8.236  1.00  0.00     0.165 C 
HETATM    2  N1  UNL     1      11.797   5.424   8.733  1.00  0.00    -0.229 N 
ATOM      3  H1  UNL     1      12.654   5.586   8.205  1.00  0.00     0.177 HD
HETATM    4  C2  UNL     1      11.643   6.208   9.708  1.00  0.00     0.699 C 
HETATM    5  N2  UNL     1      12.619   7.181   9.953  1.00  0.00    -0.189 N 
ATOM      6  H2  UNL     1      12.261   8.111  10.170  1.00  0.00     0.184 HD
HETATM    7  N3  UNL     1      10.458   6.146  10.478  1.00  0.00    -0.089 N 
HETATM    8  N4  UNL     1       9.318   6.732   9.971  1.00  0.00    -0.283 N 
ATOM      9  H4  UNL     1       9.259   7.216   9.076  1.00  0.00     0.188 HD
HETATM   10  C10 UNL     1       8.306   6.575  10.817  1.00  0.00     0.032 A 
HETATM   11  C14 UNL     1       8.822   5.885  11.858  1.00  0.00     0.056 A 
HETATM   12  C15 UNL     1      10.201   5.601  11.659  1.00  0.00     0.072 A 
ENDROOT
BRANCH  12  13
HETATM   13  C16 UNL     1      10.986   4.856  12.668  1.00  0.00     0.160 C 
BRANCH  13  14
HETATM   14  C17 UNL     1      12.259   4.291  12.178  1.00  0.00     0.028 C 
BRANCH  14  15
HETATM   15  C18 UNL     1      13.522   4.828  12.788  1.00  0.00     0.032 C 
BRANCH  15  16
HETATM   16  C19 UNL     1      13.479   4.821  14.318  1.00  0.00     0.272 C 
BRANCH  16  17
HETATM   17  N5  UNL     1      14.679   5.530  14.830  1.00  0.00     0.088 N 
HETATM   18  C20 UNL     1      15.536   5.776  13.691  1.00  0.00     0.272 C 
HETATM   19  C21 UNL     1      16.989   5.462  13.997  1.00  0.00     0.030 C 
HETATM   20  C22 UNL     1      17.124   3.968  14.188  1.00  0.00     0.003 C 
HETATM   21  C23 UNL     1      16.021   3.511  15.095  1.00  0.00     0.030 C 
HETATM   22  C24 UNL     1      15.316   4.645  15.775  1.00  0.00     0.272 C 
ENDBRANCH  16  17
ENDBRANCH  15  16
ENDBRANCH  14  15
ENDBRANCH  13  14
BRANCH  13  23
HETATM   23  S1  UNL     1       9.985   3.742  13.616  1.00  0.00     0.150 S 
HETATM   24  C25 UNL     1      11.040   2.364  14.074  1.00  0.00     0.162 C 
HETATM   25  O1  UNL     1       8.961   3.069  12.698  1.00  0.00    -0.228 OA
HETATM   26  O2  UNL     1       9.230   4.310  14.721  1.00  0.00    -0.228 OA
ENDBRANCH  13  23
ENDBRANCH  12  13
BRANCH   5  27
HETATM   27  C3  UNL     1      14.024   7.063   9.945  1.00  0.00     0.064 A 
HETATM   28  C4  UNL     1      14.632   5.821  10.074  1.00  0.00     0.054 A 
HETATM   29  C5  UNL     1      16.014   5.641  10.088  1.00  0.00     0.037 A 
HETATM   30 CL1  UNL     1      16.698   4.042  10.254  1.00  0.00    -0.084 Cl
HETATM   31  C6  UNL     1      16.831   6.735   9.968  1.00  0.00     0.048 A 
HETATM   32  C7  UNL     1      16.269   7.973   9.840  1.00  0.00     0.049 A 
HETATM   33 CL2  UNL     1      17.272   9.409   9.684  1.00  0.00    -0.083 Cl
HETATM   34  C8  UNL     1      14.861   8.140   9.827  1.00  0.00     0.055 A 
BRANCH  34  35
HETATM   35  C9  UNL     1      14.342   9.513   9.675  1.00  0.00     0.390 C 
HETATM   36  F1  UNL     1      14.856   9.982   8.468  1.00  0.00    -0.209 F 
HETATM   37  F2  UNL     1      14.957  10.319  10.657  1.00  0.00    -0.209 F 
ENDBRANCH  34  35
ENDBRANCH   5  27
BRANCH  10  38
HETATM   38  C11 UNL     1       6.912   7.059  10.643  1.00  0.00     0.029 C 
HETATM   39  C12 UNL     1       6.270   7.398  11.966  1.00  0.00     0.016 C 
HETATM   40  C13 UNL     1       6.102   5.984   9.946  1.00  0.00     0.016 C 
ENDBRANCH  10  38
TORSDOF 9
ENDMDL
MODEL 3
REMARK VINA RESULT: -8.061667607      2.137      3.116
REMARK  9 active torsions:
REMARK  status: ('A' for Active; 'I' for Inactive)
REMARK       I    between atoms: C2_4  and  N2_5 
REMARK       I    between atoms: C2_4  and  N3_18 
REMARK    1  A    between atoms: N2_5  and  C3_7 
REMARK    2  A    between atoms: C8_14  and  C9_15 
REMARK    3  A    between atoms: C10_21  and  C11_22 
REMARK    4  A    between atoms: C15_26  and  C16_27 
REMARK    5  A    between atoms: C16_27  and  C17_28 
REMARK    6  A    between atoms: C16_27  and  S1_37 
REMARK    7  A    between atoms: C17_28  and  C18_29 
REMARK    8  A    between atoms: C18_29  and  C19_30 
REMARK    9  A    between atoms: C19_30  and  N5_31 
ROOT
HETATM    1  C1  UNL     1      13.963   3.280   9.684  1.00  0.00     0.165 C 
HETATM    2  N1  UNL     1      14.181   4.669   9.704  1.00  0.00    -0.229 N 
ATOM      3  H1  UNL     1      14.812   4.998   8.973  1.00  0.00     0.177 HD
HETATM    4  C2  UNL     1      13.745   5.585  10.451  1.00  0.00     0.699 C 
HETATM    5  N2  UNL     1      14.152   6.903  10.212  1.00  0.00    -0.189 N 
ATOM      6  H2  UNL     1      13.411   7.602  10.256  1.00  0.00     0.184 HD
HETATM    7  N3  UNL     1      12.797   5.280  11.456  1.00  0.00    -0.089 N 
HETATM    8  N4  UNL     1      11.480   5.113  11.083  1.00  0.00    -0.283 N 
ATOM      9  H4  UNL     1      11.129   5.196  10.129  1.00  0.00     0.188 HD
HETATM   10  C10 UNL     1      10.735   4.828  12.145  1.00  0.00     0.032 A 
HETATM   11  C14 UNL     1      11.596   4.818  13.186  1.00  0.00     0.056 A 
HETATM   12  C15 UNL     1      12.924   5.106  12.764  1.00  0.00     0.072 A 
ENDROOT
BRANCH  12  13
HETATM   13  C16 UNL     1      14.043   5.154  13.729  1.00  0.00     0.160 C 
BRANCH  13  14
HETATM   14  C17 UNL     1      15.344   4.696  13.202  1.00  0.00     0.028 C 
BRANCH  14  15
HETATM   15  C18 UNL     1      16.527   5.592  13.435  1.00  0.00     0.032 C 
BRANCH  15  16
HETATM   16  C19 UNL     1      17.709   4.845  14.058  1.00  0.00     0.272 C 
BRANCH  16  17
HETATM   17  N5  UNL     1      17.570   4.883  15.536  1.00  0.00     0.088 N 
HETATM   18  C20 UNL     1      18.710   5.615  16.044  1.00  0.00     0.272 C 
HETATM   19  C21 UNL     1      19.326   4.937  17.254  1.00  0.00     0.030 C 
HETATM   20  C22 UNL     1      19.949   3.634  16.806  1.00  0.00     0.003 C 
HETATM   21  C23 UNL     1      18.962   2.920  15.931  1.00  0.00     0.030 C 
HETATM   22  C24 UNL     1      17.589   3.515  15.994  1.00  0.00     0.272 C 
ENDBRANCH  16  17
ENDBRANCH  15  16
ENDBRANCH  14  15
ENDBRANCH  13  14
BRANCH  13  23
HETATM   23  S1  UNL     1      13.600   4.493  15.313  1.00  0.00     0.150 S 
HETATM   24  C25 UNL     1      13.445   2.716  15.104  1.00  0.00     0.162 C 
HETATM   25  O1  UNL     1      12.164   4.900  15.653  1.00  0.00    -0.228 OA
HETATM   26  O2  UNL     1      14.417   4.893  16.448  1.00  0.00    -0.228 OA
ENDBRANCH  13  23
ENDBRANCH  12  13
BRANCH   5  27
HETATM   27  C3  UNL     1      15.436   7.406   9.921  1.00  0.00     0.064 A 
HETATM   28  C4  UNL     1      16.529   6.552   9.831  1.00  0.00     0.054 A 
HETATM   29  C5  UNL     1      17.824   6.989   9.561  1.00  0.00     0.037 A 
HETATM   30 CL1  UNL     1      19.142   5.847   9.465  1.00  0.00    -0.084 Cl
HETATM   31  C6  UNL     1      18.052   8.328   9.371  1.00  0.00     0.048 A 
HETATM   32  C7  UNL     1      17.002   9.197   9.452  1.00  0.00     0.049 A 
HETATM   33 CL2  UNL     1      17.239  10.924   9.217  1.00  0.00    -0.083 Cl
HETATM   34  C8  UNL     1      15.690   8.737   9.728  1.00  0.00     0.055 A 
BRANCH  34  35
HETATM   35  C9  UNL     1      14.616   9.747   9.788  1.00  0.00     0.390 C 
HETATM   36  F1  UNL     1      14.594  10.354   8.534  1.00  0.00    -0.209 F 
HETATM   37  F2  UNL     1      15.032  10.770  10.666  1.00  0.00    -0.209 F 
ENDBRANCH  34  35
ENDBRANCH   5  27
BRANCH  10  38
HETATM   38  C11 UNL     1       9.271   4.577  12.167  1.00  0.00     0.029 C 
HETATM   39  C12 UNL     1       8.957   3.102  12.106  1.00  0.00     0.016 C 
HETATM   40  C13 UNL     1       8.634   5.281  10.985  1.00  0.00     0.016 C 
ENDBRANCH  10  38
TORSDOF 9
ENDMDL
MODEL 4
REMARK VINA RESULT: -7.964109197      3.683      6.685
REMARK  9 active torsions:
REMARK  status: ('A' for Active; 'I' for Inactive)
REMARK       I    between atoms: C2_4  and  N2_5 
REMARK       I    between atoms: C2_4  and  N3_18 
REMARK    1  A    between atoms: N2_5  and  C3_7 
REMARK    2  A    between atoms: C8_14  and  C9_15 
REMARK    3  A    between atoms: C10_21  and  C11_22 
REMARK    4  A    between atoms: C15_26  and  C16_27 
REMARK    5  A    between atoms: C16_27  and  C17_28 
REMARK    6  A    between atoms: C16_27  and  S1_37 
REMARK    7  A    between atoms: C17_28  and  C18_29 
REMARK    8  A    between atoms: C18_29  and  C19_30 
REMARK    9  A    between atoms: C19_30  and  N5_31 
ROOT
HETATM    1  C1  UNL     1      16.392   4.717   9.508  1.00  0.00     0.165 C 
HETATM    2  N1  UNL     1      16.228   5.024  10.870  1.00  0.00    -0.229 N 
ATOM      3  H1  UNL     1      16.735   4.400  11.498  1.00  0.00     0.177 HD
HETATM    4  C2  UNL     1      15.574   5.923  11.464  1.00  0.00     0.699 C 
HETATM    5  N2  UNL     1      15.610   5.973  12.862  1.00  0.00    -0.189 N 
ATOM      6  H2  UNL     1      15.729   6.905  13.261  1.00  0.00     0.184 HD
HETATM    7  N3  UNL     1      14.889   6.905  10.711  1.00  0.00    -0.089 N 
HETATM    8  N4  UNL     1      15.619   7.947  10.178  1.00  0.00    -0.283 N 
ATOM      9  H4  UNL     1      16.625   8.069  10.286  1.00  0.00     0.188 HD
HETATM   10  C10 UNL     1      14.822   8.767   9.502  1.00  0.00     0.032 A 
HETATM   11  C14 UNL     1      13.587   8.231   9.616  1.00  0.00     0.056 A 
HETATM   12  C15 UNL     1      13.610   7.036  10.389  1.00  0.00     0.072 A 
ENDROOT
BRANCH  12  13
HETATM   13  C16 UNL     1      12.373   6.270  10.655  1.00  0.00     0.160 C 
BRANCH  13  14
HETATM   14  C17 UNL     1      12.565   4.818  10.840  1.00  0.00     0.028 C 
BRANCH  14  15
HETATM   15  C18 UNL     1      11.733   4.151  11.898  1.00  0.00     0.032 C 
BRANCH  15  16
HETATM   16  C19 UNL     1      11.218   5.141  12.945  1.00  0.00     0.272 C 
BRANCH  16  17
HETATM   17  N5  UNL     1      10.355   4.410  13.907  1.00  0.00     0.088 N 
HETATM   18  C20 UNL     1       9.706   3.352  13.164  1.00  0.00     0.272 C 
HETATM   19  C21 UNL     1       8.230   3.245  13.502  1.00  0.00     0.030 C 
HETATM   20  C22 UNL     1       7.531   4.481  12.984  1.00  0.00     0.003 C 
HETATM   21  C23 UNL     1       8.338   5.678  13.388  1.00  0.00     0.030 C 
HETATM   22  C24 UNL     1       9.388   5.358  14.406  1.00  0.00     0.272 C 
ENDBRANCH  16  17
ENDBRANCH  15  16
ENDBRANCH  14  15
ENDBRANCH  13  14
BRANCH  13  23
HETATM   23  S1  UNL     1      11.050   6.719   9.564  1.00  0.00     0.150 S 
HETATM   24  C25 UNL     1       9.575   5.903  10.180  1.00  0.00     0.162 C 
HETATM   25  O1  UNL     1      11.251   6.036   8.209  1.00  0.00    -0.228 OA
HETATM   26  O2  UNL     1      10.878   8.136   9.284  1.00  0.00    -0.228 OA
ENDBRANCH  13  23
ENDBRANCH  12  13
BRANCH   5  27
HETATM   27  C3  UNL     1      15.506   4.926  13.800  1.00  0.00     0.064 A 
HETATM   28  C4  UNL     1      14.347   4.164  13.886  1.00  0.00     0.054 A 
HETATM   29  C5  UNL     1      14.178   3.126  14.800  1.00  0.00     0.037 A 
HETATM   30 CL1  UNL     1      12.687   2.217  14.842  1.00  0.00    -0.084 Cl
HETATM   31  C6  UNL     1      15.197   2.827  15.667  1.00  0.00     0.048 A 
HETATM   32  C7  UNL     1      16.351   3.555  15.613  1.00  0.00     0.049 A 
HETATM   33 CL2  UNL     1      17.688   3.212  16.702  1.00  0.00    -0.083 Cl
HETATM   34  C8  UNL     1      16.508   4.607  14.676  1.00  0.00     0.055 A 
BRANCH  34  35
HETATM   35  C9  UNL     1      17.793   5.334  14.682  1.00  0.00     0.390 C 
HETATM   36  F1  UNL     1      18.770   4.380  14.404  1.00  0.00    -0.209 F 
HETATM   37  F2  UNL     1      18.058   5.733  16.010  1.00  0.00    -0.209 F 
ENDBRANCH  34  35
ENDBRANCH   5  27
BRANCH  10  38
HETATM   38  C11 UNL     1      15.218  10.004   8.780  1.00  0.00     0.029 C 
HETATM   39  C12 UNL     1      16.629   9.914   8.252  1.00  0.00     0.016 C 
HETATM   40  C13 UNL     1      15.104  11.182   9.727  1.00  0.00     0.016 C 
ENDBRANCH  10  38
TORSDOF 9
ENDMDL
MODEL 5
REMARK VINA RESULT: -7.793415554      4.463      6.718
REMARK  9 active torsions:
REMARK  status: ('A' for Active; 'I' for Inactive)
REMARK       I    between atoms: C2_4  and  N2_5 
REMARK       I    between atoms: C2_4  and  N3_18 
REMARK    1  A    between atoms: N2_5  and  C3_7 
REMARK    2  A    between atoms: C8_14  and  C9_15 
REMARK    3  A    between atoms: C10_21  and  C11_22 
REMARK    4  A    between atoms: C15_26  and  C16_27 
REMARK    5  A    between atoms: C16_27  and  C17_28 
REMARK    6  A    between atoms: C16_27  and  S1_37 
REMARK    7  A    between atoms: C17_28  and  C18_29 
REMARK    8  A    between atoms: C18_29  and  C19_30 
REMARK    9  A    between atoms: C19_30  and  N5_31 
ROOT
HETATM    1  C1  UNL     1       8.500   7.094  14.763  1.00  0.00     0.165 C 
HETATM    2  N1  UNL     1       8.634   5.695  14.725  1.00  0.00    -0.229 N 
ATOM      3  H1  UNL     1       8.850   5.276  15.630  1.00  0.00     0.177 HD
HETATM    4  C2  UNL     1       8.538   4.859  13.786  1.00  0.00     0.699 C 
HETATM    5  N2  UNL     1       8.727   3.502  14.069  1.00  0.00    -0.189 N 
ATOM      6  H2  UNL     1       8.051   2.869  13.640  1.00  0.00     0.184 HD
HETATM    7  N3  UNL     1       8.163   5.295  12.494  1.00  0.00    -0.089 N 
HETATM    8  N4  UNL     1       6.830   5.551  12.251  1.00  0.00    -0.283 N 
ATOM      9  H4  UNL     1       6.082   5.446  12.937  1.00  0.00     0.188 HD
HETATM   10  C10 UNL     1       6.661   5.953  10.997  1.00  0.00     0.032 A 
HETATM   11  C14 UNL     1       7.898   5.947  10.456  1.00  0.00     0.056 A 
HETATM   12  C15 UNL     1       8.876   5.528  11.401  1.00  0.00     0.072 A 
ENDROOT
BRANCH  12  13
HETATM   13  C16 UNL     1      10.307   5.439  11.038  1.00  0.00     0.160 C 
BRANCH  13  14
HETATM   14  C17 UNL     1      11.243   5.439  12.180  1.00  0.00     0.028 C 
BRANCH  14  15
HETATM   15  C18 UNL     1      12.432   4.527  12.084  1.00  0.00     0.032 C 
BRANCH  15  16
HETATM   16  C19 UNL     1      13.712   5.182  12.609  1.00  0.00     0.272 C 
BRANCH  16  17
HETATM   17  N5  UNL     1      14.424   5.814  11.470  1.00  0.00     0.088 N 
HETATM   18  C20 UNL     1      14.551   4.802  10.444  1.00  0.00     0.272 C 
HETATM   19  C21 UNL     1      15.940   4.787   9.832  1.00  0.00     0.030 C 
HETATM   20  C22 UNL     1      16.920   4.310  10.881  1.00  0.00     0.003 C 
HETATM   21  C23 UNL     1      16.638   5.051  12.154  1.00  0.00     0.030 C 
HETATM   22  C24 UNL     1      15.720   6.219  11.959  1.00  0.00     0.272 C 
ENDBRANCH  16  17
ENDBRANCH  15  16
ENDBRANCH  14  15
ENDBRANCH  13  14
BRANCH  13  23
HETATM   23  S1  UNL     1      10.738   6.535   9.713  1.00  0.00     0.150 S 
HETATM   24  C25 UNL     1      10.799   5.539   8.220  1.00  0.00     0.162 C 
HETATM   25  O1  UNL     1      12.198   6.970   9.866  1.00  0.00    -0.228 OA
HETATM   26  O2  UNL     1       9.959   7.756   9.586  1.00  0.00    -0.228 OA
ENDBRANCH  13  23
ENDBRANCH  12  13
BRANCH   5  27
HETATM   27  C3  UNL     1       9.714   2.879  14.860  1.00  0.00     0.064 A 
HETATM   28  C4  UNL     1      11.055   2.945  14.502  1.00  0.00     0.054 A 
HETATM   29  C5  UNL     1      12.075   2.339  15.233  1.00  0.00     0.037 A 
HETATM   30 CL1  UNL     1      13.737   2.472  14.712  1.00  0.00    -0.084 Cl
HETATM   31  C6  UNL     1      11.758   1.639  16.368  1.00  0.00     0.048 A 
HETATM   32  C7  UNL     1      10.450   1.552  16.751  1.00  0.00     0.049 A 
HETATM   33 CL2  UNL     1       9.990   0.665  18.198  1.00  0.00    -0.083 Cl
HETATM   34  C8  UNL     1       9.424   2.174  15.997  1.00  0.00     0.055 A 
BRANCH  34  35
HETATM   35  C9  UNL     1       8.040   2.035  16.491  1.00  0.00     0.390 C 
HETATM   36  F1  UNL     1       7.969   2.814  17.644  1.00  0.00    -0.209 F 
HETATM   37  F2  UNL     1       7.875   0.711  16.950  1.00  0.00    -0.209 F 
ENDBRANCH  34  35
ENDBRANCH   5  27
BRANCH  10  38
HETATM   38  C11 UNL     1       5.379   6.325  10.344  1.00  0.00     0.029 C 
HETATM   39  C12 UNL     1       5.471   6.230   8.840  1.00  0.00     0.016 C 
HETATM   40  C13 UNL     1       5.018   7.742  10.742  1.00  0.00     0.016 C 
ENDBRANCH  10  38
TORSDOF 9
ENDMDL
