MODEL 1
REMARK VINA RESULT: -5.608693086      0.000      0.000
REMARK  1 active torsions:
REMARK  status: ('A' for Active; 'I' for Inactive)
REMARK    1  A    between atoms: N1_1  and  N2_4 
ROOT
HETATM    1  N2  UNL     1      48.263 -28.317 -95.558  1.00  0.00    -0.293 N 
HETATM    2  C1  UNL     1      48.551 -28.420 -96.931  1.00  0.00     0.087 C 
HETATM    3  C2  UNL     1      47.465 -28.997 -97.774  1.00  0.00     0.046 C 
HETATM    4  C3  UNL     1      46.914 -28.052 -98.793  1.00  0.00     0.005 C 
HETATM    5  C4  UNL     1      46.419 -26.766 -98.273  1.00  0.00     0.001 C 
HETATM    6  C5  UNL     1      46.015 -26.739 -96.846  1.00  0.00     0.005 C 
HETATM    7  C6  UNL     1      47.165 -26.166 -96.037  1.00  0.00     0.046 C 
HETATM    8  C7  UNL     1      47.694 -27.152 -95.053  1.00  0.00     0.087 C 
ENDROOT
BRANCH   1   9
HETATM    9  N1  UNL     1      48.200 -29.456 -94.829  1.00  0.00    -0.340 N 
ATOM     10  H12 UNL     1      49.046 -29.812 -94.383  1.00  0.00     0.177 HD
ATOM     11  H11 UNL     1      47.285 -29.780 -94.516  1.00  0.00     0.177 HD
ENDBRANCH   1   9
TORSDOF 1
ENDMDL
MODEL 2
REMARK VINA RESULT: -5.534659946      1.747      3.247
REMARK  1 active torsions:
REMARK  status: ('A' for Active; 'I' for Inactive)
REMARK    1  A    between atoms: N1_1  and  N2_4 
ROOT
HETATM    1  N2  UNL     1      49.079 -28.306 -96.480  1.00  0.00    -0.293 N 
HETATM    2  C1  UNL     1      49.501 -27.911 -95.198  1.00  0.00     0.087 C 
HETATM    3  C2  UNL     1      49.942 -26.491 -95.075  1.00  0.00     0.046 C 
HETATM    4  C3  UNL     1      49.096 -25.666 -94.160  1.00  0.00     0.005 C 
HETATM    5  C4  UNL     1      47.654 -25.646 -94.462  1.00  0.00     0.001 C 
HETATM    6  C5  UNL     1      47.266 -25.955 -95.860  1.00  0.00     0.005 C 
HETATM    7  C6  UNL     1      46.852 -27.414 -95.928  1.00  0.00     0.046 C 
HETATM    8  C7  UNL     1      47.738 -28.199 -96.833  1.00  0.00     0.087 C 
ENDROOT
BRANCH   1   9
HETATM    9  N1  UNL     1      50.014 -28.434 -97.451  1.00  0.00    -0.340 N 
ATOM     10  H12 UNL     1      49.846 -29.077 -98.225  1.00  0.00     0.177 HD
ATOM     11  H11 UNL     1      50.721 -27.704 -97.539  1.00  0.00     0.177 HD
ENDBRANCH   1   9
TORSDOF 1
ENDMDL
MODEL 3
REMARK VINA RESULT: -5.426864546      1.464      2.786
REMARK  1 active torsions:
REMARK  status: ('A' for Active; 'I' for Inactive)
REMARK    1  A    between atoms: N1_1  and  N2_4 
ROOT
HETATM    1  N2  UNL     1      49.155 -27.039 -94.785  1.00  0.00    -0.293 N 
HETATM    2  C1  UNL     1      47.805 -26.648 -94.740  1.00  0.00     0.087 C 
HETATM    3  C2  UNL     1      47.343 -25.798 -95.875  1.00  0.00     0.046 C 
HETATM    4  C3  UNL     1      46.285 -26.431 -96.721  1.00  0.00     0.005 C 
HETATM    5  C4  UNL     1      46.616 -27.754 -97.278  1.00  0.00     0.001 C 
HETATM    6  C5  UNL     1      48.058 -28.073 -97.417  1.00  0.00     0.005 C 
HETATM    7  C6  UNL     1      48.475 -28.916 -96.225  1.00  0.00     0.046 C 
HETATM    8  C7  UNL     1      49.512 -28.234 -95.401  1.00  0.00     0.087 C 
ENDROOT
BRANCH   1   9
HETATM    9  N1  UNL     1      50.103 -26.097 -94.564  1.00  0.00    -0.340 N 
ATOM     10  H12 UNL     1      50.533 -25.625 -95.358  1.00  0.00     0.177 HD
ATOM     11  H11 UNL     1      50.169 -25.689 -93.631  1.00  0.00     0.177 HD
ENDBRANCH   1   9
TORSDOF 1
ENDMDL
MODEL 4
REMARK VINA RESULT: -5.380916533      1.533      2.966
REMARK  1 active torsions:
REMARK  status: ('A' for Active; 'I' for Inactive)
REMARK    1  A    between atoms: N1_1  and  N2_4 
ROOT
HETATM    1  N2  UNL     1      47.787 -28.408 -97.593  1.00  0.00    -0.293 N 
HETATM    2  C1  UNL     1      48.297 -28.634 -96.302  1.00  0.00     0.087 C 
HETATM    3  C2  UNL     1      49.309 -27.646 -95.828  1.00  0.00     0.046 C 
HETATM    4  C3  UNL     1      48.879 -26.856 -94.634  1.00  0.00     0.005 C 
HETATM    5  C4  UNL     1      47.601 -26.136 -94.768  1.00  0.00     0.001 C 
HETATM    6  C5  UNL     1      47.163 -25.815 -96.148  1.00  0.00     0.005 C 
HETATM    7  C6  UNL     1      46.155 -26.864 -96.584  1.00  0.00     0.046 C 
HETATM    8  C7  UNL     1      46.639 -27.640 -97.761  1.00  0.00     0.087 C 
ENDROOT
BRANCH   1   9
HETATM    9  N1  UNL     1      48.603 -28.622 -98.652  1.00  0.00    -0.340 N 
ATOM     10  H12 UNL     1      48.513 -29.487 -99.185  1.00  0.00     0.177 HD
ATOM     11  H11 UNL     1      49.089 -27.822 -99.057  1.00  0.00     0.177 HD
ENDBRANCH   1   9
TORSDOF 1
ENDMDL
MODEL 5
REMARK VINA RESULT: -5.352806330      1.394      2.626
REMARK  1 active torsions:
REMARK  status: ('A' for Active; 'I' for Inactive)
REMARK    1  A    between atoms: N1_1  and  N2_4 
ROOT
HETATM    1  N2  UNL     1      47.154 -26.527 -95.589  1.00  0.00    -0.293 N 
HETATM    2  C1  UNL     1      46.156 -26.865 -96.521  1.00  0.00     0.087 C 
HETATM    3  C2  UNL     1      46.526 -26.680 -97.954  1.00  0.00     0.046 C 
HETATM    4  C3  UNL     1      46.550 -27.947 -98.747  1.00  0.00     0.005 C 
HETATM    5  C4  UNL     1      47.407 -29.021 -98.214  1.00  0.00     0.001 C 
HETATM    6  C5  UNL     1      48.520 -28.603 -97.329  1.00  0.00     0.005 C 
HETATM    7  C6  UNL     1      48.078 -28.790 -95.888  1.00  0.00     0.046 C 
HETATM    8  C7  UNL     1      48.047 -27.497 -95.147  1.00  0.00     0.087 C 
ENDROOT
BRANCH   1   9
HETATM    9  N1  UNL     1      47.457 -25.218 -95.420  1.00  0.00    -0.340 N 
ATOM     10  H12 UNL     1      47.912 -24.918 -94.558  1.00  0.00     0.177 HD
ATOM     11  H11 UNL     1      47.478 -24.617 -96.244  1.00  0.00     0.177 HD
ENDBRANCH   1   9
TORSDOF 1
ENDMDL
