MODEL 1
REMARK VINA RESULT: -5.644791795      0.000      0.000
REMARK  0 active torsions:
REMARK  status: ('A' for Active; 'I' for Inactive)
ROOT
HETATM    1  C1  UNL     1      46.726 -24.520 -94.883  1.00  0.00     0.052 C 
HETATM    2  C2  UNL     1      47.727 -25.606 -94.769  1.00  0.00     0.106 C 
HETATM    3  F1  UNL     1      47.679 -26.110 -93.476  1.00  0.00    -0.243 F 
HETATM    4  C3  UNL     1      49.163 -25.093 -94.953  1.00  0.00     0.087 C 
HETATM    5  C4  UNL     1      50.017 -26.235 -94.440  1.00  0.00     0.059 C 
HETATM    6  N1  UNL     1      49.805 -27.461 -95.064  1.00  0.00    -0.394 N 
ATOM      7  H1  UNL     1      50.564 -28.141 -95.106  1.00  0.00     0.159 HD
HETATM    8  C5  UNL     1      48.569 -27.774 -95.633  1.00  0.00     0.025 C 
HETATM    9  C6  UNL     1      47.923 -28.897 -94.812  1.00  0.00     0.038 C 
HETATM   10  C7  UNL     1      48.819 -28.365 -97.028  1.00  0.00     0.038 C 
HETATM   11  C8  UNL     1      47.569 -26.694 -95.780  1.00  0.00     0.073 C 
ENDROOT
TORSDOF 0
ENDMDL
MODEL 2
REMARK VINA RESULT: -5.457378202      1.325      1.715
REMARK  0 active torsions:
REMARK  status: ('A' for Active; 'I' for Inactive)
ROOT
HETATM    1  C1  UNL     1      45.879 -26.600 -96.883  1.00  0.00     0.052 C 
HETATM    2  C2  UNL     1      47.037 -26.969 -96.036  1.00  0.00     0.106 C 
HETATM    3  F1  UNL     1      46.557 -27.508 -94.850  1.00  0.00    -0.243 F 
HETATM    4  C3  UNL     1      47.864 -25.743 -95.620  1.00  0.00     0.087 C 
HETATM    5  C4  UNL     1      48.735 -26.266 -94.495  1.00  0.00     0.059 C 
HETATM    6  N1  UNL     1      49.531 -27.360 -94.822  1.00  0.00    -0.394 N 
ATOM      7  H1  UNL     1      50.407 -27.510 -94.322  1.00  0.00     0.159 HD
HETATM    8  C5  UNL     1      49.147 -28.255 -95.821  1.00  0.00     0.025 C 
HETATM    9  C6  UNL     1      48.818 -29.604 -95.170  1.00  0.00     0.038 C 
HETATM   10  C7  UNL     1      50.361 -28.512 -96.727  1.00  0.00     0.038 C 
HETATM   11  C8  UNL     1      48.011 -27.889 -96.695  1.00  0.00     0.073 C 
ENDROOT
TORSDOF 0
ENDMDL
MODEL 3
REMARK VINA RESULT: -5.273478652      8.545      9.708
REMARK  0 active torsions:
REMARK  status: ('A' for Active; 'I' for Inactive)
ROOT
HETATM    1  C1  UNL     1      42.988 -17.461 -93.145  1.00  0.00     0.052 C 
HETATM    2  C2  UNL     1      43.062 -18.452 -92.047  1.00  0.00     0.106 C 
HETATM    3  F1  UNL     1      42.373 -17.945 -90.953  1.00  0.00    -0.243 F 
HETATM    4  C3  UNL     1      44.502 -18.666 -91.556  1.00  0.00     0.087 C 
HETATM    5  C4  UNL     1      44.324 -19.390 -90.236  1.00  0.00     0.059 C 
HETATM    6  N1  UNL     1      43.602 -20.578 -90.305  1.00  0.00    -0.394 N 
ATOM      7  H1  UNL     1      43.779 -21.313 -89.620  1.00  0.00     0.159 HD
HETATM    8  C5  UNL     1      42.638 -20.777 -91.294  1.00  0.00     0.025 C 
HETATM    9  C6  UNL     1      41.256 -20.819 -90.631  1.00  0.00     0.038 C 
HETATM   10  C7  UNL     1      42.854 -22.173 -91.900  1.00  0.00     0.038 C 
HETATM   11  C8  UNL     1      42.570 -19.813 -92.414  1.00  0.00     0.073 C 
ENDROOT
TORSDOF 0
ENDMDL
MODEL 4
REMARK VINA RESULT: -5.191610948      8.669     10.024
REMARK  0 active torsions:
REMARK  status: ('A' for Active; 'I' for Inactive)
ROOT
HETATM    1  C1  UNL     1      45.283 -18.575 -89.485  1.00  0.00     0.052 C 
HETATM    2  C2  UNL     1      44.306 -18.988 -90.519  1.00  0.00     0.106 C 
HETATM    3  F1  UNL     1      45.008 -19.463 -91.618  1.00  0.00    -0.243 F 
HETATM    4  C3  UNL     1      43.480 -17.804 -91.043  1.00  0.00     0.087 C 
HETATM    5  C4  UNL     1      42.842 -18.347 -92.306  1.00  0.00     0.059 C 
HETATM    6  N1  UNL     1      42.077 -19.497 -92.136  1.00  0.00    -0.394 N 
ATOM      7  H1  UNL     1      41.306 -19.685 -92.777  1.00  0.00     0.159 HD
HETATM    8  C5  UNL     1      42.348 -20.395 -91.104  1.00  0.00     0.025 C 
HETATM    9  C6  UNL     1      42.867 -21.702 -91.716  1.00  0.00     0.038 C 
HETATM   10  C7  UNL     1      41.021 -20.752 -90.417  1.00  0.00     0.038 C 
HETATM   11  C8  UNL     1      43.300 -19.986 -90.047  1.00  0.00     0.073 C 
ENDROOT
TORSDOF 0
ENDMDL
MODEL 5
REMARK VINA RESULT: -5.138520663      1.849      2.631
REMARK  0 active torsions:
REMARK  status: ('A' for Active; 'I' for Inactive)
ROOT
HETATM    1  C1  UNL     1      46.981 -25.259 -94.661  1.00  0.00     0.052 C 
HETATM    2  C2  UNL     1      47.445 -26.378 -95.513  1.00  0.00     0.106 C 
HETATM    3  F1  UNL     1      48.371 -25.882 -96.420  1.00  0.00    -0.243 F 
HETATM    4  C3  UNL     1      46.311 -26.964 -96.368  1.00  0.00     0.087 C 
HETATM    5  C4  UNL     1      47.040 -27.799 -97.401  1.00  0.00     0.059 C 
HETATM    6  N1  UNL     1      47.880 -28.782 -96.884  1.00  0.00    -0.394 N 
ATOM      7  H1  UNL     1      48.066 -29.622 -97.432  1.00  0.00     0.159 HD
HETATM    8  C5  UNL     1      48.470 -28.634 -95.629  1.00  0.00     0.025 C 
HETATM    9  C6  UNL     1      49.982 -28.461 -95.816  1.00  0.00     0.038 C 
HETATM   10  C7  UNL     1      48.292 -29.951 -94.857  1.00  0.00     0.038 C 
HETATM   11  C8  UNL     1      47.998 -27.539 -94.753  1.00  0.00     0.073 C 
ENDROOT
TORSDOF 0
ENDMDL
