MODEL 1
REMARK VINA RESULT: -6.188361993      0.000      0.000
REMARK  1 active torsions:
REMARK  status: ('A' for Active; 'I' for Inactive)
REMARK    1  A    between atoms: N1_1  and  C1_5 
ROOT
HETATM    1  C1  UNL     1      49.155 -26.809 -95.345  1.00  0.00     0.217 C 
HETATM    2  C2  UNL     1      49.650 -28.202 -95.598  1.00  0.00     0.036 C 
HETATM    3  C3  UNL     1      50.005 -28.333 -97.039  1.00  0.00     0.002 C 
HETATM    4  C4  UNL     1      48.925 -28.677 -97.968  1.00  0.00     0.000 C 
HETATM    5  C5  UNL     1      47.542 -28.725 -97.423  1.00  0.00     0.000 C 
HETATM    6  C6  UNL     1      47.079 -27.297 -97.183  1.00  0.00     0.003 C 
HETATM    7  C7  UNL     1      46.683 -27.036 -95.779  1.00  0.00     0.039 C 
HETATM    8  C8  UNL     1      47.763 -26.733 -94.829  1.00  0.00     0.200 C 
HETATM    9  F1  UNL     1      47.578 -25.436 -94.329  1.00  0.00    -0.247 F 
ENDROOT
BRANCH   1  10
HETATM   10  N1  UNL     1      50.009 -26.208 -94.302  1.00  0.00    -0.072 N 
ATOM     11  H13 UNL     1      50.662 -26.877 -93.891  1.00  0.00     0.274 HD
ATOM     12  H12 UNL     1      50.700 -25.561 -94.681  1.00  0.00     0.274 HD
ATOM     13  H11 UNL     1      49.399 -25.775 -93.610  1.00  0.00     0.274 HD
ENDBRANCH   1  10
TORSDOF 1
ENDMDL
MODEL 2
REMARK VINA RESULT: -6.060468992      2.472      3.889
REMARK  1 active torsions:
REMARK  status: ('A' for Active; 'I' for Inactive)
REMARK    1  A    between atoms: N1_1  and  C1_5 
ROOT
HETATM    1  C1  UNL     1      48.191 -27.667 -97.233  1.00  0.00     0.217 C 
HETATM    2  C2  UNL     1      46.850 -27.522 -96.575  1.00  0.00     0.036 C 
HETATM    3  C3  UNL     1      46.549 -26.074 -96.408  1.00  0.00     0.002 C 
HETATM    4  C4  UNL     1      47.074 -25.413 -95.209  1.00  0.00     0.000 C 
HETATM    5  C5  UNL     1      47.981 -26.202 -94.334  1.00  0.00     0.000 C 
HETATM    6  C6  UNL     1      49.325 -26.323 -95.035  1.00  0.00     0.003 C 
HETATM    7  C7  UNL     1      49.749 -27.725 -95.253  1.00  0.00     0.039 C 
HETATM    8  C8  UNL     1      49.195 -28.412 -96.429  1.00  0.00     0.200 C 
HETATM    9  F1  UNL     1      50.245 -28.754 -97.294  1.00  0.00    -0.247 F 
ENDROOT
BRANCH   1  10
HETATM   10  N1  UNL     1      48.004 -28.444 -98.474  1.00  0.00    -0.072 N 
ATOM     11  H13 UNL     1      48.865 -28.540 -99.014  1.00  0.00     0.274 HD
ATOM     12  H12 UNL     1      47.843 -29.436 -98.299  1.00  0.00     0.274 HD
ATOM     13  H11 UNL     1      47.251 -28.009 -99.005  1.00  0.00     0.274 HD
ENDBRANCH   1  10
TORSDOF 1
ENDMDL
MODEL 3
REMARK VINA RESULT: -6.044555749      1.397      1.955
REMARK  1 active torsions:
REMARK  status: ('A' for Active; 'I' for Inactive)
REMARK    1  A    between atoms: N1_1  and  C1_5 
ROOT
HETATM    1  C1  UNL     1      48.850 -27.664 -95.723  1.00  0.00     0.217 C 
HETATM    2  C2  UNL     1      47.918 -28.724 -96.232  1.00  0.00     0.036 C 
HETATM    3  C3  UNL     1      47.675 -28.495 -97.683  1.00  0.00     0.002 C 
HETATM    4  C4  UNL     1      46.609 -27.555 -98.044  1.00  0.00     0.000 C 
HETATM    5  C5  UNL     1      45.959 -26.800 -96.941  1.00  0.00     0.000 C 
HETATM    6  C6  UNL     1      46.933 -25.738 -96.458  1.00  0.00     0.003 C 
HETATM    7  C7  UNL     1      47.253 -25.848 -95.015  1.00  0.00     0.039 C 
HETATM    8  C8  UNL     1      48.289 -26.820 -94.636  1.00  0.00     0.200 C 
HETATM    9  F1  UNL     1      49.363 -26.133 -94.050  1.00  0.00    -0.247 F 
ENDROOT
BRANCH   1  10
HETATM   10  N1  UNL     1      50.030 -28.338 -95.147  1.00  0.00    -0.072 N 
ATOM     11  H13 UNL     1      50.596 -28.816 -95.850  1.00  0.00     0.274 HD
ATOM     12  H12 UNL     1      50.742 -27.683 -94.824  1.00  0.00     0.274 HD
ATOM     13  H11 UNL     1      49.704 -28.963 -94.410  1.00  0.00     0.274 HD
ENDBRANCH   1  10
TORSDOF 1
ENDMDL
MODEL 4
REMARK VINA RESULT: -5.982488684      1.838      2.527
REMARK  1 active torsions:
REMARK  status: ('A' for Active; 'I' for Inactive)
REMARK    1  A    between atoms: N1_1  and  C1_5 
ROOT
HETATM    1  C1  UNL     1      47.361 -26.044 -95.903  1.00  0.00     0.217 C 
HETATM    2  C2  UNL     1      47.913 -26.802 -94.731  1.00  0.00     0.036 C 
HETATM    3  C3  UNL     1      49.374 -27.006 -94.934  1.00  0.00     0.002 C 
HETATM    4  C4  UNL     1      49.785 -28.169 -95.726  1.00  0.00     0.000 C 
HETATM    5  C5  UNL     1      48.714 -28.965 -96.381  1.00  0.00     0.000 C 
HETATM    6  C6  UNL     1      48.186 -28.165 -97.561  1.00  0.00     0.003 C 
HETATM    7  C7  UNL     1      46.730 -27.901 -97.486  1.00  0.00     0.039 C 
HETATM    8  C8  UNL     1      46.302 -26.763 -96.659  1.00  0.00     0.200 C 
HETATM    9  F1  UNL     1      45.666 -25.819 -97.479  1.00  0.00    -0.247 F 
ENDROOT
BRANCH   1  10
HETATM   10  N1  UNL     1      46.730 -24.813 -95.389  1.00  0.00    -0.072 N 
ATOM     11  H13 UNL     1      46.250 -24.281 -96.116  1.00  0.00     0.274 HD
ATOM     12  H12 UNL     1      45.918 -25.000 -94.801  1.00  0.00     0.274 HD
ATOM     13  H11 UNL     1      47.448 -24.270 -94.910  1.00  0.00     0.274 HD
ENDBRANCH   1  10
TORSDOF 1
ENDMDL
MODEL 5
REMARK VINA RESULT: -5.955590396      1.439      2.646
REMARK  1 active torsions:
REMARK  status: ('A' for Active; 'I' for Inactive)
REMARK    1  A    between atoms: N1_1  and  C1_5 
ROOT
HETATM    1  C1  UNL     1      47.656 -26.021 -94.994  1.00  0.00     0.217 C 
HETATM    2  C2  UNL     1      47.158 -26.095 -96.407  1.00  0.00     0.036 C 
HETATM    3  C3  UNL     1      46.512 -27.419 -96.622  1.00  0.00     0.002 C 
HETATM    4  C4  UNL     1      47.382 -28.537 -96.998  1.00  0.00     0.000 C 
HETATM    5  C5  UNL     1      48.849 -28.295 -96.994  1.00  0.00     0.000 C 
HETATM    6  C6  UNL     1      49.313 -28.230 -95.548  1.00  0.00     0.003 C 
HETATM    7  C7  UNL     1      49.988 -26.956 -95.205  1.00  0.00     0.039 C 
HETATM    8  C8  UNL     1      49.123 -25.815 -94.868  1.00  0.00     0.200 C 
HETATM    9  F1  UNL     1      49.374 -25.430 -93.542  1.00  0.00    -0.247 F 
ENDROOT
BRANCH   1  10
HETATM   10  N1  UNL     1      47.024 -24.853 -94.352  1.00  0.00    -0.072 N 
ATOM     11  H13 UNL     1      47.656 -24.055 -94.271  1.00  0.00     0.274 HD
ATOM     12  H12 UNL     1      46.321 -24.409 -94.942  1.00  0.00     0.274 HD
ATOM     13  H11 UNL     1      46.651 -25.154 -93.452  1.00  0.00     0.274 HD
ENDBRANCH   1  10
TORSDOF 1
ENDMDL
