MODEL 1
REMARK VINA RESULT: -8.026121611      0.000      0.000
REMARK  8 active torsions:
REMARK  status: ('A' for Active; 'I' for Inactive)
REMARK    1  A    between atoms: N2_8  and  C6_10 
REMARK    2  A    between atoms: C6_10  and  C7_11 
REMARK    3  A    between atoms: C7_11  and  C8_12 
REMARK    4  A    between atoms: C8_12  and  C9_13 
REMARK    5  A    between atoms: C9_13  and  N3_14 
REMARK    6  A    between atoms: N5_21  and  C11_23 
REMARK    7  A    between atoms: C11_23  and  C12_24 
REMARK    8  A    between atoms: C12_24  and  C13_25 
ROOT
HETATM    1  C1  UNL     1      -5.859 -33.225  80.730  1.00  0.00     0.102 C 
HETATM    2  C2  UNL     1      -5.015 -33.720  79.998  1.00  0.00    -0.157 C 
HETATM    3  C3  UNL     1      -4.042 -34.319  79.136  1.00  0.00     0.099 C 
HETATM    4  C4  UNL     1      -2.888 -34.725  79.634  1.00  0.00     0.143 A 
HETATM    5  N1  UNL     1      -2.614 -34.566  81.041  1.00  0.00    -0.175 N 
ATOM      6  H1  UNL     1      -3.303 -34.142  81.661  1.00  0.00     0.186 HD
HETATM    7  C5  UNL     1      -1.367 -35.013  81.542  1.00  0.00     0.694 A 
HETATM    8  N2  UNL     1      -1.127 -34.870  82.790  1.00  0.00    -0.226 N 
ATOM      9  H2  UNL     1      -0.227 -35.195  83.142  1.00  0.00     0.177 HD
HETATM   10  N4  UNL     1      -0.399 -35.606  80.692  1.00  0.00    -0.022 N 
ATOM     11  H4  UNL     1       0.488 -35.917  81.087  1.00  0.00     0.203 HD
HETATM   12  C10 UNL     1      -0.639 -35.780  79.291  1.00  0.00     0.694 A 
HETATM   13  N5  UNL     1       0.197 -36.305  78.494  1.00  0.00    -0.225 N 
ATOM     14  H5  UNL     1       1.077 -36.609  78.910  1.00  0.00     0.177 HD
HETATM   15  N6  UNL     1      -1.890 -35.328  78.804  1.00  0.00    -0.175 N 
ATOM     16  H6  UNL     1      -2.089 -35.437  77.810  1.00  0.00     0.186 HD
ENDROOT
BRANCH   8  17
HETATM   17  C6  UNL     1      -2.045 -34.280  83.732  1.00  0.00     0.138 C 
BRANCH  17  18
HETATM   18  C7  UNL     1      -1.334 -33.211  84.519  1.00  0.00     0.022 C 
BRANCH  18  19
HETATM   19  C8  UNL     1      -0.831 -32.087  83.657  1.00  0.00     0.029 C 
BRANCH  19  20
HETATM   20  C9  UNL     1       0.527 -31.598  84.040  1.00  0.00     0.229 C 
BRANCH  20  21
HETATM   21  N3  UNL     1       1.555 -32.590  83.781  1.00  0.00    -0.079 N 
ATOM     22  H33 UNL     1       1.151 -33.463  83.441  1.00  0.00     0.274 HD
ATOM     23  H32 UNL     1       2.112 -32.341  82.963  1.00  0.00     0.274 HD
ATOM     24  H31 UNL     1       2.147 -32.748  84.596  1.00  0.00     0.274 HD
ENDBRANCH  20  21
ENDBRANCH  19  20
ENDBRANCH  18  19
ENDBRANCH  17  18
ENDBRANCH   8  17
BRANCH  13  25
HETATM   25  C11 UNL     1       0.064 -36.524  77.099  1.00  0.00     0.142 C 
BRANCH  25  26
HETATM   26  C12 UNL     1       0.079 -37.990  76.719  1.00  0.00     0.058 C 
BRANCH  26  27
HETATM   27  C13 UNL     1      -1.263 -38.605  76.971  1.00  0.00    -0.057 A 
HETATM   28  C14 UNL     1      -2.429 -37.972  76.637  1.00  0.00     0.007 A 
HETATM   29  C15 UNL     1      -3.636 -38.564  76.881  1.00  0.00     0.001 A 
HETATM   30  C16 UNL     1      -3.714 -39.809  77.468  1.00  0.00     0.000 A 
HETATM   31  C17 UNL     1      -2.537 -40.458  77.808  1.00  0.00     0.001 A 
HETATM   32  C18 UNL     1      -1.326 -39.849  77.557  1.00  0.00     0.007 A 
ENDBRANCH  26  27
ENDBRANCH  25  26
ENDBRANCH  13  25
TORSDOF 8
ENDMDL
MODEL 2
REMARK VINA RESULT: -7.871742971      1.346      1.680
REMARK  8 active torsions:
REMARK  status: ('A' for Active; 'I' for Inactive)
REMARK    1  A    between atoms: N2_8  and  C6_10 
REMARK    2  A    between atoms: C6_10  and  C7_11 
REMARK    3  A    between atoms: C7_11  and  C8_12 
REMARK    4  A    between atoms: C8_12  and  C9_13 
REMARK    5  A    between atoms: C9_13  and  N3_14 
REMARK    6  A    between atoms: N5_21  and  C11_23 
REMARK    7  A    between atoms: C11_23  and  C12_24 
REMARK    8  A    between atoms: C12_24  and  C13_25 
ROOT
HETATM    1  C1  UNL     1      -5.928 -33.155  80.471  1.00  0.00     0.102 C 
HETATM    2  C2  UNL     1      -5.054 -33.656  79.779  1.00  0.00    -0.157 C 
HETATM    3  C3  UNL     1      -4.045 -34.259  78.961  1.00  0.00     0.099 C 
HETATM    4  C4  UNL     1      -2.939 -34.717  79.519  1.00  0.00     0.143 A 
HETATM    5  N1  UNL     1      -2.752 -34.610  80.944  1.00  0.00    -0.175 N 
ATOM      6  H1  UNL     1      -3.466 -34.182  81.533  1.00  0.00     0.186 HD
HETATM    7  C5  UNL     1      -1.554 -35.111  81.509  1.00  0.00     0.694 A 
HETATM    8  N2  UNL     1      -1.391 -35.014  82.774  1.00  0.00    -0.226 N 
ATOM      9  H2  UNL     1      -0.526 -35.378  83.172  1.00  0.00     0.177 HD
HETATM   10  N4  UNL     1      -0.552 -35.710  80.704  1.00  0.00    -0.022 N 
ATOM     11  H4  UNL     1       0.298 -36.060  81.145  1.00  0.00     0.203 HD
HETATM   12  C10 UNL     1      -0.705 -35.833  79.286  1.00  0.00     0.694 A 
HETATM   13  N5  UNL     1       0.164 -36.361  78.528  1.00  0.00    -0.225 N 
ATOM     14  H5  UNL     1       1.006 -36.705  78.989  1.00  0.00     0.177 HD
HETATM   15  N6  UNL     1      -1.908 -35.327  78.736  1.00  0.00    -0.175 N 
ATOM     16  H6  UNL     1      -2.046 -35.400  77.728  1.00  0.00     0.186 HD
ENDROOT
BRANCH   8  17
HETATM   17  C6  UNL     1      -2.350 -34.423  83.675  1.00  0.00     0.138 C 
BRANCH  17  18
HETATM   18  C7  UNL     1      -1.999 -32.975  83.897  1.00  0.00     0.022 C 
BRANCH  18  19
HETATM   19  C8  UNL     1      -3.002 -32.031  83.298  1.00  0.00     0.029 C 
BRANCH  19  20
HETATM   20  C9  UNL     1      -4.341 -32.080  83.957  1.00  0.00     0.229 C 
BRANCH  20  21
HETATM   21  N3  UNL     1      -4.289 -31.610  85.330  1.00  0.00    -0.079 N 
ATOM     22  H33 UNL     1      -4.563 -32.344  85.984  1.00  0.00     0.274 HD
ATOM     23  H32 UNL     1      -3.326 -31.473  85.638  1.00  0.00     0.274 HD
ATOM     24  H31 UNL     1      -4.845 -30.766  85.467  1.00  0.00     0.274 HD
ENDBRANCH  20  21
ENDBRANCH  19  20
ENDBRANCH  18  19
ENDBRANCH  17  18
ENDBRANCH   8  17
BRANCH  13  25
HETATM   25  C11 UNL     1       0.115 -36.534  77.121  1.00  0.00     0.142 C 
BRANCH  25  26
HETATM   26  C12 UNL     1       0.107 -37.987  76.696  1.00  0.00     0.058 C 
BRANCH  26  27
HETATM   27  C13 UNL     1      -1.236 -38.597  76.958  1.00  0.00    -0.057 A 
HETATM   28  C14 UNL     1      -2.402 -37.960  76.635  1.00  0.00     0.007 A 
HETATM   29  C15 UNL     1      -3.609 -38.547  76.889  1.00  0.00     0.001 A 
HETATM   30  C16 UNL     1      -3.687 -39.792  77.475  1.00  0.00     0.000 A 
HETATM   31  C17 UNL     1      -2.510 -40.445  77.805  1.00  0.00     0.001 A 
HETATM   32  C18 UNL     1      -1.299 -39.841  77.544  1.00  0.00     0.007 A 
ENDBRANCH  26  27
ENDBRANCH  25  26
ENDBRANCH  13  25
TORSDOF 8
ENDMDL
MODEL 3
REMARK VINA RESULT: -7.714830829      2.016      7.104
REMARK  8 active torsions:
REMARK  status: ('A' for Active; 'I' for Inactive)
REMARK    1  A    between atoms: N2_8  and  C6_10 
REMARK    2  A    between atoms: C6_10  and  C7_11 
REMARK    3  A    between atoms: C7_11  and  C8_12 
REMARK    4  A    between atoms: C8_12  and  C9_13 
REMARK    5  A    between atoms: C9_13  and  N3_14 
REMARK    6  A    between atoms: N5_21  and  C11_23 
REMARK    7  A    between atoms: C11_23  and  C12_24 
REMARK    8  A    between atoms: C12_24  and  C13_25 
ROOT
HETATM    1  C1  UNL     1      -4.114 -34.755  75.554  1.00  0.00     0.102 C 
HETATM    2  C2  UNL     1      -3.799 -34.510  76.709  1.00  0.00    -0.157 C 
HETATM    3  C3  UNL     1      -3.426 -34.200  78.056  1.00  0.00     0.099 C 
HETATM    4  C4  UNL     1      -2.387 -34.804  78.602  1.00  0.00     0.143 A 
HETATM    5  N1  UNL     1      -1.633 -35.771  77.843  1.00  0.00    -0.175 N 
ATOM      6  H1  UNL     1      -1.892 -35.996  76.882  1.00  0.00     0.186 HD
HETATM    7  C5  UNL     1      -0.524 -36.400  78.459  1.00  0.00     0.694 A 
HETATM    8  N2  UNL     1       0.142 -37.257  77.782  1.00  0.00    -0.226 N 
ATOM      9  H2  UNL     1       0.939 -37.705  78.234  1.00  0.00     0.177 HD
HETATM   10  N4  UNL     1      -0.150 -36.097  79.793  1.00  0.00    -0.022 N 
ATOM     11  H4  UNL     1       0.654 -36.569  80.205  1.00  0.00     0.203 HD
HETATM   12  C10 UNL     1      -0.876 -35.142  80.576  1.00  0.00     0.694 A 
HETATM   13  N5  UNL     1      -0.577 -34.840  81.771  1.00  0.00    -0.225 N 
ATOM     14  H5  UNL     1       0.230 -35.324  82.163  1.00  0.00     0.177 HD
HETATM   15  N6  UNL     1      -1.982 -34.522  79.946  1.00  0.00    -0.175 N 
ATOM     16  H6  UNL     1      -2.520 -33.838  80.478  1.00  0.00     0.186 HD
ENDROOT
BRANCH   8  17
HETATM   17  C6  UNL     1      -0.159 -37.632  76.423  1.00  0.00     0.138 C 
BRANCH  17  18
HETATM   18  C7  UNL     1      -0.624 -39.064  76.392  1.00  0.00     0.022 C 
BRANCH  18  19
HETATM   19  C8  UNL     1      -2.092 -39.209  76.679  1.00  0.00     0.029 C 
BRANCH  19  20
HETATM   20  C9  UNL     1      -2.411 -40.307  77.639  1.00  0.00     0.229 C 
BRANCH  20  21
HETATM   21  N3  UNL     1      -3.798 -40.725  77.545  1.00  0.00    -0.079 N 
ATOM     22  H33 UNL     1      -4.432 -39.935  77.663  1.00  0.00     0.274 HD
ATOM     23  H32 UNL     1      -4.043 -40.986  76.589  1.00  0.00     0.274 HD
ATOM     24  H31 UNL     1      -4.016 -41.476  78.200  1.00  0.00     0.274 HD
ENDBRANCH  20  21
ENDBRANCH  19  20
ENDBRANCH  18  19
ENDBRANCH  17  18
ENDBRANCH   8  17
BRANCH  13  25
HETATM   25  C11 UNL     1      -1.223 -33.916  82.631  1.00  0.00     0.142 C 
BRANCH  25  26
HETATM   26  C12 UNL     1      -2.461 -34.480  83.295  1.00  0.00     0.058 C 
BRANCH  26  27
HETATM   27  C13 UNL     1      -3.672 -33.698  82.885  1.00  0.00    -0.057 A 
HETATM   28  C14 UNL     1      -4.640 -34.224  82.075  1.00  0.00     0.007 A 
HETATM   29  C15 UNL     1      -5.731 -33.481  81.723  1.00  0.00     0.001 A 
HETATM   30  C16 UNL     1      -5.887 -32.186  82.170  1.00  0.00     0.000 A 
HETATM   31  C17 UNL     1      -4.911 -31.646  82.993  1.00  0.00     0.001 A 
HETATM   32  C18 UNL     1      -3.815 -32.406  83.340  1.00  0.00     0.007 A 
ENDBRANCH  26  27
ENDBRANCH  25  26
ENDBRANCH  13  25
TORSDOF 8
ENDMDL
MODEL 4
REMARK VINA RESULT: -7.688413798      2.499      7.597
REMARK  8 active torsions:
REMARK  status: ('A' for Active; 'I' for Inactive)
REMARK    1  A    between atoms: N2_8  and  C6_10 
REMARK    2  A    between atoms: C6_10  and  C7_11 
REMARK    3  A    between atoms: C7_11  and  C8_12 
REMARK    4  A    between atoms: C8_12  and  C9_13 
REMARK    5  A    between atoms: C9_13  and  N3_14 
REMARK    6  A    between atoms: N5_21  and  C11_23 
REMARK    7  A    between atoms: C11_23  and  C12_24 
REMARK    8  A    between atoms: C12_24  and  C13_25 
ROOT
HETATM    1  C1  UNL     1      -4.309 -33.391  75.866  1.00  0.00     0.102 C 
HETATM    2  C2  UNL     1      -4.626 -33.474  77.043  1.00  0.00    -0.157 C 
HETATM    3  C3  UNL     1      -5.001 -33.547  78.423  1.00  0.00     0.099 C 
HETATM    4  C4  UNL     1      -4.122 -33.957  79.318  1.00  0.00     0.143 A 
HETATM    5  N1  UNL     1      -2.792 -34.329  78.906  1.00  0.00    -0.175 N 
ATOM      6  H1  UNL     1      -2.517 -34.279  77.925  1.00  0.00     0.186 HD
HETATM    7  C5  UNL     1      -1.874 -34.766  79.892  1.00  0.00     0.694 A 
HETATM    8  N2  UNL     1      -0.695 -35.095  79.522  1.00  0.00    -0.226 N 
ATOM      9  H2  UNL     1      -0.041 -35.407  80.240  1.00  0.00     0.177 HD
HETATM   10  N4  UNL     1      -2.241 -34.840  81.260  1.00  0.00    -0.022 N 
ATOM     11  H4  UNL     1      -1.554 -35.159  81.943  1.00  0.00     0.203 HD
HETATM   12  C10 UNL     1      -3.553 -34.478  81.705  1.00  0.00     0.694 A 
HETATM   13  N5  UNL     1      -3.923 -34.529  82.917  1.00  0.00    -0.225 N 
ATOM     14  H5  UNL     1      -3.221 -34.849  83.583  1.00  0.00     0.177 HD
HETATM   15  N6  UNL     1      -4.459 -34.045  80.707  1.00  0.00    -0.175 N 
ATOM     16  H6  UNL     1      -5.402 -33.781  80.992  1.00  0.00     0.186 HD
ENDROOT
BRANCH   8  17
HETATM   17  C6  UNL     1      -0.229 -35.054  78.159  1.00  0.00     0.138 C 
BRANCH  17  18
HETATM   18  C7  UNL     1       0.046 -36.456  77.683  1.00  0.00     0.022 C 
BRANCH  18  19
HETATM   19  C8  UNL     1      -1.208 -37.236  77.407  1.00  0.00     0.029 C 
BRANCH  19  20
HETATM   20  C9  UNL     1      -0.987 -38.452  76.570  1.00  0.00     0.229 C 
BRANCH  20  21
HETATM   21  N3  UNL     1       0.247 -38.371  75.808  1.00  0.00    -0.079 N 
ATOM     22  H33 UNL     1       0.341 -39.160  75.169  1.00  0.00     0.274 HD
ATOM     23  H32 UNL     1       0.212 -37.614  75.125  1.00  0.00     0.274 HD
ATOM     24  H31 UNL     1       1.064 -38.286  76.413  1.00  0.00     0.274 HD
ENDBRANCH  20  21
ENDBRANCH  19  20
ENDBRANCH  18  19
ENDBRANCH  17  18
ENDBRANCH   8  17
BRANCH  13  25
HETATM   25  C11 UNL     1      -5.189 -34.196  83.463  1.00  0.00     0.142 C 
BRANCH  25  26
HETATM   26  C12 UNL     1      -5.296 -32.747  83.886  1.00  0.00     0.058 C 
BRANCH  26  27
HETATM   27  C13 UNL     1      -6.511 -32.116  83.277  1.00  0.00    -0.057 A 
HETATM   28  C14 UNL     1      -6.480 -31.512  82.050  1.00  0.00     0.007 A 
HETATM   29  C15 UNL     1      -7.607 -30.947  81.525  1.00  0.00     0.001 A 
HETATM   30  C16 UNL     1      -8.802 -30.968  82.212  1.00  0.00     0.000 A 
HETATM   31  C17 UNL     1      -8.842 -31.579  83.456  1.00  0.00     0.001 A 
HETATM   32  C18 UNL     1      -7.697 -32.145  83.974  1.00  0.00     0.007 A 
ENDBRANCH  26  27
ENDBRANCH  25  26
ENDBRANCH  13  25
TORSDOF 8
ENDMDL
MODEL 5
REMARK VINA RESULT: -7.599524653      2.702      7.400
REMARK  8 active torsions:
REMARK  status: ('A' for Active; 'I' for Inactive)
REMARK    1  A    between atoms: N2_8  and  C6_10 
REMARK    2  A    between atoms: C6_10  and  C7_11 
REMARK    3  A    between atoms: C7_11  and  C8_12 
REMARK    4  A    between atoms: C8_12  and  C9_13 
REMARK    5  A    between atoms: C9_13  and  N3_14 
REMARK    6  A    between atoms: N5_21  and  C11_23 
REMARK    7  A    between atoms: C11_23  and  C12_24 
REMARK    8  A    between atoms: C12_24  and  C13_25 
ROOT
HETATM    1  C1  UNL     1      -4.353 -34.003  75.567  1.00  0.00     0.102 C 
HETATM    2  C2  UNL     1      -4.512 -33.778  76.758  1.00  0.00    -0.157 C 
HETATM    3  C3  UNL     1      -4.689 -33.493  78.150  1.00  0.00     0.099 C 
HETATM    4  C4  UNL     1      -3.998 -34.168  79.049  1.00  0.00     0.143 A 
HETATM    5  N1  UNL     1      -3.068 -35.187  78.628  1.00  0.00    -0.175 N 
ATOM      6  H1  UNL     1      -2.936 -35.395  77.639  1.00  0.00     0.186 HD
HETATM    7  C5  UNL     1      -2.343 -35.892  79.619  1.00  0.00     0.694 A 
HETATM    8  N2  UNL     1      -1.519 -36.795  79.242  1.00  0.00    -0.226 N 
ATOM      9  H2  UNL     1      -1.001 -37.298  79.963  1.00  0.00     0.177 HD
HETATM   10  N4  UNL     1      -2.515 -35.613  80.999  1.00  0.00    -0.022 N 
ATOM     11  H4  UNL     1      -1.975 -36.141  81.685  1.00  0.00     0.203 HD
HETATM   12  C10 UNL     1      -3.429 -34.608  81.452  1.00  0.00     0.694 A 
HETATM   13  N5  UNL     1      -3.614 -34.326  82.674  1.00  0.00    -0.225 N 
ATOM     14  H5  UNL     1      -3.065 -34.865  83.343  1.00  0.00     0.177 HD
HETATM   15  N6  UNL     1      -4.147 -33.912  80.449  1.00  0.00    -0.175 N 
ATOM     16  H6  UNL     1      -4.806 -33.191  80.741  1.00  0.00     0.186 HD
ENDROOT
BRANCH   8  17
HETATM   17  C6  UNL     1      -1.275 -37.151  77.866  1.00  0.00     0.138 C 
BRANCH  17  18
HETATM   18  C7  UNL     1       0.156 -36.839  77.517  1.00  0.00     0.022 C 
BRANCH  18  19
HETATM   19  C8  UNL     1       0.420 -35.365  77.394  1.00  0.00     0.029 C 
BRANCH  19  20
HETATM   20  C9  UNL     1       1.566 -35.033  76.496  1.00  0.00     0.229 C 
BRANCH  20  21
HETATM   21  N3  UNL     1       1.498 -35.755  75.238  1.00  0.00    -0.079 N 
ATOM     22  H33 UNL     1       2.424 -36.051  74.930  1.00  0.00     0.274 HD
ATOM     23  H32 UNL     1       1.069 -36.672  75.360  1.00  0.00     0.274 HD
ATOM     24  H31 UNL     1       1.022 -35.218  74.514  1.00  0.00     0.274 HD
ENDBRANCH  20  21
ENDBRANCH  19  20
ENDBRANCH  18  19
ENDBRANCH  17  18
ENDBRANCH   8  17
BRANCH  13  25
HETATM   25  C11 UNL     1      -4.488 -33.356  83.230  1.00  0.00     0.142 C 
BRANCH  25  26
HETATM   26  C12 UNL     1      -5.908 -33.854  83.394  1.00  0.00     0.058 C 
BRANCH  26  27
HETATM   27  C13 UNL     1      -6.882 -32.775  83.032  1.00  0.00    -0.057 A 
HETATM   28  C14 UNL     1      -7.984 -32.502  83.795  1.00  0.00     0.007 A 
HETATM   29  C15 UNL     1      -8.850 -31.510  83.434  1.00  0.00     0.001 A 
HETATM   30  C16 UNL     1      -8.642 -30.760  82.297  1.00  0.00     0.000 A 
HETATM   31  C17 UNL     1      -7.527 -31.029  81.519  1.00  0.00     0.001 A 
HETATM   32  C18 UNL     1      -6.660 -32.033  81.894  1.00  0.00     0.007 A 
ENDBRANCH  26  27
ENDBRANCH  25  26
ENDBRANCH  13  25
TORSDOF 8
ENDMDL
