MODEL 1
REMARK VINA RESULT: -8.590356616      0.000      0.000
REMARK  3 active torsions:
REMARK  status: ('A' for Active; 'I' for Inactive)
REMARK    1  A    between atoms: C3_5  and  C4_6 
REMARK    2  A    between atoms: C4_6  and  C5_7 
REMARK    3  A    between atoms: C15_17  and  C16_18 
ROOT
HETATM    1  C4  UNL     1     -10.552 -26.844 -13.819  1.00  0.00     0.062 C 
ENDROOT
BRANCH   1   2
HETATM    2  C3  UNL     1     -11.377 -27.995 -14.262  1.00  0.00     0.011 A 
HETATM    3  N1  UNL     1     -11.197 -29.285 -13.951  1.00  0.00    -0.360 N 
HETATM    4  C2  UNL     1     -12.135 -30.050 -14.530  1.00  0.00     0.033 A 
ATOM      5  H1  UNL     1     -10.449 -29.638 -13.355  1.00  0.00     0.166 HD
HETATM    6  C1  UNL     1     -12.247 -31.358 -14.431  1.00  0.00     0.044 C 
HETATM    7  C15 UNL     1     -12.957 -29.211 -15.248  1.00  0.00    -0.013 A 
HETATM    8  C14 UNL     1     -12.481 -27.905 -15.081  1.00  0.00     0.038 A 
BRANCH   7   9
HETATM    9  C16 UNL     1     -14.004 -29.599 -15.959  1.00  0.00    -0.017 C 
HETATM   10  C17 UNL     1     -14.389 -28.763 -17.127  1.00  0.00     0.037 C 
ENDBRANCH   7   9
ENDBRANCH   1   2
BRANCH   1  11
HETATM   11  C5  UNL     1      -9.131 -27.214 -14.004  1.00  0.00    -0.004 C 
HETATM   12  C6  UNL     1      -8.452 -26.634 -15.194  1.00  0.00     0.010 C 
HETATM   13  C7  UNL     1      -6.979 -26.744 -14.854  1.00  0.00    -0.014 C 
HETATM   14  C8  UNL     1      -6.461 -25.344 -14.653  1.00  0.00     0.005 C 
HETATM   15  C13 UNL     1      -6.904 -27.393 -13.463  1.00  0.00     0.010 C 
HETATM   16  C9  UNL     1      -6.961 -24.662 -13.442  1.00  0.00     0.005 C 
HETATM   17  C10 UNL     1      -8.094 -25.317 -12.729  1.00  0.00    -0.014 C 
HETATM   18  C11 UNL     1      -8.034 -24.994 -11.230  1.00  0.00     0.010 C 
HETATM   19  C12 UNL     1      -8.199 -26.784 -12.884  1.00  0.00    -0.006 C 
ENDBRANCH   1  11
TORSDOF 3
ENDMDL
MODEL 2
REMARK VINA RESULT: -8.194850040      2.528      3.386
REMARK  3 active torsions:
REMARK  status: ('A' for Active; 'I' for Inactive)
REMARK    1  A    between atoms: C3_5  and  C4_6 
REMARK    2  A    between atoms: C4_6  and  C5_7 
REMARK    3  A    between atoms: C15_17  and  C16_18 
ROOT
HETATM    1  C4  UNL     1      -9.064 -27.976 -13.843  1.00  0.00     0.062 C 
ENDROOT
BRANCH   1   2
HETATM    2  C3  UNL     1      -9.111 -29.433 -14.124  1.00  0.00     0.011 A 
HETATM    3  N1  UNL     1     -10.169 -30.244 -14.005  1.00  0.00    -0.360 N 
HETATM    4  C2  UNL     1      -9.845 -31.501 -14.344  1.00  0.00     0.033 A 
ATOM      5  H1  UNL     1     -11.095 -29.947 -13.699  1.00  0.00     0.166 HD
HETATM    6  C1  UNL     1     -10.650 -32.544 -14.339  1.00  0.00     0.044 C 
HETATM    7  C15 UNL     1      -8.515 -31.497 -14.698  1.00  0.00    -0.013 A 
HETATM    8  C14 UNL     1      -8.043 -30.186 -14.560  1.00  0.00     0.038 A 
BRANCH   7   9
HETATM    9  C16 UNL     1      -7.831 -32.559 -15.094  1.00  0.00    -0.017 C 
HETATM   10  C17 UNL     1      -6.658 -32.329 -15.980  1.00  0.00     0.037 C 
ENDBRANCH   7   9
ENDBRANCH   1   2
BRANCH   1  11
HETATM   11  C5  UNL     1      -7.640 -27.577 -13.780  1.00  0.00    -0.004 C 
HETATM   12  C6  UNL     1      -7.137 -26.758 -14.915  1.00  0.00     0.010 C 
HETATM   13  C7  UNL     1      -5.893 -26.098 -14.355  1.00  0.00    -0.014 C 
HETATM   14  C8  UNL     1      -6.184 -24.625 -14.236  1.00  0.00     0.005 C 
HETATM   15  C13 UNL     1      -5.758 -26.590 -12.906  1.00  0.00     0.010 C 
HETATM   16  C9  UNL     1      -7.165 -24.266 -13.192  1.00  0.00     0.005 C 
HETATM   17  C10 UNL     1      -7.931 -25.391 -12.583  1.00  0.00    -0.014 C 
HETATM   18  C11 UNL     1      -8.309 -25.050 -11.135  1.00  0.00     0.010 C 
HETATM   19  C12 UNL     1      -7.264 -26.711 -12.591  1.00  0.00    -0.006 C 
ENDBRANCH   1  11
TORSDOF 3
ENDMDL
MODEL 3
REMARK VINA RESULT: -8.175552340      0.843      1.755
REMARK  3 active torsions:
REMARK  status: ('A' for Active; 'I' for Inactive)
REMARK    1  A    between atoms: C3_5  and  C4_6 
REMARK    2  A    between atoms: C4_6  and  C5_7 
REMARK    3  A    between atoms: C15_17  and  C16_18 
ROOT
HETATM    1  C4  UNL     1     -10.741 -26.804 -13.557  1.00  0.00     0.062 C 
ENDROOT
BRANCH   1   2
HETATM    2  C3  UNL     1     -11.657 -27.711 -14.293  1.00  0.00     0.011 A 
HETATM    3  N1  UNL     1     -12.388 -27.416 -15.375  1.00  0.00    -0.360 N 
HETATM    4  C2  UNL     1     -13.100 -28.481 -15.773  1.00  0.00     0.033 A 
ATOM      5  H1  UNL     1     -12.402 -26.506 -15.834  1.00  0.00     0.166 HD
HETATM    6  C1  UNL     1     -13.921 -28.532 -16.802  1.00  0.00     0.044 C 
HETATM    7  C15 UNL     1     -12.812 -29.511 -14.905  1.00  0.00    -0.013 A 
HETATM    8  C14 UNL     1     -11.895 -29.027 -13.963  1.00  0.00     0.038 A 
BRANCH   7   9
HETATM    9  C16 UNL     1     -13.325 -30.728 -14.974  1.00  0.00    -0.017 C 
HETATM   10  C17 UNL     1     -12.571 -31.830 -14.319  1.00  0.00     0.037 C 
ENDBRANCH   7   9
ENDBRANCH   1   2
BRANCH   1  11
HETATM   11  C5  UNL     1      -9.355 -27.243 -13.836  1.00  0.00    -0.004 C 
HETATM   12  C6  UNL     1      -8.755 -26.754 -15.106  1.00  0.00     0.010 C 
HETATM   13  C7  UNL     1      -7.264 -26.909 -14.879  1.00  0.00    -0.014 C 
HETATM   14  C8  UNL     1      -6.678 -25.524 -14.796  1.00  0.00     0.005 C 
HETATM   15  C13 UNL     1      -7.101 -27.490 -13.465  1.00  0.00     0.010 C 
HETATM   16  C9  UNL     1      -7.051 -24.761 -13.587  1.00  0.00     0.005 C 
HETATM   17  C10 UNL     1      -8.146 -25.330 -12.751  1.00  0.00    -0.014 C 
HETATM   18  C11 UNL     1      -7.949 -24.934 -11.281  1.00  0.00     0.010 C 
HETATM   19  C12 UNL     1      -8.319 -26.797 -12.818  1.00  0.00    -0.006 C 
ENDBRANCH   1  11
TORSDOF 3
ENDMDL
MODEL 4
REMARK VINA RESULT: -8.092963250      1.268      2.575
REMARK  3 active torsions:
REMARK  status: ('A' for Active; 'I' for Inactive)
REMARK    1  A    between atoms: C3_5  and  C4_6 
REMARK    2  A    between atoms: C4_6  and  C5_7 
REMARK    3  A    between atoms: C15_17  and  C16_18 
ROOT
HETATM    1  C4  UNL     1      -8.991 -26.500 -12.683  1.00  0.00     0.062 C 
ENDROOT
BRANCH   1   2
HETATM    2  C3  UNL     1      -9.755 -27.360 -13.622  1.00  0.00     0.011 A 
HETATM    3  N1  UNL     1      -9.748 -28.697 -13.680  1.00  0.00    -0.360 N 
HETATM    4  C2  UNL     1     -10.560 -29.135 -14.653  1.00  0.00     0.033 A 
ATOM      5  H1  UNL     1      -9.199 -29.300 -13.068  1.00  0.00     0.166 HD
HETATM    6  C1  UNL     1     -10.783 -30.392 -14.978  1.00  0.00     0.044 C 
HETATM    7  C15 UNL     1     -11.117 -28.026 -15.249  1.00  0.00    -0.013 A 
HETATM    8  C14 UNL     1     -10.609 -26.895 -14.598  1.00  0.00     0.038 A 
BRANCH   7   9
HETATM    9  C16 UNL     1     -11.975 -28.055 -16.255  1.00  0.00    -0.017 C 
HETATM   10  C17 UNL     1     -13.376 -28.455 -15.952  1.00  0.00     0.037 C 
ENDBRANCH   7   9
ENDBRANCH   1   2
BRANCH   1  11
HETATM   11  C5  UNL     1      -8.021 -25.717 -13.482  1.00  0.00    -0.004 C 
HETATM   12  C6  UNL     1      -7.002 -24.954 -12.712  1.00  0.00     0.010 C 
HETATM   13  C7  UNL     1      -5.903 -24.704 -13.725  1.00  0.00    -0.014 C 
HETATM   14  C8  UNL     1      -4.709 -25.516 -13.297  1.00  0.00     0.005 C 
HETATM   15  C13 UNL     1      -6.369 -25.353 -15.038  1.00  0.00     0.010 C 
HETATM   16  C9  UNL     1      -4.868 -26.978 -13.436  1.00  0.00     0.005 C 
HETATM   17  C10 UNL     1      -6.245 -27.475 -13.716  1.00  0.00    -0.014 C 
HETATM   18  C11 UNL     1      -6.183 -28.777 -14.527  1.00  0.00     0.010 C 
HETATM   19  C12 UNL     1      -7.145 -26.534 -14.417  1.00  0.00    -0.006 C 
ENDBRANCH   1  11
TORSDOF 3
ENDMDL
MODEL 5
REMARK VINA RESULT: -7.979363650      2.837      3.470
REMARK  3 active torsions:
REMARK  status: ('A' for Active; 'I' for Inactive)
REMARK    1  A    between atoms: C3_5  and  C4_6 
REMARK    2  A    between atoms: C4_6  and  C5_7 
REMARK    3  A    between atoms: C15_17  and  C16_18 
ROOT
HETATM    1  C4  UNL     1      -8.622 -28.208 -13.744  1.00  0.00     0.062 C 
ENDROOT
BRANCH   1   2
HETATM    2  C3  UNL     1      -8.476 -29.616 -14.191  1.00  0.00     0.011 A 
HETATM    3  N1  UNL     1      -7.435 -30.152 -14.840  1.00  0.00    -0.360 N 
HETATM    4  C2  UNL     1      -7.646 -31.454 -15.085  1.00  0.00     0.033 A 
ATOM      5  H1  UNL     1      -6.595 -29.641 -15.110  1.00  0.00     0.166 HD
HETATM    6  C1  UNL     1      -6.824 -32.277 -15.704  1.00  0.00     0.044 C 
HETATM    7  C15 UNL     1      -8.883 -31.769 -14.569  1.00  0.00    -0.013 A 
HETATM    8  C14 UNL     1      -9.415 -30.606 -14.000  1.00  0.00     0.038 A 
BRANCH   7   9
HETATM    9  C16 UNL     1      -9.443 -32.967 -14.618  1.00  0.00    -0.017 C 
HETATM   10  C17 UNL     1     -10.871 -33.075 -14.214  1.00  0.00     0.037 C 
ENDBRANCH   7   9
ENDBRANCH   1   2
BRANCH   1  11
HETATM   11  C5  UNL     1      -7.268 -27.616 -13.677  1.00  0.00    -0.004 C 
HETATM   12  C6  UNL     1      -6.858 -26.782 -14.838  1.00  0.00     0.010 C 
HETATM   13  C7  UNL     1      -5.727 -25.936 -14.289  1.00  0.00    -0.014 C 
HETATM   14  C8  UNL     1      -6.218 -24.513 -14.237  1.00  0.00     0.005 C 
HETATM   15  C13 UNL     1      -5.555 -26.346 -12.818  1.00  0.00     0.010 C 
HETATM   16  C9  UNL     1      -7.260 -24.250 -13.223  1.00  0.00     0.005 C 
HETATM   17  C10 UNL     1      -7.877 -25.444 -12.578  1.00  0.00    -0.014 C 
HETATM   18  C11 UNL     1      -8.328 -25.100 -11.152  1.00  0.00     0.010 C 
HETATM   19  C12 UNL     1      -7.037 -26.659 -12.520  1.00  0.00    -0.006 C 
ENDBRANCH   1  11
TORSDOF 3
ENDMDL
