MODEL 1
REMARK VINA RESULT: -4.262467681      0.000      0.000
REMARK  4 active torsions:
REMARK  status: ('A' for Active; 'I' for Inactive)
REMARK    1  A    between atoms: C2_2  and  N1_4 
REMARK    2  A    between atoms: N1_4  and  S1_6 
REMARK    3  A    between atoms: S1_6  and  N2_7 
REMARK    4  A    between atoms: S1_6  and  N3_10 
ROOT
HETATM    1  S1  UNL     1      55.678  94.449   7.618  1.00  0.00     0.186 S 
HETATM    2  O1  UNL     1      55.358  95.279   8.818  1.00  0.00    -0.207 OA
ENDROOT
BRANCH   1   3
HETATM    3  N1  UNL     1      55.012  93.061   7.842  1.00  0.00    -0.316 N 
ATOM      4  H1  UNL     1      55.170  92.590   8.733  1.00  0.00     0.172 HD
BRANCH   3   5
HETATM    5  C2  UNL     1      54.197  92.415   6.879  1.00  0.00     0.085 C 
HETATM    6  C1  UNL     1      52.926  91.964   7.614  1.00  0.00     0.032 C 
HETATM    7  C3  UNL     1      54.835  91.236   6.218  1.00  0.00     0.032 C 
ENDBRANCH   3   5
ENDBRANCH   1   3
BRANCH   1   8
HETATM    8  N2  UNL     1      55.225  95.168   6.144  1.00  0.00    -0.329 N 
ATOM      9  H22 UNL     1      54.886  94.628   5.348  1.00  0.00     0.168 HD
ATOM     10  H21 UNL     1      55.330  96.183   6.149  1.00  0.00     0.168 HD
ENDBRANCH   1   8
BRANCH   1  11
HETATM   11  N3  UNL     1      57.391  94.186   7.609  1.00  0.00    -0.329 N 
ATOM     12  H32 UNL     1      57.936  93.824   6.827  1.00  0.00     0.168 HD
ATOM     13  H31 UNL     1      57.735  94.461   8.530  1.00  0.00     0.168 HD
ENDBRANCH   1  11
TORSDOF 4
ENDMDL
MODEL 2
REMARK VINA RESULT: -3.715292051      1.315      1.653
REMARK  4 active torsions:
REMARK  status: ('A' for Active; 'I' for Inactive)
REMARK    1  A    between atoms: C2_2  and  N1_4 
REMARK    2  A    between atoms: N1_4  and  S1_6 
REMARK    3  A    between atoms: S1_6  and  N2_7 
REMARK    4  A    between atoms: S1_6  and  N3_10 
ROOT
HETATM    1  S1  UNL     1      55.921  94.360   7.662  1.00  0.00     0.186 S 
HETATM    2  O1  UNL     1      57.406  94.208   7.592  1.00  0.00    -0.207 OA
ENDROOT
BRANCH   1   3
HETATM    3  N1  UNL     1      55.326  92.924   7.732  1.00  0.00    -0.316 N 
ATOM      4  H1  UNL     1      55.637  92.311   8.486  1.00  0.00     0.172 HD
BRANCH   3   5
HETATM    5  C2  UNL     1      54.377  92.421   6.808  1.00  0.00     0.085 C 
HETATM    6  C1  UNL     1      53.074  92.209   7.593  1.00  0.00     0.032 C 
HETATM    7  C3  UNL     1      54.774  91.140   6.147  1.00  0.00     0.032 C 
ENDBRANCH   3   5
ENDBRANCH   1   3
BRANCH   1   8
HETATM    8  N2  UNL     1      55.391  95.358   8.934  1.00  0.00    -0.329 N 
ATOM      9  H22 UNL     1      54.621  95.102   9.551  1.00  0.00     0.168 HD
ATOM     10  H21 UNL     1      55.923  96.226   9.004  1.00  0.00     0.168 HD
ENDBRANCH   1   8
BRANCH   1  11
HETATM   11  N3  UNL     1      55.398  95.045   6.157  1.00  0.00    -0.329 N 
ATOM     12  H32 UNL     1      55.844  95.820   5.666  1.00  0.00     0.168 HD
ATOM     13  H31 UNL     1      54.568  94.525   5.870  1.00  0.00     0.168 HD
ENDBRANCH   1  11
TORSDOF 4
ENDMDL
MODEL 3
REMARK VINA RESULT: -3.591255900      1.271      2.071
REMARK  4 active torsions:
REMARK  status: ('A' for Active; 'I' for Inactive)
REMARK    1  A    between atoms: C2_2  and  N1_4 
REMARK    2  A    between atoms: N1_4  and  S1_6 
REMARK    3  A    between atoms: S1_6  and  N2_7 
REMARK    4  A    between atoms: S1_6  and  N3_10 
ROOT
HETATM    1  S1  UNL     1      55.554  94.396   7.171  1.00  0.00     0.186 S 
HETATM    2  O1  UNL     1      55.031  95.597   6.453  1.00  0.00    -0.207 OA
ENDROOT
BRANCH   1   3
HETATM    3  N1  UNL     1      54.993  93.150   6.427  1.00  0.00    -0.316 N 
ATOM      4  H1  UNL     1      55.008  93.151   5.406  1.00  0.00     0.172 HD
BRANCH   3   5
HETATM    5  C2  UNL     1      54.463  92.013   7.086  1.00  0.00     0.085 C 
HETATM    6  C1  UNL     1      54.618  90.833   6.115  1.00  0.00     0.032 C 
HETATM    7  C3  UNL     1      53.029  92.142   7.490  1.00  0.00     0.032 C 
ENDBRANCH   3   5
ENDBRANCH   1   3
BRANCH   1   8
HETATM    8  N2  UNL     1      57.248  94.368   7.322  1.00  0.00    -0.329 N 
ATOM      9  H22 UNL     1      57.815  93.573   7.027  1.00  0.00     0.168 HD
ATOM     10  H21 UNL     1      57.623  95.223   7.733  1.00  0.00     0.168 HD
ENDBRANCH   1   8
BRANCH   1  11
HETATM   11  N3  UNL     1      54.850  94.390   8.755  1.00  0.00    -0.329 N 
ATOM     12  H32 UNL     1      53.990  93.912   9.025  1.00  0.00     0.168 HD
ATOM     13  H31 UNL     1      55.460  94.951   9.350  1.00  0.00     0.168 HD
ENDBRANCH   1  11
TORSDOF 4
ENDMDL
MODEL 4
REMARK VINA RESULT: -3.083911542      1.271      1.553
REMARK  4 active torsions:
REMARK  status: ('A' for Active; 'I' for Inactive)
REMARK    1  A    between atoms: C2_2  and  N1_4 
REMARK    2  A    between atoms: N1_4  and  S1_6 
REMARK    3  A    between atoms: S1_6  and  N2_7 
REMARK    4  A    between atoms: S1_6  and  N3_10 
ROOT
HETATM    1  S1  UNL     1      55.688  94.496   7.593  1.00  0.00     0.186 S 
HETATM    2  O1  UNL     1      54.931  95.183   6.504  1.00  0.00    -0.207 OA
ENDROOT
BRANCH   1   3
HETATM    3  N1  UNL     1      54.979  93.133   7.840  1.00  0.00    -0.316 N 
ATOM      4  H1  UNL     1      55.083  92.695   8.756  1.00  0.00     0.172 HD
BRANCH   3   5
HETATM    5  C2  UNL     1      54.198  92.465   6.865  1.00  0.00     0.085 C 
HETATM    6  C1  UNL     1      52.926  91.982   7.579  1.00  0.00     0.032 C 
HETATM    7  C3  UNL     1      54.877  91.302   6.216  1.00  0.00     0.032 C 
ENDBRANCH   3   5
ENDBRANCH   1   3
BRANCH   1   8
HETATM    8  N2  UNL     1      57.351  94.328   7.276  1.00  0.00    -0.329 N 
ATOM      9  H22 UNL     1      57.780  94.638   6.404  1.00  0.00     0.168 HD
ATOM     10  H21 UNL     1      57.858  93.889   8.044  1.00  0.00     0.168 HD
ENDBRANCH   1   8
BRANCH   1  11
HETATM   11  N3  UNL     1      55.486  95.433   9.038  1.00  0.00    -0.329 N 
ATOM     12  H32 UNL     1      56.138  95.471   9.822  1.00  0.00     0.168 HD
ATOM     13  H31 UNL     1      54.599  95.929   8.945  1.00  0.00     0.168 HD
ENDBRANCH   1  11
TORSDOF 4
ENDMDL
MODEL 5
REMARK VINA RESULT: -2.963611941      1.417      2.094
REMARK  4 active torsions:
REMARK  status: ('A' for Active; 'I' for Inactive)
REMARK    1  A    between atoms: C2_2  and  N1_4 
REMARK    2  A    between atoms: N1_4  and  S1_6 
REMARK    3  A    between atoms: S1_6  and  N2_7 
REMARK    4  A    between atoms: S1_6  and  N3_10 
ROOT
HETATM    1  S1  UNL     1      55.754  94.235   7.329  1.00  0.00     0.186 S 
HETATM    2  O1  UNL     1      57.226  94.168   7.574  1.00  0.00    -0.207 OA
ENDROOT
BRANCH   1   3
HETATM    3  N1  UNL     1      55.362  92.920   6.595  1.00  0.00    -0.316 N 
ATOM      4  H1  UNL     1      55.713  92.774   5.648  1.00  0.00     0.172 HD
BRANCH   3   5
HETATM    5  C2  UNL     1      54.545  91.914   7.168  1.00  0.00     0.085 C 
HETATM    6  C1  UNL     1      54.525  90.747   6.170  1.00  0.00     0.032 C 
HETATM    7  C3  UNL     1      53.143  92.345   7.459  1.00  0.00     0.032 C 
ENDBRANCH   3   5
ENDBRANCH   1   3
BRANCH   1   8
HETATM    8  N2  UNL     1      54.834  94.507   8.733  1.00  0.00    -0.329 N 
ATOM      9  H22 UNL     1      54.809  93.849   9.512  1.00  0.00     0.168 HD
ATOM     10  H21 UNL     1      54.321  95.389   8.706  1.00  0.00     0.168 HD
ENDBRANCH   1   8
BRANCH   1  11
HETATM   11  N3  UNL     1      55.471  95.533   6.214  1.00  0.00    -0.329 N 
ATOM     12  H32 UNL     1      56.173  96.188   5.869  1.00  0.00     0.168 HD
ATOM     13  H31 UNL     1      54.478  95.508   5.980  1.00  0.00     0.168 HD
ENDBRANCH   1  11
TORSDOF 4
ENDMDL
