MODEL 1
REMARK VINA RESULT: -11.606518944      0.000      0.000
REMARK  2 active torsions:
REMARK  status: ('A' for Active; 'I' for Inactive)
REMARK    1  A    between atoms: N5_26  and  O4_28 
REMARK    2  A    between atoms: C17_32  and  O5_33 
ROOT
HETATM    1  N1  UNL     1      -2.663   2.952  -0.377  1.00  0.00    -0.188 NA
HETATM    2  C1  UNL     1      -1.774   2.432   0.133  1.00  0.00     0.145 C 
HETATM    3  C2  UNL     1      -0.647   1.802   0.776  1.00  0.00     0.233 A 
HETATM    4  N2  UNL     1      -0.657   0.561   1.299  1.00  0.00    -0.322 N 
ATOM      5  H2  UNL     1      -1.447  -0.085   1.307  1.00  0.00     0.169 HD
HETATM    6  C3  UNL     1       0.563   0.330   1.806  1.00  0.00     0.116 A 
HETATM    7  C4  UNL     1       1.326   1.456   1.585  1.00  0.00     0.180 A 
HETATM    8  N3  UNL     1       2.577   1.317   2.066  1.00  0.00    -0.332 N 
ATOM      9  H3  UNL     1       3.342   1.991   2.036  1.00  0.00     0.168 HD
HETATM   10  C5  UNL     1       2.583   0.089   2.590  1.00  0.00     0.075 A 
HETATM   11  C6  UNL     1       3.550  -0.541   3.207  1.00  0.00     0.041 A 
HETATM   12  C7  UNL     1       3.164  -1.916   3.674  1.00  0.00     0.024 A 
HETATM   13  C8  UNL     1       2.145  -2.536   3.592  1.00  0.00     0.103 A 
HETATM   14  N4  UNL     1       1.113  -1.824   2.923  1.00  0.00    -0.361 N 
ATOM     15  H4  UNL     1       0.195  -2.250   2.792  1.00  0.00     0.165 HD
HETATM   16  C9  UNL     1       1.358  -0.583   2.463  1.00  0.00     0.091 A 
HETATM   17  C10 UNL     1       4.182  -2.508   4.464  1.00  0.00     0.101 C 
HETATM   18  C11 UNL     1       3.731  -1.713   5.544  1.00  0.00     0.248 C 
HETATM   19  O1  UNL     1       2.809  -0.902   5.858  1.00  0.00    -0.282 OA
HETATM   20  C12 UNL     1       4.872  -1.916   6.454  1.00  0.00     0.242 C 
HETATM   21  O2  UNL     1       4.963  -2.358   7.503  1.00  0.00    -0.285 OA
HETATM   22  C13 UNL     1       6.102  -1.285   5.513  1.00  0.00     0.208 C 
HETATM   23  O3  UNL     1       6.875  -0.953   6.529  1.00  0.00    -0.359 OA
HETATM   24  C14 UNL     1       8.015  -0.320   6.504  1.00  0.00     0.236 C 
HETATM   25  C15 UNL     1       7.768   1.108   6.164  1.00  0.00     0.092 C 
HETATM   26  N5  UNL     1       8.164   2.101   6.847  1.00  0.00    -0.265 N 
ATOM     27  H5  UNL     1       8.696   1.932   7.701  1.00  0.00     0.194 HD
HETATM   28  S1  UNL     1       6.829   1.205   4.651  1.00  0.00    -0.099 SA
HETATM   29  C16 UNL     1       5.519  -0.150   4.813  1.00  0.00     0.162 C 
HETATM   30  C17 UNL     1       4.777   0.127   3.560  1.00  0.00     0.183 C 
HETATM   31  N6  UNL     1       5.568   0.119   2.340  1.00  0.00    -0.305 N 
ATOM     32  H6  UNL     1       5.373   0.916   1.733  1.00  0.00     0.167 HD
HETATM   33  C18 UNL     1       6.552  -0.754   1.808  1.00  0.00     0.325 C 
HETATM   34  O6  UNL     1       7.011  -0.423   0.689  1.00  0.00    -0.247 OA
HETATM   35  N7  UNL     1       7.120  -1.954   2.322  1.00  0.00    -0.275 N 
ATOM     36  H7  UNL     1       7.483  -2.568   1.594  1.00  0.00     0.173 HD
HETATM   37  C19 UNL     1       7.289  -2.474   3.620  1.00  0.00     0.287 C 
HETATM   38  O7  UNL     1       8.429  -3.064   3.659  1.00  0.00    -0.268 OA
HETATM   39  C20 UNL     1       6.516  -2.491   4.833  1.00  0.00     0.324 C 
HETATM   40  N8  UNL     1       6.931  -3.600   5.634  1.00  0.00    -0.020 N 
ATOM     41  H81 UNL     1       6.754  -3.612   6.639  1.00  0.00     0.282 HD
ATOM     42  H82 UNL     1       7.920  -3.766   5.821  1.00  0.00     0.282 HD
HETATM   43  C21 UNL     1       6.182  -4.477   4.732  1.00  0.00     0.364 C 
HETATM   44  N9  UNL     1       5.264  -3.353   4.611  1.00  0.00    -0.309 N 
HETATM   45  O8  UNL     1       0.541   2.296   0.966  1.00  0.00    -0.265 OA
ENDROOT
BRANCH  30  46
HETATM   46  O5  UNL     1       4.580   1.550   3.699  1.00  0.00    -0.365 OA
ATOM     47  H5  UNL     1       5.307   2.038   3.329  1.00  0.00     0.213 HD
ENDBRANCH  30  46
BRANCH  26  48
HETATM   48  O4  UNL     1       7.902   3.380   6.479  1.00  0.00    -0.289 OA
ATOM     49  H4  UNL     1       7.173   3.869   6.839  1.00  0.00     0.244 HD
ENDBRANCH  26  48
TORSDOF 2
ENDMDL
MODEL 2
REMARK VINA RESULT: -10.962384906      1.104      1.140
REMARK  2 active torsions:
REMARK  status: ('A' for Active; 'I' for Inactive)
REMARK    1  A    between atoms: N5_26  and  O4_28 
REMARK    2  A    between atoms: C17_32  and  O5_33 
ROOT
HETATM    1  N1  UNL     1      -2.182   2.573  -0.064  1.00  0.00    -0.188 NA
HETATM    2  C1  UNL     1      -1.231   2.092   0.367  1.00  0.00     0.145 C 
HETATM    3  C2  UNL     1      -0.026   1.512   0.907  1.00  0.00     0.233 A 
HETATM    4  N2  UNL     1       0.042   0.312   1.516  1.00  0.00    -0.322 N 
ATOM      5  H2  UNL     1      -0.734  -0.331   1.671  1.00  0.00     0.169 HD
HETATM    6  C3  UNL     1       1.319   0.121   1.880  1.00  0.00     0.116 A 
HETATM    7  C4  UNL     1       2.037   1.227   1.483  1.00  0.00     0.180 A 
HETATM    8  N3  UNL     1       3.340   1.124   1.810  1.00  0.00    -0.332 N 
ATOM      9  H3  UNL     1       4.088   1.795   1.635  1.00  0.00     0.168 HD
HETATM   10  C5  UNL     1       3.423  -0.061   2.419  1.00  0.00     0.075 A 
HETATM   11  C6  UNL     1       4.467  -0.644   2.953  1.00  0.00     0.041 A 
HETATM   12  C7  UNL     1       4.155  -1.980   3.564  1.00  0.00     0.024 A 
HETATM   13  C8  UNL     1       3.140  -2.605   3.657  1.00  0.00     0.103 A 
HETATM   14  N4  UNL     1       2.026  -1.945   3.073  1.00  0.00    -0.361 N 
ATOM     15  H4  UNL     1       1.103  -2.380   3.091  1.00  0.00     0.165 HD
HETATM   16  C9  UNL     1       2.199  -0.742   2.496  1.00  0.00     0.091 A 
HETATM   17  C10 UNL     1       5.270  -2.512   4.261  1.00  0.00     0.101 C 
HETATM   18  C11 UNL     1       4.951  -1.639   5.327  1.00  0.00     0.248 C 
HETATM   19  O1  UNL     1       4.068  -0.808   5.695  1.00  0.00    -0.282 OA
HETATM   20  C12 UNL     1       6.200  -1.775   6.098  1.00  0.00     0.242 C 
HETATM   21  O2  UNL     1       6.426  -2.138   7.157  1.00  0.00    -0.285 OA
HETATM   22  C13 UNL     1       7.295  -1.214   4.966  1.00  0.00     0.208 C 
HETATM   23  O3  UNL     1       8.187  -0.808   5.849  1.00  0.00    -0.359 OA
HETATM   24  C14 UNL     1       9.309  -0.179   5.634  1.00  0.00     0.236 C 
HETATM   25  C15 UNL     1       9.007   1.220   5.225  1.00  0.00     0.092 C 
HETATM   26  N5  UNL     1       9.476   2.262   5.777  1.00  0.00    -0.265 N 
ATOM     27  H5  UNL     1      10.114   2.156   6.567  1.00  0.00     0.194 HD
HETATM   28  S1  UNL     1       7.884   1.205   3.839  1.00  0.00    -0.099 SA
HETATM   29  C16 UNL     1       6.618  -0.135   4.264  1.00  0.00     0.162 C 
HETATM   30  C17 UNL     1       5.722   0.048   3.098  1.00  0.00     0.183 C 
HETATM   31  N6  UNL     1       6.353  -0.049   1.791  1.00  0.00    -0.305 N 
ATOM     32  H6  UNL     1       6.075   0.700   1.158  1.00  0.00     0.167 HD
HETATM   33  C18 UNL     1       7.270  -0.959   1.205  1.00  0.00     0.325 C 
HETATM   34  O6  UNL     1       7.581  -0.711   0.016  1.00  0.00    -0.247 OA
HETATM   35  N7  UNL     1       7.909  -2.117   1.730  1.00  0.00    -0.275 N 
ATOM     36  H7  UNL     1       8.184  -2.783   1.008  1.00  0.00     0.173 HD
HETATM   37  C19 UNL     1       8.246  -2.540   3.030  1.00  0.00     0.287 C 
HETATM   38  O7  UNL     1       9.388  -3.126   2.968  1.00  0.00    -0.268 OA
HETATM   39  C20 UNL     1       7.632  -2.467   4.329  1.00  0.00     0.324 C 
HETATM   40  N8  UNL     1       8.156  -3.514   5.151  1.00  0.00    -0.020 N 
ATOM     41  H81 UNL     1       8.107  -3.452   6.168  1.00  0.00     0.282 HD
ATOM     42  H82 UNL     1       9.162  -3.666   5.223  1.00  0.00     0.282 HD
HETATM   43  C21 UNL     1       7.307  -4.456   4.417  1.00  0.00     0.364 C 
HETATM   44  N9  UNL     1       6.371  -3.344   4.331  1.00  0.00    -0.309 N 
HETATM   45  O8  UNL     1       1.172   2.019   0.908  1.00  0.00    -0.265 OA
ENDROOT
BRANCH  30  46
HETATM   46  O5  UNL     1       5.530   1.478   3.156  1.00  0.00    -0.365 OA
ATOM     47  H5  UNL     1       6.339   1.943   2.975  1.00  0.00     0.213 HD
ENDBRANCH  30  46
BRANCH  26  48
HETATM   48  O4  UNL     1       9.158   3.509   5.353  1.00  0.00    -0.289 OA
ATOM     49  H4  UNL     1       9.683   3.973   4.711  1.00  0.00     0.244 HD
ENDBRANCH  26  48
TORSDOF 2
ENDMDL
MODEL 3
REMARK VINA RESULT: -10.909419544      2.226      4.566
REMARK  2 active torsions:
REMARK  status: ('A' for Active; 'I' for Inactive)
REMARK    1  A    between atoms: N5_26  and  O4_28 
REMARK    2  A    between atoms: C17_32  and  O5_33 
ROOT
HETATM    1  N1  UNL     1      -2.132   2.723  -0.385  1.00  0.00    -0.188 NA
HETATM    2  C1  UNL     1      -1.202   2.599   0.278  1.00  0.00     0.145 C 
HETATM    3  C2  UNL     1      -0.025   2.425   1.093  1.00  0.00     0.233 A 
HETATM    4  N2  UNL     1       0.433   3.328   1.982  1.00  0.00    -0.322 N 
ATOM      5  H2  UNL     1       0.016   4.235   2.192  1.00  0.00     0.169 HD
HETATM    6  C3  UNL     1       1.539   2.813   2.541  1.00  0.00     0.116 A 
HETATM    7  C4  UNL     1       1.754   1.574   1.978  1.00  0.00     0.180 A 
HETATM    8  N3  UNL     1       2.852   0.978   2.481  1.00  0.00    -0.332 N 
ATOM      9  H3  UNL     1       3.237   0.064   2.242  1.00  0.00     0.168 HD
HETATM   10  C5  UNL     1       3.320   1.863   3.363  1.00  0.00     0.075 A 
HETATM   11  C6  UNL     1       4.386   1.791   4.120  1.00  0.00     0.041 A 
HETATM   12  C7  UNL     1       4.592   3.006   4.978  1.00  0.00     0.024 A 
HETATM   13  C8  UNL     1       3.971   4.021   5.096  1.00  0.00     0.103 A 
HETATM   14  N4  UNL     1       2.824   4.073   4.259  1.00  0.00    -0.361 N 
ATOM     15  H4  UNL     1       2.215   4.891   4.270  1.00  0.00     0.165 HD
HETATM   16  C9  UNL     1       2.549   3.031   3.452  1.00  0.00     0.091 A 
HETATM   17  C10 UNL     1       5.829   2.958   5.670  1.00  0.00     0.101 C 
HETATM   18  C11 UNL     1       6.455   3.360   4.467  1.00  0.00     0.248 C 
HETATM   19  O1  UNL     1       6.183   3.736   3.288  1.00  0.00    -0.282 OA
HETATM   20  C12 UNL     1       7.851   3.074   4.844  1.00  0.00     0.242 C 
HETATM   21  O2  UNL     1       8.783   3.728   4.933  1.00  0.00    -0.285 OA
HETATM   22  C13 UNL     1       7.739   1.430   5.124  1.00  0.00     0.208 C 
HETATM   23  O3  UNL     1       9.005   1.174   4.856  1.00  0.00    -0.359 OA
HETATM   24  C14 UNL     1       9.604   0.016   4.813  1.00  0.00     0.236 C 
HETATM   25  C15 UNL     1       9.150  -0.717   3.599  1.00  0.00     0.092 C 
HETATM   26  N5  UNL     1       9.913  -1.207   2.712  1.00  0.00    -0.265 N 
ATOM     27  H5  UNL     1      10.923  -1.102   2.818  1.00  0.00     0.194 HD
HETATM   28  S1  UNL     1       7.368  -0.799   3.586  1.00  0.00    -0.099 SA
HETATM   29  C16 UNL     1       6.806   0.924   4.129  1.00  0.00     0.162 C 
HETATM   30  C17 UNL     1       5.346   0.727   3.966  1.00  0.00     0.183 C 
HETATM   31  N6  UNL     1       4.773  -0.397   4.688  1.00  0.00    -0.305 N 
ATOM     32  H6  UNL     1       4.142  -0.958   4.116  1.00  0.00     0.167 HD
HETATM   33  C18 UNL     1       4.900  -0.884   6.014  1.00  0.00     0.325 C 
HETATM   34  O6  UNL     1       4.218  -1.904   6.276  1.00  0.00    -0.247 OA
HETATM   35  N7  UNL     1       5.671  -0.420   7.116  1.00  0.00    -0.275 N 
ATOM     36  H7  UNL     1       5.284  -0.692   8.019  1.00  0.00     0.173 HD
HETATM   37  C19 UNL     1       6.856   0.334   7.228  1.00  0.00     0.287 C 
HETATM   38  O7  UNL     1       7.537  -0.150   8.204  1.00  0.00    -0.268 OA
HETATM   39  C20 UNL     1       7.434   1.455   6.536  1.00  0.00     0.324 C 
HETATM   40  N8  UNL     1       8.357   2.114   7.407  1.00  0.00    -0.020 N 
ATOM     41  H81 UNL     1       9.093   2.712   7.030  1.00  0.00     0.282 HD
ATOM     42  H82 UNL     1       9.067   1.583   7.912  1.00  0.00     0.282 HD
HETATM   43  C21 UNL     1       7.211   2.693   8.113  1.00  0.00     0.364 C 
HETATM   44  N9  UNL     1       6.574   2.699   6.804  1.00  0.00    -0.309 N 
HETATM   45  O8  UNL     1       0.782   1.405   1.122  1.00  0.00    -0.265 OA
ENDROOT
BRANCH  30  46
HETATM   46  O5  UNL     1       5.318   0.182   2.629  1.00  0.00    -0.365 OA
ATOM     47  H5  UNL     1       5.231  -0.764   2.644  1.00  0.00     0.213 HD
ENDBRANCH  30  46
BRANCH  26  48
HETATM   48  O4  UNL     1       9.432  -1.864   1.629  1.00  0.00    -0.289 OA
ATOM     49  H4  UNL     1       9.083  -1.405   0.874  1.00  0.00     0.244 HD
ENDBRANCH  26  48
TORSDOF 2
ENDMDL
MODEL 4
REMARK VINA RESULT: -10.595432274      1.752      2.207
REMARK  2 active torsions:
REMARK  status: ('A' for Active; 'I' for Inactive)
REMARK    1  A    between atoms: N5_26  and  O4_28 
REMARK    2  A    between atoms: C17_32  and  O5_33 
ROOT
HETATM    1  N1  UNL     1      -1.743   1.456   0.657  1.00  0.00    -0.188 NA
HETATM    2  C1  UNL     1      -0.712   1.114   1.031  1.00  0.00     0.145 C 
HETATM    3  C2  UNL     1       0.592   0.711   1.499  1.00  0.00     0.233 A 
HETATM    4  N2  UNL     1       0.850  -0.435   2.159  1.00  0.00    -0.322 N 
ATOM      5  H2  UNL     1       0.171  -1.154   2.409  1.00  0.00     0.169 HD
HETATM    6  C3  UNL     1       2.164  -0.455   2.426  1.00  0.00     0.116 A 
HETATM    7  C4  UNL     1       2.712   0.702   1.917  1.00  0.00     0.180 A 
HETATM    8  N3  UNL     1       4.038   0.770   2.141  1.00  0.00    -0.332 N 
ATOM      9  H3  UNL     1       4.685   1.512   1.872  1.00  0.00     0.168 HD
HETATM   10  C5  UNL     1       4.310  -0.360   2.798  1.00  0.00     0.075 A 
HETATM   11  C6  UNL     1       5.453  -0.784   3.273  1.00  0.00     0.041 A 
HETATM   12  C7  UNL     1       5.352  -2.110   3.973  1.00  0.00     0.024 A 
HETATM   13  C8  UNL     1       4.430  -2.842   4.180  1.00  0.00     0.103 A 
HETATM   14  N4  UNL     1       3.203  -2.351   3.658  1.00  0.00    -0.361 N 
ATOM     15  H4  UNL     1       2.343  -2.888   3.773  1.00  0.00     0.165 HD
HETATM   16  C9  UNL     1       3.186  -1.172   3.010  1.00  0.00     0.091 A 
HETATM   17  C10 UNL     1       6.572  -2.467   4.602  1.00  0.00     0.101 C 
HETATM   18  C11 UNL     1       6.232  -1.576   5.646  1.00  0.00     0.248 C 
HETATM   19  O1  UNL     1       5.286  -0.832   6.044  1.00  0.00    -0.282 OA
HETATM   20  C12 UNL     1       7.543  -1.519   6.318  1.00  0.00     0.242 C 
HETATM   21  O2  UNL     1       7.891  -1.791   7.371  1.00  0.00    -0.285 OA
HETATM   22  C13 UNL     1       8.474  -0.903   5.073  1.00  0.00     0.208 C 
HETATM   23  O3  UNL     1       9.374  -0.345   5.859  1.00  0.00    -0.359 OA
HETATM   24  C14 UNL     1      10.393   0.397   5.521  1.00  0.00     0.236 C 
HETATM   25  C15 UNL     1       9.895   1.725   5.069  1.00  0.00     0.092 C 
HETATM   26  N5  UNL     1      10.276   2.844   5.529  1.00  0.00    -0.265 N 
ATOM     27  H5  UNL     1      10.979   2.860   6.268  1.00  0.00     0.194 HD
HETATM   28  S1  UNL     1       8.680   1.498   3.783  1.00  0.00    -0.099 SA
HETATM   29  C16 UNL     1       7.621   0.047   4.377  1.00  0.00     0.162 C 
HETATM   30  C17 UNL     1       6.623   0.056   3.281  1.00  0.00     0.183 C 
HETATM   31  N6  UNL     1       7.160  -0.045   1.933  1.00  0.00    -0.305 N 
ATOM     32  H6  UNL     1       6.748   0.629   1.288  1.00  0.00     0.167 HD
HETATM   33  C18 UNL     1       8.133  -0.875   1.319  1.00  0.00     0.325 C 
HETATM   34  O6  UNL     1       8.322  -0.663   0.097  1.00  0.00    -0.247 OA
HETATM   35  N7  UNL     1       8.946  -1.918   1.846  1.00  0.00    -0.275 N 
ATOM     36  H7  UNL     1       9.243  -2.589   1.138  1.00  0.00     0.173 HD
HETATM   37  C19 UNL     1       9.428  -2.222   3.134  1.00  0.00     0.287 C 
HETATM   38  O7  UNL     1      10.624  -2.673   3.007  1.00  0.00    -0.268 OA
HETATM   39  C20 UNL     1       8.910  -2.144   4.474  1.00  0.00     0.324 C 
HETATM   40  N8  UNL     1       9.616  -3.072   5.301  1.00  0.00    -0.020 N 
ATOM     41  H81 UNL     1       9.638  -2.957   6.314  1.00  0.00     0.282 HD
ATOM     42  H82 UNL     1      10.636  -3.102   5.297  1.00  0.00     0.282 HD
HETATM   43  C21 UNL     1       8.834  -4.148   4.686  1.00  0.00     0.364 C 
HETATM   44  N9  UNL     1       7.767  -3.160   4.623  1.00  0.00    -0.309 N 
HETATM   45  O8  UNL     1       1.717   1.353   1.377  1.00  0.00    -0.265 OA
ENDROOT
BRANCH  30  46
HETATM   46  O5  UNL     1       6.266   1.455   3.283  1.00  0.00    -0.365 OA
ATOM     47  H5  UNL     1       5.323   1.571   3.316  1.00  0.00     0.213 HD
ENDBRANCH  30  46
BRANCH  26  48
HETATM   48  O4  UNL     1       9.779   4.019   5.071  1.00  0.00    -0.289 OA
ATOM     49  H4  UNL     1       9.845   4.824   5.570  1.00  0.00     0.244 HD
ENDBRANCH  26  48
TORSDOF 2
ENDMDL
MODEL 5
REMARK VINA RESULT: -10.442142923      4.258      6.921
REMARK  2 active torsions:
REMARK  status: ('A' for Active; 'I' for Inactive)
REMARK    1  A    between atoms: N5_26  and  O4_28 
REMARK    2  A    between atoms: C17_32  and  O5_33 
ROOT
HETATM    1  N1  UNL     1      12.102   4.143  -4.216  1.00  0.00    -0.188 NA
HETATM    2  C1  UNL     1      11.677   3.707  -3.242  1.00  0.00     0.145 C 
HETATM    3  C2  UNL     1      11.131   3.182  -2.014  1.00  0.00     0.233 A 
HETATM    4  N2  UNL     1      11.082   1.874  -1.693  1.00  0.00    -0.322 N 
ATOM      5  H2  UNL     1      11.419   1.099  -2.264  1.00  0.00     0.169 HD
HETATM    6  C3  UNL     1      10.509   1.781  -0.484  1.00  0.00     0.116 A 
HETATM    7  C4  UNL     1      10.204   3.058  -0.066  1.00  0.00     0.180 A 
HETATM    8  N3  UNL     1       9.619   3.063   1.147  1.00  0.00    -0.332 N 
ATOM      9  H3  UNL     1       9.295   3.866   1.687  1.00  0.00     0.168 HD
HETATM   10  C5  UNL     1       9.561   1.771   1.479  1.00  0.00     0.075 A 
HETATM   11  C6  UNL     1       9.064   1.216   2.555  1.00  0.00     0.041 A 
HETATM   12  C7  UNL     1       9.170  -0.282   2.557  1.00  0.00     0.024 A 
HETATM   13  C8  UNL     1       9.617  -1.058   1.764  1.00  0.00     0.103 A 
HETATM   14  N4  UNL     1      10.144  -0.426   0.605  1.00  0.00    -0.361 N 
ATOM     15  H4  UNL     1      10.553  -0.985  -0.144  1.00  0.00     0.165 HD
HETATM   16  C9  UNL     1      10.099   0.915   0.507  1.00  0.00     0.091 A 
HETATM   17  C10 UNL     1       8.492  -0.857   3.662  1.00  0.00     0.101 C 
HETATM   18  C11 UNL     1       7.284  -0.666   2.950  1.00  0.00     0.248 C 
HETATM   19  O1  UNL     1       6.851  -0.291   1.820  1.00  0.00    -0.282 OA
HETATM   20  C12 UNL     1       6.341  -0.908   4.056  1.00  0.00     0.242 C 
HETATM   21  O2  UNL     1       5.511  -1.676   4.218  1.00  0.00    -0.285 OA
HETATM   22  C13 UNL     1       6.804   0.315   5.097  1.00  0.00     0.208 C 
HETATM   23  O3  UNL     1       5.631   0.420   5.692  1.00  0.00    -0.359 OA
HETATM   24  C14 UNL     1       5.261   1.277   6.603  1.00  0.00     0.236 C 
HETATM   25  C15 UNL     1       5.114   2.618   5.973  1.00  0.00     0.092 C 
HETATM   26  N5  UNL     1       4.076   3.345   6.034  1.00  0.00    -0.265 N 
ATOM     27  H5  UNL     1       3.264   3.004   6.551  1.00  0.00     0.194 HD
HETATM   28  S1  UNL     1       6.622   3.043   5.121  1.00  0.00    -0.099 SA
HETATM   29  C16 UNL     1       7.144   1.447   4.248  1.00  0.00     0.162 C 
HETATM   30  C17 UNL     1       8.318   1.983   3.520  1.00  0.00     0.183 C 
HETATM   31  N6  UNL     1       9.330   2.633   4.339  1.00  0.00    -0.305 N 
ATOM     32  H6  UNL     1       9.642   3.524   3.953  1.00  0.00     0.167 HD
HETATM   33  C18 UNL     1       9.977   2.299   5.556  1.00  0.00     0.325 C 
HETATM   34  O6  UNL     1      10.826   3.130   5.955  1.00  0.00    -0.247 OA
HETATM   35  N7  UNL     1       9.834   1.176   6.418  1.00  0.00    -0.275 N 
ATOM     36  H7  UNL     1      10.667   0.992   6.978  1.00  0.00     0.173 HD
HETATM   37  C19 UNL     1       8.790   0.264   6.666  1.00  0.00     0.287 C 
HETATM   38  O7  UNL     1       8.787   0.005   7.925  1.00  0.00    -0.268 OA
HETATM   39  C20 UNL     1       7.790  -0.401   5.873  1.00  0.00     0.324 C 
HETATM   40  N8  UNL     1       7.373  -1.590   6.549  1.00  0.00    -0.020 N 
ATOM     41  H81 UNL     1       6.475  -2.024   6.334  1.00  0.00     0.282 HD
ATOM     42  H82 UNL     1       7.109  -1.563   7.534  1.00  0.00     0.282 HD
HETATM   43  C21 UNL     1       8.628  -2.218   6.127  1.00  0.00     0.364 C 
HETATM   44  N9  UNL     1       8.486  -1.397   4.933  1.00  0.00    -0.309 N 
HETATM   45  O8  UNL     1      10.603   3.846  -1.028  1.00  0.00    -0.265 OA
ENDROOT
BRANCH  30  46
HETATM   46  O5  UNL     1       7.723   3.152   2.917  1.00  0.00    -0.365 OA
ATOM     47  H5  UNL     1       8.376   3.817   2.733  1.00  0.00     0.213 HD
ENDBRANCH  30  46
BRANCH  26  48
HETATM   48  O4  UNL     1       4.010   4.559   5.435  1.00  0.00    -0.289 OA
ATOM     49  H4  UNL     1       4.383   5.338   5.830  1.00  0.00     0.244 HD
ENDBRANCH  26  48
TORSDOF 2
ENDMDL
