MODEL 1
REMARK VINA RESULT: -9.534848186      0.000      0.000
REMARK  6 active torsions:
REMARK  status: ('A' for Active; 'I' for Inactive)
REMARK    1  A    between atoms: C4_4  and  C5_5 
REMARK    2  A    between atoms: C7_7  and  C8_8 
REMARK    3  A    between atoms: C8_8  and  O1_9 
REMARK    4  A    between atoms: O1_9  and  C9_10 
REMARK    5  A    between atoms: C9_10  and  O2_11 
REMARK    6  A    between atoms: C9_10  and  C10_13 
ROOT
HETATM    1  C10 UNL     1     -14.457  -8.807   6.600  1.00  0.00     0.050 C 
HETATM    2  C11 UNL     1     -14.225  -8.357   5.140  1.00  0.00     0.019 C 
HETATM    3  C12 UNL     1     -15.616  -7.776   4.870  1.00  0.00    -0.039 C 
HETATM    4  C13 UNL     1     -16.647  -8.877   4.757  1.00  0.00     0.015 C 
HETATM    5  C14 UNL     1     -15.656  -7.007   3.594  1.00  0.00     0.010 C 
HETATM    6  C15 UNL     1     -16.528  -5.781   3.787  1.00  0.00     0.005 C 
HETATM    7  C16 UNL     1     -15.761  -4.865   4.693  1.00  0.00    -0.018 C 
HETATM    8  C17 UNL     1     -14.521  -4.414   3.907  1.00  0.00     0.010 C 
HETATM    9  C18 UNL     1     -15.383  -5.522   5.984  1.00  0.00     0.010 C 
HETATM   10  C19 UNL     1     -15.838  -6.947   6.114  1.00  0.00     0.002 C 
HETATM   11  C20 UNL     1     -15.060  -7.640   7.243  1.00  0.00    -0.035 C 
HETATM   12  C21 UNL     1     -14.172  -6.713   7.981  1.00  0.00     0.016 C 
HETATM   13  C22 UNL     1     -16.117  -8.110   8.250  1.00  0.00     0.016 C 
ENDROOT
BRANCH   1  14
HETATM   14  C9  UNL     1     -13.318  -9.515   7.170  1.00  0.00     0.261 C 
BRANCH  14  15
HETATM   15  O1  UNL     1     -12.259  -9.863   6.391  1.00  0.00    -0.357 OA
BRANCH  15  16
HETATM   16  C8  UNL     1     -11.074  -9.632   7.136  1.00  0.00     0.198 C 
BRANCH  16  17
HETATM   17  C7  UNL     1     -11.186  -8.518   8.038  1.00  0.00     0.006 C 
HETATM   18  C5  UNL     1     -10.342  -7.501   8.088  1.00  0.00    -0.064 C 
HETATM   19  C6  UNL     1     -10.668  -6.468   9.101  1.00  0.00     0.048 C 
BRANCH  18  20
HETATM   20  C4  UNL     1      -9.185  -7.369   7.239  1.00  0.00     0.008 C 
HETATM   21  C2  UNL     1      -7.977  -7.796   7.382  1.00  0.00    -0.087 C 
HETATM   22  C1  UNL     1      -7.437  -8.561   8.494  1.00  0.00     0.043 C 
HETATM   23  C3  UNL     1      -6.966  -7.482   6.271  1.00  0.00     0.043 C 
ENDBRANCH  18  20
ENDBRANCH  16  17
ENDBRANCH  15  16
ENDBRANCH  14  15
BRANCH  14  24
HETATM   24  O2  UNL     1     -13.844 -10.783   7.612  1.00  0.00    -0.371 OA
ATOM     25  H2  UNL     1     -13.916 -10.678   8.554  1.00  0.00     0.212 HD
ENDBRANCH  14  24
ENDBRANCH   1  14
TORSDOF 6
ENDMDL
MODEL 2
REMARK VINA RESULT: -8.438599215      0.744      1.737
REMARK  6 active torsions:
REMARK  status: ('A' for Active; 'I' for Inactive)
REMARK    1  A    between atoms: C4_4  and  C5_5 
REMARK    2  A    between atoms: C7_7  and  C8_8 
REMARK    3  A    between atoms: C8_8  and  O1_9 
REMARK    4  A    between atoms: O1_9  and  C9_10 
REMARK    5  A    between atoms: C9_10  and  O2_11 
REMARK    6  A    between atoms: C9_10  and  C10_13 
ROOT
HETATM    1  C10 UNL     1     -14.422  -8.749   6.549  1.00  0.00     0.050 C 
HETATM    2  C11 UNL     1     -14.227  -8.296   5.086  1.00  0.00     0.019 C 
HETATM    3  C12 UNL     1     -15.625  -7.714   4.852  1.00  0.00    -0.039 C 
HETATM    4  C13 UNL     1     -16.658  -8.815   4.762  1.00  0.00     0.015 C 
HETATM    5  C14 UNL     1     -15.696  -6.942   3.578  1.00  0.00     0.010 C 
HETATM    6  C15 UNL     1     -16.563  -5.717   3.796  1.00  0.00     0.005 C 
HETATM    7  C16 UNL     1     -15.773  -4.803   4.685  1.00  0.00    -0.018 C 
HETATM    8  C17 UNL     1     -14.554  -4.349   3.870  1.00  0.00     0.010 C 
HETATM    9  C18 UNL     1     -15.363  -5.463   5.964  1.00  0.00     0.010 C 
HETATM   10  C19 UNL     1     -15.816  -6.889   6.103  1.00  0.00     0.002 C 
HETATM   11  C20 UNL     1     -15.009  -7.584   7.211  1.00  0.00    -0.035 C 
HETATM   12  C21 UNL     1     -14.103  -6.659   7.928  1.00  0.00     0.016 C 
HETATM   13  C22 UNL     1     -16.041  -8.056   8.242  1.00  0.00     0.016 C 
ENDROOT
BRANCH   1  14
HETATM   14  C9  UNL     1     -13.269  -9.459   7.089  1.00  0.00     0.261 C 
BRANCH  14  15
HETATM   15  O1  UNL     1     -12.194  -9.729   6.304  1.00  0.00    -0.357 OA
BRANCH  15  16
HETATM   16  C8  UNL     1     -11.299 -10.538   7.051  1.00  0.00     0.198 C 
BRANCH  16  17
HETATM   17  C7  UNL     1      -9.918 -10.206   6.823  1.00  0.00     0.006 C 
HETATM   18  C5  UNL     1      -9.301  -9.156   7.336  1.00  0.00    -0.064 C 
HETATM   19  C6  UNL     1      -7.872  -9.026   6.960  1.00  0.00     0.048 C 
BRANCH  18  20
HETATM   20  C4  UNL     1      -9.931  -8.192   8.202  1.00  0.00     0.008 C 
HETATM   21  C2  UNL     1      -9.854  -6.905   8.234  1.00  0.00    -0.087 C 
HETATM   22  C1  UNL     1      -9.070  -6.046   7.361  1.00  0.00     0.043 C 
HETATM   23  C3  UNL     1     -10.669  -6.161   9.299  1.00  0.00     0.043 C 
ENDBRANCH  18  20
ENDBRANCH  16  17
ENDBRANCH  15  16
ENDBRANCH  14  15
BRANCH  14  24
HETATM   24  O2  UNL     1     -13.764 -10.765   7.448  1.00  0.00    -0.371 OA
ATOM     25  H2  UNL     1     -14.707 -10.651   7.459  1.00  0.00     0.212 HD
ENDBRANCH  14  24
ENDBRANCH   1  14
TORSDOF 6
ENDMDL
MODEL 3
REMARK VINA RESULT: -8.273719745      1.703      6.288
REMARK  6 active torsions:
REMARK  status: ('A' for Active; 'I' for Inactive)
REMARK    1  A    between atoms: C4_4  and  C5_5 
REMARK    2  A    between atoms: C7_7  and  C8_8 
REMARK    3  A    between atoms: C8_8  and  O1_9 
REMARK    4  A    between atoms: O1_9  and  C9_10 
REMARK    5  A    between atoms: C9_10  and  O2_11 
REMARK    6  A    between atoms: C9_10  and  C10_13 
ROOT
HETATM    1  C10 UNL     1     -13.951  -8.148   8.423  1.00  0.00     0.050 C 
HETATM    2  C11 UNL     1     -13.268  -6.767   8.309  1.00  0.00     0.019 C 
HETATM    3  C12 UNL     1     -12.077  -7.038   9.233  1.00  0.00    -0.039 C 
HETATM    4  C13 UNL     1     -12.522  -7.110  10.678  1.00  0.00     0.015 C 
HETATM    5  C14 UNL     1     -11.052  -5.959   9.145  1.00  0.00     0.010 C 
HETATM    6  C15 UNL     1      -9.673  -6.587   9.211  1.00  0.00     0.005 C 
HETATM    7  C16 UNL     1      -9.486  -7.318   7.915  1.00  0.00    -0.018 C 
HETATM    8  C17 UNL     1      -9.439  -6.247   6.815  1.00  0.00     0.010 C 
HETATM    9  C18 UNL     1     -10.572  -8.317   7.661  1.00  0.00     0.010 C 
HETATM   10  C19 UNL     1     -11.617  -8.389   8.737  1.00  0.00     0.002 C 
HETATM   11  C20 UNL     1     -12.867  -9.104   8.200  1.00  0.00    -0.035 C 
HETATM   12  C21 UNL     1     -12.679  -9.640   6.833  1.00  0.00     0.016 C 
HETATM   13  C22 UNL     1     -13.073 -10.321   9.110  1.00  0.00     0.016 C 
ENDROOT
BRANCH   1  14
HETATM   14  C9  UNL     1     -15.220  -8.221   7.711  1.00  0.00     0.261 C 
BRANCH  14  15
HETATM   15  O1  UNL     1     -15.830  -7.091   7.266  1.00  0.00    -0.357 OA
BRANCH  15  16
HETATM   16  C8  UNL     1     -16.792  -7.467   6.294  1.00  0.00     0.198 C 
BRANCH  16  17
HETATM   17  C7  UNL     1     -16.217  -8.159   5.172  1.00  0.00     0.006 C 
HETATM   18  C5  UNL     1     -15.376  -7.621   4.306  1.00  0.00    -0.064 C 
HETATM   19  C6  UNL     1     -14.915  -8.536   3.233  1.00  0.00     0.048 C 
BRANCH  18  20
HETATM   20  C4  UNL     1     -14.915  -6.257   4.367  1.00  0.00     0.008 C 
HETATM   21  C2  UNL     1     -15.532  -5.145   4.152  1.00  0.00    -0.087 C 
HETATM   22  C1  UNL     1     -16.924  -4.968   3.771  1.00  0.00     0.043 C 
HETATM   23  C3  UNL     1     -14.740  -3.841   4.308  1.00  0.00     0.043 C 
ENDBRANCH  18  20
ENDBRANCH  16  17
ENDBRANCH  15  16
ENDBRANCH  14  15
BRANCH  14  24
HETATM   24  O2  UNL     1     -16.158  -8.759   8.664  1.00  0.00    -0.371 OA
ATOM     25  H2  UNL     1     -16.605  -9.441   8.177  1.00  0.00     0.212 HD
ENDBRANCH  14  24
ENDBRANCH   1  14
TORSDOF 6
ENDMDL
MODEL 4
REMARK VINA RESULT: -8.155890258      1.759      6.669
REMARK  6 active torsions:
REMARK  status: ('A' for Active; 'I' for Inactive)
REMARK    1  A    between atoms: C4_4  and  C5_5 
REMARK    2  A    between atoms: C7_7  and  C8_8 
REMARK    3  A    between atoms: C8_8  and  O1_9 
REMARK    4  A    between atoms: O1_9  and  C9_10 
REMARK    5  A    between atoms: C9_10  and  O2_11 
REMARK    6  A    between atoms: C9_10  and  C10_13 
ROOT
HETATM    1  C10 UNL     1     -14.011  -8.227   7.938  1.00  0.00     0.050 C 
HETATM    2  C11 UNL     1     -13.299  -6.860   8.041  1.00  0.00     0.019 C 
HETATM    3  C12 UNL     1     -12.218  -7.256   9.052  1.00  0.00    -0.039 C 
HETATM    4  C13 UNL     1     -12.817  -7.464  10.426  1.00  0.00     0.015 C 
HETATM    5  C14 UNL     1     -11.174  -6.201   9.186  1.00  0.00     0.010 C 
HETATM    6  C15 UNL     1      -9.820  -6.868   9.330  1.00  0.00     0.005 C 
HETATM    7  C16 UNL     1      -9.506  -7.465   7.991  1.00  0.00    -0.018 C 
HETATM    8  C17 UNL     1      -9.325  -6.289   7.021  1.00  0.00     0.010 C 
HETATM    9  C18 UNL     1     -10.573  -8.405   7.521  1.00  0.00     0.010 C 
HETATM   10  C19 UNL     1     -11.728  -8.560   8.468  1.00  0.00     0.002 C 
HETATM   11  C20 UNL     1     -12.924  -9.183   7.730  1.00  0.00    -0.035 C 
HETATM   12  C21 UNL     1     -12.599  -9.580   6.342  1.00  0.00     0.016 C 
HETATM   13  C22 UNL     1     -13.245 -10.482   8.481  1.00  0.00     0.016 C 
ENDROOT
BRANCH   1  14
HETATM   14  C9  UNL     1     -15.198  -8.193   7.092  1.00  0.00     0.261 C 
BRANCH  14  15
HETATM   15  O1  UNL     1     -15.551  -7.054   6.440  1.00  0.00    -0.357 OA
BRANCH  15  16
HETATM   16  C8  UNL     1     -14.995  -7.107   5.136  1.00  0.00     0.198 C 
BRANCH  16  17
HETATM   17  C7  UNL     1     -14.496  -5.834   4.687  1.00  0.00     0.006 C 
HETATM   18  C5  UNL     1     -15.249  -4.777   4.433  1.00  0.00    -0.064 C 
HETATM   19  C6  UNL     1     -14.505  -3.575   3.985  1.00  0.00     0.048 C 
BRANCH  18  20
HETATM   20  C4  UNL     1     -16.683  -4.754   4.573  1.00  0.00     0.008 C 
HETATM   21  C2  UNL     1     -17.604  -5.415   3.958  1.00  0.00    -0.087 C 
HETATM   22  C1  UNL     1     -17.429  -6.406   2.910  1.00  0.00     0.043 C 
HETATM   23  C3  UNL     1     -19.063  -5.153   4.353  1.00  0.00     0.043 C 
ENDBRANCH  18  20
ENDBRANCH  16  17
ENDBRANCH  15  16
ENDBRANCH  14  15
BRANCH  14  24
HETATM   24  O2  UNL     1     -16.305  -8.430   7.985  1.00  0.00    -0.371 OA
ATOM     25  H2  UNL     1     -16.118  -9.287   8.349  1.00  0.00     0.212 HD
ENDBRANCH  14  24
ENDBRANCH   1  14
TORSDOF 6
ENDMDL
MODEL 5
REMARK VINA RESULT: -8.142324310      1.663      6.568
REMARK  6 active torsions:
REMARK  status: ('A' for Active; 'I' for Inactive)
REMARK    1  A    between atoms: C4_4  and  C5_5 
REMARK    2  A    between atoms: C7_7  and  C8_8 
REMARK    3  A    between atoms: C8_8  and  O1_9 
REMARK    4  A    between atoms: O1_9  and  C9_10 
REMARK    5  A    between atoms: C9_10  and  O2_11 
REMARK    6  A    between atoms: C9_10  and  C10_13 
ROOT
HETATM    1  C10 UNL     1     -13.804  -8.338   7.548  1.00  0.00     0.050 C 
HETATM    2  C11 UNL     1     -13.146  -6.943   7.638  1.00  0.00     0.019 C 
HETATM    3  C12 UNL     1     -12.246  -7.206   8.849  1.00  0.00    -0.039 C 
HETATM    4  C13 UNL     1     -13.067  -7.309  10.116  1.00  0.00     0.015 C 
HETATM    5  C14 UNL     1     -11.260  -6.107   9.055  1.00  0.00     0.010 C 
HETATM    6  C15 UNL     1      -9.938  -6.710   9.488  1.00  0.00     0.005 C 
HETATM    7  C16 UNL     1      -9.389  -7.416   8.284  1.00  0.00    -0.018 C 
HETATM    8  C17 UNL     1      -9.068  -6.327   7.250  1.00  0.00     0.010 C 
HETATM    9  C18 UNL     1     -10.342  -8.431   7.734  1.00  0.00     0.010 C 
HETATM   10  C19 UNL     1     -11.639  -8.540   8.483  1.00  0.00     0.002 C 
HETATM   11  C20 UNL     1     -12.678  -9.270   7.619  1.00  0.00    -0.035 C 
HETATM   12  C21 UNL     1     -12.114  -9.780   6.349  1.00  0.00     0.016 C 
HETATM   13  C22 UNL     1     -13.098 -10.505   8.426  1.00  0.00     0.016 C 
ENDROOT
BRANCH   1  14
HETATM   14  C9  UNL     1     -14.829  -8.424   6.515  1.00  0.00     0.261 C 
BRANCH  14  15
HETATM   15  O1  UNL     1     -14.588  -7.961   5.261  1.00  0.00    -0.357 OA
BRANCH  15  16
HETATM   16  C8  UNL     1     -15.078  -8.920   4.339  1.00  0.00     0.198 C 
BRANCH  16  17
HETATM   17  C7  UNL     1     -16.429  -8.658   3.921  1.00  0.00     0.006 C 
HETATM   18  C5  UNL     1     -16.915  -7.458   3.650  1.00  0.00    -0.064 C 
HETATM   19  C6  UNL     1     -18.338  -7.441   3.234  1.00  0.00     0.048 C 
BRANCH  18  20
HETATM   20  C4  UNL     1     -16.152  -6.239   3.738  1.00  0.00     0.008 C 
HETATM   21  C2  UNL     1     -16.400  -5.127   4.342  1.00  0.00    -0.087 C 
HETATM   22  C1  UNL     1     -17.574  -4.795   5.132  1.00  0.00     0.043 C 
HETATM   23  C3  UNL     1     -15.360  -4.005   4.239  1.00  0.00     0.043 C 
ENDBRANCH  18  20
ENDBRANCH  16  17
ENDBRANCH  15  16
ENDBRANCH  14  15
BRANCH  14  24
HETATM   24  O2  UNL     1     -15.907  -7.589   6.983  1.00  0.00    -0.371 OA
ATOM     25  H2  UNL     1     -16.419  -8.172   7.531  1.00  0.00     0.212 HD
ENDBRANCH  14  24
ENDBRANCH   1  14
TORSDOF 6
ENDMDL
