MODEL 1
REMARK VINA RESULT: -6.488741563      0.000      0.000
REMARK  5 active torsions:
REMARK  status: ('A' for Active; 'I' for Inactive)
REMARK    1  A    between atoms: O1_2  and  C2_3 
REMARK    2  A    between atoms: C4_5  and  O2_6 
REMARK    3  A    between atoms: C5_8  and  O3_9 
REMARK    4  A    between atoms: C5_8  and  C6_11 
REMARK    5  A    between atoms: C6_11  and  O4_12 
ROOT
HETATM    1  C2  UNL     1      -2.557   4.485  13.727  1.00  0.00     0.157 C 
HETATM    2  C3  UNL     1      -2.290   4.225  12.278  1.00  0.00     0.069 C 
HETATM    3  C4  UNL     1      -2.918   2.972  11.748  1.00  0.00     0.158 C 
HETATM    4  C5  UNL     1      -4.385   2.931  11.764  1.00  0.00     0.118 C 
HETATM    5  C7  UNL     1      -5.120   3.546  12.861  1.00  0.00     0.138 C 
HETATM    6  C8  UNL     1      -4.822   5.027  12.831  1.00  0.00     0.166 C 
HETATM    7  O5  UNL     1      -5.201   5.895  12.068  1.00  0.00    -0.295 OA
HETATM    8  C9  UNL     1      -3.979   4.837  14.017  1.00  0.00     0.159 C 
HETATM    9 CL1  UNL     1      -4.191   6.014  15.315  1.00  0.00    -0.104 Cl
HETATM   10  C10 UNL     1      -4.734   3.518  14.241  1.00  0.00     0.157 C 
HETATM   11 CL2  UNL     1      -3.826   2.250  14.970  1.00  0.00    -0.098 Cl
HETATM   12 CL3  UNL     1      -6.130   3.931  15.317  1.00  0.00    -0.098 Cl
ENDROOT
BRANCH   4  13
HETATM   13  O3  UNL     1      -4.822   3.634  10.598  1.00  0.00    -0.384 OA
ATOM     14  H3  UNL     1      -4.089   4.169  10.316  1.00  0.00     0.210 HD
ENDBRANCH   4  13
BRANCH   4  15
HETATM   15  C6  UNL     1      -4.822   1.494  11.447  1.00  0.00     0.205 C 
BRANCH  15  16
HETATM   16  O4  UNL     1      -4.447   1.067  10.208  1.00  0.00    -0.398 OA
ATOM     17  H4  UNL     1      -3.506   1.026  10.086  1.00  0.00     0.209 HD
ENDBRANCH  15  16
ENDBRANCH   4  15
BRANCH   3  18
HETATM   18  O2  UNL     1      -2.298   1.824  12.297  1.00  0.00    -0.392 OA
ATOM     19  H2  UNL     1      -2.759   1.528  13.073  1.00  0.00     0.210 HD
ENDBRANCH   3  18
BRANCH   1  20
HETATM   20  O1  UNL     1      -1.724   5.543  14.116  1.00  0.00    -0.388 OA
HETATM   21  C1  UNL     1      -1.227   6.247  13.026  1.00  0.00     0.202 C 
ENDBRANCH   1  20
TORSDOF 5
ENDMDL
MODEL 2
REMARK VINA RESULT: -6.077727460      1.633      4.107
REMARK  5 active torsions:
REMARK  status: ('A' for Active; 'I' for Inactive)
REMARK    1  A    between atoms: O1_2  and  C2_3 
REMARK    2  A    between atoms: C4_5  and  O2_6 
REMARK    3  A    between atoms: C5_8  and  O3_9 
REMARK    4  A    between atoms: C5_8  and  C6_11 
REMARK    5  A    between atoms: C6_11  and  O4_12 
ROOT
HETATM    1  C2  UNL     1      -4.711   3.327  12.705  1.00  0.00     0.157 C 
HETATM    2  C3  UNL     1      -3.292   3.059  12.313  1.00  0.00     0.069 C 
HETATM    3  C4  UNL     1      -2.410   4.270  12.318  1.00  0.00     0.158 C 
HETATM    4  C5  UNL     1      -2.212   4.916  13.621  1.00  0.00     0.118 C 
HETATM    5  C7  UNL     1      -3.308   4.975  14.580  1.00  0.00     0.138 C 
HETATM    6  C8  UNL     1      -3.657   3.553  14.955  1.00  0.00     0.166 C 
HETATM    7  O5  UNL     1      -3.067   2.752  15.654  1.00  0.00    -0.295 OA
HETATM    8  C9  UNL     1      -4.874   3.684  14.145  1.00  0.00     0.159 C 
HETATM    9 CL1  UNL     1      -6.363   3.091  14.883  1.00  0.00    -0.104 Cl
HETATM   10  C10 UNL     1      -4.685   5.205  14.256  1.00  0.00     0.157 C 
HETATM   11 CL2  UNL     1      -5.226   6.127  12.907  1.00  0.00    -0.098 Cl
HETATM   12 CL3  UNL     1      -5.623   5.708  15.721  1.00  0.00    -0.098 Cl
ENDROOT
BRANCH   4  13
HETATM   13  O3  UNL     1      -1.188   4.176  14.289  1.00  0.00    -0.384 OA
ATOM     14  H3  UNL     1      -1.507   4.008  15.169  1.00  0.00     0.210 HD
ENDBRANCH   4  13
BRANCH   4  15
HETATM   15  C6  UNL     1      -1.519   6.265  13.381  1.00  0.00     0.205 C 
BRANCH  15  16
HETATM   16  O4  UNL     1      -0.363   6.168  12.667  1.00  0.00    -0.398 OA
ATOM     17  H4  UNL     1       0.422   6.268  13.193  1.00  0.00     0.209 HD
ENDBRANCH  15  16
ENDBRANCH   4  15
BRANCH   3  18
HETATM   18  O2  UNL     1      -2.763   5.159  11.276  1.00  0.00    -0.392 OA
ATOM     19  H2  UNL     1      -3.592   5.586  11.460  1.00  0.00     0.210 HD
ENDBRANCH   3  18
BRANCH   1  20
HETATM   20  O1  UNL     1      -5.443   2.164  12.426  1.00  0.00    -0.388 OA
HETATM   21  C1  UNL     1      -4.817   1.368  11.473  1.00  0.00     0.202 C 
ENDBRANCH   1  20
TORSDOF 5
ENDMDL
MODEL 3
REMARK VINA RESULT: -5.786699744      1.105      1.229
REMARK  5 active torsions:
REMARK  status: ('A' for Active; 'I' for Inactive)
REMARK    1  A    between atoms: O1_2  and  C2_3 
REMARK    2  A    between atoms: C4_5  and  O2_6 
REMARK    3  A    between atoms: C5_8  and  O3_9 
REMARK    4  A    between atoms: C5_8  and  C6_11 
REMARK    5  A    between atoms: C6_11  and  O4_12 
ROOT
HETATM    1  C2  UNL     1      -1.825   4.997  13.089  1.00  0.00     0.157 C 
HETATM    2  C3  UNL     1      -1.929   4.376  11.732  1.00  0.00     0.069 C 
HETATM    3  C4  UNL     1      -2.834   3.183  11.665  1.00  0.00     0.158 C 
HETATM    4  C5  UNL     1      -4.251   3.432  11.957  1.00  0.00     0.118 C 
HETATM    5  C7  UNL     1      -4.625   4.406  12.974  1.00  0.00     0.138 C 
HETATM    6  C8  UNL     1      -4.131   5.757  12.511  1.00  0.00     0.166 C 
HETATM    7  O5  UNL     1      -4.542   6.491  11.633  1.00  0.00    -0.295 OA
HETATM    8  C9  UNL     1      -3.080   5.674  13.532  1.00  0.00     0.159 C 
HETATM    9 CL1  UNL     1      -2.824   7.128  14.500  1.00  0.00    -0.104 Cl
HETATM   10  C10 UNL     1      -3.948   4.610  14.221  1.00  0.00     0.157 C 
HETATM   11 CL2  UNL     1      -3.093   3.384  15.074  1.00  0.00    -0.098 Cl
HETATM   12 CL3  UNL     1      -4.994   5.514  15.390  1.00  0.00    -0.098 Cl
ENDROOT
BRANCH   4  13
HETATM   13  O3  UNL     1      -4.831   3.931  10.749  1.00  0.00    -0.384 OA
ATOM     14  H3  UNL     1      -5.715   3.584  10.712  1.00  0.00     0.210 HD
ENDBRANCH   4  13
BRANCH   4  15
HETATM   15  C6  UNL     1      -4.950   2.074  12.105  1.00  0.00     0.205 C 
BRANCH  15  16
HETATM   16  O4  UNL     1      -5.718   1.732  11.032  1.00  0.00    -0.398 OA
ATOM     17  H4  UNL     1      -5.432   2.126  10.216  1.00  0.00     0.209 HD
ENDBRANCH  15  16
ENDBRANCH   4  15
BRANCH   3  18
HETATM   18  O2  UNL     1      -2.280   2.087  12.369  1.00  0.00    -0.392 OA
ATOM     19  H2  UNL     1      -2.638   1.265  12.054  1.00  0.00     0.210 HD
ENDBRANCH   3  18
BRANCH   1  20
HETATM   20  O1  UNL     1      -0.782   5.932  13.035  1.00  0.00    -0.388 OA
HETATM   21  C1  UNL     1       0.115   5.658  12.010  1.00  0.00     0.202 C 
ENDBRANCH   1  20
TORSDOF 5
ENDMDL
MODEL 4
REMARK VINA RESULT: -5.776724022      2.307      3.580
REMARK  5 active torsions:
REMARK  status: ('A' for Active; 'I' for Inactive)
REMARK    1  A    between atoms: O1_2  and  C2_3 
REMARK    2  A    between atoms: C4_5  and  O2_6 
REMARK    3  A    between atoms: C5_8  and  O3_9 
REMARK    4  A    between atoms: C5_8  and  C6_11 
REMARK    5  A    between atoms: C6_11  and  O4_12 
ROOT
HETATM    1  C2  UNL     1      -4.205   3.884  12.252  1.00  0.00     0.157 C 
HETATM    2  C3  UNL     1      -5.083   2.752  12.683  1.00  0.00     0.069 C 
HETATM    3  C4  UNL     1      -4.825   2.264  14.076  1.00  0.00     0.158 C 
HETATM    4  C5  UNL     1      -5.079   3.229  15.153  1.00  0.00     0.118 C 
HETATM    5  C7  UNL     1      -4.781   4.641  14.953  1.00  0.00     0.138 C 
HETATM    6  C8  UNL     1      -5.670   5.137  13.836  1.00  0.00     0.166 C 
HETATM    7  O5  UNL     1      -6.863   5.369  13.820  1.00  0.00    -0.295 OA
HETATM    8  C9  UNL     1      -4.489   5.164  12.966  1.00  0.00     0.159 C 
HETATM    9 CL1  UNL     1      -4.287   6.613  11.979  1.00  0.00    -0.104 Cl
HETATM   10  C10 UNL     1      -3.645   5.160  14.250  1.00  0.00     0.157 C 
HETATM   11 CL2  UNL     1      -2.122   4.366  14.143  1.00  0.00    -0.098 Cl
HETATM   12 CL3  UNL     1      -3.368   6.902  14.658  1.00  0.00    -0.098 Cl
ENDROOT
BRANCH   4  13
HETATM   13  O3  UNL     1      -6.485   3.189  15.408  1.00  0.00    -0.384 OA
ATOM     14  H3  UNL     1      -6.904   3.625  14.675  1.00  0.00     0.210 HD
ENDBRANCH   4  13
BRANCH   4  15
HETATM   15  C6  UNL     1      -4.507   2.647  16.454  1.00  0.00     0.205 C 
BRANCH  15  16
HETATM   16  O4  UNL     1      -4.802   1.331  16.643  1.00  0.00    -0.398 OA
ATOM     17  H4  UNL     1      -4.155   0.864  17.159  1.00  0.00     0.209 HD
ENDBRANCH  15  16
ENDBRANCH   4  15
BRANCH   3  18
HETATM   18  O2  UNL     1      -3.570   1.615  14.160  1.00  0.00    -0.392 OA
ATOM     19  H2  UNL     1      -3.012   2.038  14.802  1.00  0.00     0.210 HD
ENDBRANCH   3  18
BRANCH   1  20
HETATM   20  O1  UNL     1      -4.407   4.061  10.876  1.00  0.00    -0.388 OA
HETATM   21  C1  UNL     1      -3.293   3.694  10.131  1.00  0.00     0.202 C 
ENDBRANCH   1  20
TORSDOF 5
ENDMDL
MODEL 5
REMARK VINA RESULT: -5.746092392      2.980      4.259
REMARK  5 active torsions:
REMARK  status: ('A' for Active; 'I' for Inactive)
REMARK    1  A    between atoms: O1_2  and  C2_3 
REMARK    2  A    between atoms: C4_5  and  O2_6 
REMARK    3  A    between atoms: C5_8  and  O3_9 
REMARK    4  A    between atoms: C5_8  and  C6_11 
REMARK    5  A    between atoms: C6_11  and  O4_12 
ROOT
HETATM    1  C2  UNL     1      -3.789   2.323  13.473  1.00  0.00     0.157 C 
HETATM    2  C3  UNL     1      -4.660   1.225  13.999  1.00  0.00     0.069 C 
HETATM    3  C4  UNL     1      -4.796   1.205  15.491  1.00  0.00     0.158 C 
HETATM    4  C5  UNL     1      -5.444   2.375  16.094  1.00  0.00     0.118 C 
HETATM    5  C7  UNL     1      -5.218   3.702  15.536  1.00  0.00     0.138 C 
HETATM    6  C8  UNL     1      -5.765   3.699  14.126  1.00  0.00     0.166 C 
HETATM    7  O5  UNL     1      -6.912   3.707  13.724  1.00  0.00    -0.295 OA
HETATM    8  C9  UNL     1      -4.382   3.683  13.636  1.00  0.00     0.159 C 
HETATM    9 CL1  UNL     1      -4.012   4.805  12.325  1.00  0.00    -0.104 Cl
HETATM   10  C10 UNL     1      -3.970   4.190  15.027  1.00  0.00     0.157 C 
HETATM   11 CL2  UNL     1      -2.426   3.674  15.585  1.00  0.00    -0.098 Cl
HETATM   12 CL3  UNL     1      -3.976   5.997  14.910  1.00  0.00    -0.098 Cl
ENDROOT
BRANCH   4  13
HETATM   13  O3  UNL     1      -6.853   2.167  15.970  1.00  0.00    -0.384 OA
ATOM     14  H3  UNL     1      -7.270   2.982  16.224  1.00  0.00     0.210 HD
ENDBRANCH   4  13
BRANCH   4  15
HETATM   15  C6  UNL     1      -5.247   2.295  17.614  1.00  0.00     0.205 C 
BRANCH  15  16
HETATM   16  O4  UNL     1      -5.510   1.065  18.137  1.00  0.00    -0.398 OA
ATOM     17  H4  UNL     1      -4.998   0.861  18.911  1.00  0.00     0.209 HD
ENDBRANCH  15  16
ENDBRANCH   4  15
BRANCH   3  18
HETATM   18  O2  UNL     1      -3.576   0.834  16.106  1.00  0.00    -0.392 OA
ATOM     19  H2  UNL     1      -2.851   1.333  15.749  1.00  0.00     0.210 HD
ENDBRANCH   3  18
BRANCH   1  20
HETATM   20  O1  UNL     1      -3.578   2.065  12.111  1.00  0.00    -0.388 OA
HETATM   21  C1  UNL     1      -4.597   1.297  11.559  1.00  0.00     0.202 C 
ENDBRANCH   1  20
TORSDOF 5
ENDMDL
