MODEL 1
REMARK VINA RESULT: -9.040711180      0.000      0.000
REMARK  16 active torsions:
REMARK  status: ('A' for Active; 'I' for Inactive)
REMARK    1  A    between atoms: N1_1  and  C1_4 
REMARK    2  A    between atoms: C3_11  and  N4_12 
REMARK    3  A    between atoms: N4_12  and  C4_14 
REMARK    4  A    between atoms: C6_16  and  C7_17 
REMARK    5  A    between atoms: C7_17  and  O1_18 
REMARK    6  A    between atoms: C7_17  and  O2_20 
REMARK    7  A    between atoms: C8_23  and  C9_24 
REMARK    8  A    between atoms: C9_24  and  C10_26 
REMARK    9  A    between atoms: C10_26  and  N5_27 
REMARK   10  A    between atoms: C10_26  and  C11_31 
REMARK   11  A    between atoms: C11_31  and  C12_32 
REMARK   12  A    between atoms: C12_32  and  N6_33 
REMARK   13  A    between atoms: C12_32  and  C13_37 
REMARK   14  A    between atoms: C13_37  and  C14_38 
REMARK   15  A    between atoms: C14_38  and  C15_40 
REMARK   16  A    between atoms: C15_40  and  N7_41 
ROOT
HETATM    1  C4  UNL     1    -127.846  33.162 125.198  1.00  0.00     0.079 A 
HETATM    2  C5  UNL     1    -126.911  32.908 126.176  1.00  0.00     0.070 A 
HETATM    3  C6  UNL     1    -127.251  32.096 127.238  1.00  0.00     0.110 A 
HETATM    4  O3  UNL     1    -128.441  31.569 127.327  1.00  0.00    -0.304 OA
HETATM    5  C8  UNL     1    -129.371  31.768 126.438  1.00  0.00     0.150 A 
HETATM    6  C16 UNL     1    -129.097  32.575 125.345  1.00  0.00     0.111 A 
HETATM    7  N8  UNL     1    -130.100  32.798 124.374  1.00  0.00    -0.097 NA
ENDROOT
BRANCH   5   8
HETATM    8  C9  UNL     1    -130.697  31.187 126.530  1.00  0.00     0.215 C 
HETATM    9  O4  UNL     1    -131.404  30.923 125.538  1.00  0.00    -0.288 OA
BRANCH   8  10
HETATM   10  C10 UNL     1    -131.236  30.894 127.906  1.00  0.00     0.261 C 
BRANCH  10  11
HETATM   11  N5  UNL     1    -131.671  32.194 128.402  1.00  0.00    -0.068 N 
ATOM     12  H53 UNL     1    -131.119  32.552 129.181  1.00  0.00     0.275 HD
ATOM     13  H52 UNL     1    -131.481  32.969 127.767  1.00  0.00     0.275 HD
ATOM     14  H51 UNL     1    -132.660  32.061 128.616  1.00  0.00     0.275 HD
ENDBRANCH  10  11
BRANCH  10  15
HETATM   15  C11 UNL     1    -132.369  29.949 127.729  1.00  0.00     0.074 C 
BRANCH  15  16
HETATM   16  C12 UNL     1    -132.137  28.711 126.953  1.00  0.00     0.187 C 
BRANCH  16  17
HETATM   17  N6  UNL     1    -133.437  28.324 126.368  1.00  0.00    -0.075 N 
ATOM     18  H63 UNL     1    -133.858  27.515 126.823  1.00  0.00     0.274 HD
ATOM     19  H62 UNL     1    -134.183  28.990 126.571  1.00  0.00     0.274 HD
ATOM     20  H61 UNL     1    -133.281  28.188 125.369  1.00  0.00     0.274 HD
ENDBRANCH  16  17
BRANCH  16  21
HETATM   21  C13 UNL     1    -131.579  27.535 127.694  1.00  0.00     0.054 C 
BRANCH  21  22
HETATM   22  C14 UNL     1    -132.297  27.336 129.034  1.00  0.00     0.109 C 
HETATM   23 CL2  UNL     1    -131.174  27.245 130.383  1.00  0.00    -0.123 Cl
BRANCH  22  24
HETATM   24  C15 UNL     1    -133.136  26.077 128.993  1.00  0.00     0.249 C 
BRANCH  24  25
HETATM   25  N7  UNL     1    -134.133  26.050 130.017  1.00  0.00    -0.078 N 
ATOM     26  H73 UNL     1    -133.988  25.264 130.650  1.00  0.00     0.274 HD
ATOM     27  H72 UNL     1    -134.002  26.817 130.677  1.00  0.00     0.274 HD
ATOM     28  H71 UNL     1    -135.080  26.048 129.640  1.00  0.00     0.274 HD
ENDBRANCH  24  25
ENDBRANCH  22  24
ENDBRANCH  21  22
ENDBRANCH  16  21
ENDBRANCH  15  16
ENDBRANCH  10  15
ENDBRANCH   8  10
ENDBRANCH   5   8
BRANCH   3  29
HETATM   29  C7  UNL     1    -126.239  31.818 128.300  1.00  0.00     0.312 C 
BRANCH  29  30
HETATM   30  O1  UNL     1    -126.375  32.784 129.295  1.00  0.00    -0.365 OA
ATOM     31  H1  UNL     1    -125.656  32.683 129.907  1.00  0.00     0.213 HD
ENDBRANCH  29  30
BRANCH  29  32
HETATM   32  O2  UNL     1    -124.956  31.813 127.808  1.00  0.00    -0.365 OA
ATOM     33  H2  UNL     1    -124.368  32.346 128.330  1.00  0.00     0.213 HD
ENDBRANCH  29  32
ENDBRANCH   3  29
BRANCH   1  34
HETATM   34  N4  UNL     1    -127.572  33.911 124.195  1.00  0.00    -0.189 N 
ATOM     35  H4  UNL     1    -127.248  34.868 124.333  1.00  0.00     0.184 HD
BRANCH  34  36
HETATM   36  C3  UNL     1    -127.731  33.379 122.886  1.00  0.00     0.699 A 
HETATM   37  N3  UNL     1    -128.231  34.132 121.870  1.00  0.00    -0.164 N 
HETATM   38  C2  UNL     1    -128.384  33.638 120.632  1.00  0.00     0.208 A 
ATOM     39  H3  UNL     1    -128.497  35.099 122.054  1.00  0.00     0.186 HD
HETATM   40  N2  UNL     1    -128.036  32.362 120.381  1.00  0.00    -0.165 N 
HETATM   41 CL1  UNL     1    -129.032  34.611 119.312  1.00  0.00    -0.044 Cl
HETATM   42  C1  UNL     1    -127.535  31.608 121.403  1.00  0.00     0.692 A 
ATOM     43  H2  UNL     1    -128.145  31.967 119.448  1.00  0.00     0.186 HD
HETATM   44  N9  UNL     1    -127.383  32.101 122.633  1.00  0.00    -0.022 N 
ATOM     45  H9  UNL     1    -127.005  31.515 123.377  1.00  0.00     0.203 HD
BRANCH  42  46
HETATM   46  N1  UNL     1    -127.207  30.394 121.148  1.00  0.00    -0.234 N 
ATOM     47  H12 UNL     1    -126.858  30.139 120.225  1.00  0.00     0.174 HD
ATOM     48  H11 UNL     1    -127.309  29.706 121.894  1.00  0.00     0.174 HD
ENDBRANCH  42  46
ENDBRANCH  34  36
ENDBRANCH   1  34
TORSDOF 16
ENDMDL
MODEL 2
REMARK VINA RESULT: -8.725079381      1.697      7.927
REMARK  16 active torsions:
REMARK  status: ('A' for Active; 'I' for Inactive)
REMARK    1  A    between atoms: N1_1  and  C1_4 
REMARK    2  A    between atoms: C3_11  and  N4_12 
REMARK    3  A    between atoms: N4_12  and  C4_14 
REMARK    4  A    between atoms: C6_16  and  C7_17 
REMARK    5  A    between atoms: C7_17  and  O1_18 
REMARK    6  A    between atoms: C7_17  and  O2_20 
REMARK    7  A    between atoms: C8_23  and  C9_24 
REMARK    8  A    between atoms: C9_24  and  C10_26 
REMARK    9  A    between atoms: C10_26  and  N5_27 
REMARK   10  A    between atoms: C10_26  and  C11_31 
REMARK   11  A    between atoms: C11_31  and  C12_32 
REMARK   12  A    between atoms: C12_32  and  N6_33 
REMARK   13  A    between atoms: C12_32  and  C13_37 
REMARK   14  A    between atoms: C13_37  and  C14_38 
REMARK   15  A    between atoms: C14_38  and  C15_40 
REMARK   16  A    between atoms: C15_40  and  N7_41 
ROOT
HETATM    1  C4  UNL     1    -129.849  31.946 127.124  1.00  0.00     0.079 A 
HETATM    2  C5  UNL     1    -128.975  31.932 128.187  1.00  0.00     0.070 A 
HETATM    3  C6  UNL     1    -127.623  32.069 127.950  1.00  0.00     0.110 A 
HETATM    4  O3  UNL     1    -127.165  32.210 126.736  1.00  0.00    -0.304 OA
HETATM    5  C8  UNL     1    -127.935  32.232 125.687  1.00  0.00     0.150 A 
HETATM    6  C16 UNL     1    -129.306  32.099 125.855  1.00  0.00     0.111 A 
HETATM    7  N8  UNL     1    -130.151  32.121 124.721  1.00  0.00    -0.097 NA
ENDROOT
BRANCH   5   8
HETATM    8  C9  UNL     1    -127.434  32.388 124.335  1.00  0.00     0.215 C 
HETATM    9  O4  UNL     1    -126.541  31.670 123.845  1.00  0.00    -0.288 OA
BRANCH   8  10
HETATM   10  C10 UNL     1    -128.034  33.481 123.490  1.00  0.00     0.261 C 
BRANCH  10  11
HETATM   11  N5  UNL     1    -127.555  34.711 124.109  1.00  0.00    -0.068 N 
ATOM     12  H53 UNL     1    -128.159  35.520 123.955  1.00  0.00     0.275 HD
ATOM     13  H52 UNL     1    -127.616  34.720 125.127  1.00  0.00     0.275 HD
ATOM     14  H51 UNL     1    -126.609  34.821 123.745  1.00  0.00     0.275 HD
ENDBRANCH  10  11
BRANCH  10  15
HETATM   15  C11 UNL     1    -127.504  33.297 122.114  1.00  0.00     0.074 C 
BRANCH  15  16
HETATM   16  C12 UNL     1    -128.324  32.545 121.139  1.00  0.00     0.187 C 
BRANCH  16  17
HETATM   17  N6  UNL     1    -127.387  31.768 120.303  1.00  0.00    -0.075 N 
ATOM     18  H63 UNL     1    -126.863  32.344 119.645  1.00  0.00     0.274 HD
ATOM     19  H62 UNL     1    -126.588  31.407 120.824  1.00  0.00     0.274 HD
ATOM     20  H61 UNL     1    -127.934  31.036 119.850  1.00  0.00     0.274 HD
ENDBRANCH  16  17
BRANCH  16  21
HETATM   21  C13 UNL     1    -129.218  33.341 120.240  1.00  0.00     0.054 C 
BRANCH  21  22
HETATM   22  C14 UNL     1    -128.466  34.526 119.623  1.00  0.00     0.109 C 
HETATM   23 CL2  UNL     1    -128.606  35.982 120.596  1.00  0.00    -0.123 Cl
BRANCH  22  24
HETATM   24  C15 UNL     1    -128.985  34.803 118.228  1.00  0.00     0.249 C 
BRANCH  24  25
HETATM   25  N7  UNL     1    -129.099  36.201 117.954  1.00  0.00    -0.078 N 
ATOM     26  H73 UNL     1    -128.181  36.624 117.815  1.00  0.00     0.274 HD
ATOM     27  H72 UNL     1    -129.495  36.362 117.029  1.00  0.00     0.274 HD
ATOM     28  H71 UNL     1    -129.627  36.698 118.671  1.00  0.00     0.274 HD
ENDBRANCH  24  25
ENDBRANCH  22  24
ENDBRANCH  21  22
ENDBRANCH  16  21
ENDBRANCH  15  16
ENDBRANCH  10  15
ENDBRANCH   8  10
ENDBRANCH   5   8
BRANCH   3  29
HETATM   29  C7  UNL     1    -126.673  32.054 129.101  1.00  0.00     0.312 C 
BRANCH  29  30
HETATM   30  O1  UNL     1    -127.380  31.689 130.245  1.00  0.00    -0.365 OA
ATOM     31  H1  UNL     1    -126.760  31.596 130.960  1.00  0.00     0.213 HD
ENDBRANCH  29  30
BRANCH  29  32
HETATM   32  O2  UNL     1    -126.058  33.269 129.284  1.00  0.00    -0.365 OA
ATOM     33  H2  UNL     1    -125.617  33.327 130.123  1.00  0.00     0.213 HD
ENDBRANCH  29  32
ENDBRANCH   3  29
BRANCH   1  34
HETATM   34  N4  UNL     1    -131.112  31.821 127.300  1.00  0.00    -0.189 N 
ATOM     35  H4  UNL     1    -131.702  32.642 127.440  1.00  0.00     0.184 HD
BRANCH  34  36
HETATM   36  C3  UNL     1    -131.674  30.515 127.294  1.00  0.00     0.699 A 
HETATM   37  N3  UNL     1    -131.367  29.606 128.259  1.00  0.00    -0.164 N 
HETATM   38  C2  UNL     1    -131.893  28.371 128.262  1.00  0.00     0.208 A 
ATOM     39  H3  UNL     1    -130.720  29.871 129.001  1.00  0.00     0.186 HD
HETATM   40  N2  UNL     1    -132.747  28.015 127.285  1.00  0.00    -0.165 N 
HETATM   41 CL1  UNL     1    -131.498  27.191 129.510  1.00  0.00    -0.044 Cl
HETATM   42  C1  UNL     1    -133.053  28.928 126.317  1.00  0.00     0.692 A 
ATOM     43  H2  UNL     1    -133.157  27.081 127.267  1.00  0.00     0.186 HD
HETATM   44  N9  UNL     1    -132.530  30.155 126.317  1.00  0.00    -0.022 N 
ATOM     45  H9  UNL     1    -132.777  30.817 125.582  1.00  0.00     0.203 HD
BRANCH  42  46
HETATM   46  N1  UNL     1    -133.870  28.574 125.393  1.00  0.00    -0.234 N 
ATOM     47  H12 UNL     1    -133.953  27.592 125.131  1.00  0.00     0.174 HD
ATOM     48  H11 UNL     1    -134.422  29.301 124.939  1.00  0.00     0.174 HD
ENDBRANCH  42  46
ENDBRANCH  34  36
ENDBRANCH   1  34
TORSDOF 16
ENDMDL
MODEL 3
REMARK VINA RESULT: -8.674753888      1.466      1.818
REMARK  16 active torsions:
REMARK  status: ('A' for Active; 'I' for Inactive)
REMARK    1  A    between atoms: N1_1  and  C1_4 
REMARK    2  A    between atoms: C3_11  and  N4_12 
REMARK    3  A    between atoms: N4_12  and  C4_14 
REMARK    4  A    between atoms: C6_16  and  C7_17 
REMARK    5  A    between atoms: C7_17  and  O1_18 
REMARK    6  A    between atoms: C7_17  and  O2_20 
REMARK    7  A    between atoms: C8_23  and  C9_24 
REMARK    8  A    between atoms: C9_24  and  C10_26 
REMARK    9  A    between atoms: C10_26  and  N5_27 
REMARK   10  A    between atoms: C10_26  and  C11_31 
REMARK   11  A    between atoms: C11_31  and  C12_32 
REMARK   12  A    between atoms: C12_32  and  N6_33 
REMARK   13  A    between atoms: C12_32  and  C13_37 
REMARK   14  A    between atoms: C13_37  and  C14_38 
REMARK   15  A    between atoms: C14_38  and  C15_40 
REMARK   16  A    between atoms: C15_40  and  N7_41 
ROOT
HETATM    1  C4  UNL     1    -127.707  32.743 125.517  1.00  0.00     0.079 A 
HETATM    2  C5  UNL     1    -126.935  32.679 126.655  1.00  0.00     0.070 A 
HETATM    3  C6  UNL     1    -127.481  32.158 127.810  1.00  0.00     0.110 A 
HETATM    4  O3  UNL     1    -128.712  31.727 127.837  1.00  0.00    -0.304 OA
HETATM    5  C8  UNL     1    -129.495  31.757 126.799  1.00  0.00     0.150 A 
HETATM    6  C16 UNL     1    -129.011  32.270 125.604  1.00  0.00     0.111 A 
HETATM    7  N8  UNL     1    -129.854  32.308 124.470  1.00  0.00    -0.097 NA
ENDROOT
BRANCH   5   8
HETATM    8  C9  UNL     1    -130.865  31.282 126.821  1.00  0.00     0.215 C 
HETATM    9  O4  UNL     1    -131.550  31.107 125.795  1.00  0.00    -0.288 OA
BRANCH   8  10
HETATM   10  C10 UNL     1    -131.480  30.988 128.165  1.00  0.00     0.261 C 
BRANCH  10  11
HETATM   11  N5  UNL     1    -132.048  32.264 128.582  1.00  0.00    -0.068 N 
ATOM     12  H53 UNL     1    -131.442  33.068 128.413  1.00  0.00     0.275 HD
ATOM     13  H52 UNL     1    -132.824  32.586 128.003  1.00  0.00     0.275 HD
ATOM     14  H51 UNL     1    -132.289  32.121 129.563  1.00  0.00     0.275 HD
ENDBRANCH  10  11
BRANCH  10  15
HETATM   15  C11 UNL     1    -132.521  29.952 127.941  1.00  0.00     0.074 C 
BRANCH  15  16
HETATM   16  C12 UNL     1    -132.180  28.780 127.105  1.00  0.00     0.187 C 
BRANCH  16  17
HETATM   17  N6  UNL     1    -133.423  28.364 126.425  1.00  0.00    -0.075 N 
ATOM     18  H63 UNL     1    -134.054  27.838 127.029  1.00  0.00     0.274 HD
ATOM     19  H62 UNL     1    -134.052  29.142 126.226  1.00  0.00     0.274 HD
ATOM     20  H61 UNL     1    -133.144  27.849 125.590  1.00  0.00     0.274 HD
ENDBRANCH  16  17
BRANCH  16  21
HETATM   21  C13 UNL     1    -131.595  27.591 127.803  1.00  0.00     0.054 C 
BRANCH  21  22
HETATM   22  C14 UNL     1    -132.309  27.326 129.133  1.00  0.00     0.109 C 
HETATM   23 CL2  UNL     1    -131.182  27.159 130.471  1.00  0.00    -0.123 Cl
BRANCH  22  24
HETATM   24  C15 UNL     1    -133.156  26.076 129.032  1.00  0.00     0.249 C 
BRANCH  24  25
HETATM   25  N7  UNL     1    -134.181  26.027 130.025  1.00  0.00    -0.078 N 
ATOM     26  H73 UNL     1    -134.306  25.078 130.378  1.00  0.00     0.274 HD
ATOM     27  H72 UNL     1    -133.881  26.483 130.886  1.00  0.00     0.274 HD
ATOM     28  H71 UNL     1    -135.065  26.414 129.694  1.00  0.00     0.274 HD
ENDBRANCH  24  25
ENDBRANCH  22  24
ENDBRANCH  21  22
ENDBRANCH  16  21
ENDBRANCH  15  16
ENDBRANCH  10  15
ENDBRANCH   8  10
ENDBRANCH   5   8
BRANCH   3  29
HETATM   29  C7  UNL     1    -126.646  32.088 129.046  1.00  0.00     0.312 C 
BRANCH  29  30
HETATM   30  O1  UNL     1    -127.471  31.726 130.109  1.00  0.00    -0.365 OA
ATOM     31  H1  UNL     1    -127.388  30.789 130.244  1.00  0.00     0.213 HD
ENDBRANCH  29  30
BRANCH  29  32
HETATM   32  O2  UNL     1    -126.011  33.277 129.314  1.00  0.00    -0.365 OA
ATOM     33  H2  UNL     1    -126.624  33.978 129.503  1.00  0.00     0.213 HD
ENDBRANCH  29  32
ENDBRANCH   3  29
BRANCH   1  34
HETATM   34  N4  UNL     1    -127.241  33.220 124.423  1.00  0.00    -0.189 N 
ATOM     35  H4  UNL     1    -126.808  34.143 124.400  1.00  0.00     0.184 HD
BRANCH  34  36
HETATM   36  C3  UNL     1    -127.341  32.435 123.242  1.00  0.00     0.699 A 
HETATM   37  N3  UNL     1    -127.086  31.098 123.254  1.00  0.00    -0.164 N 
HETATM   38  C2  UNL     1    -127.178  30.350 122.144  1.00  0.00     0.208 A 
ATOM     39  H3  UNL     1    -126.816  30.654 124.131  1.00  0.00     0.186 HD
HETATM   40  N2  UNL     1    -127.532  30.931 120.983  1.00  0.00    -0.165 N 
HETATM   41 CL1  UNL     1    -126.847  28.619 122.155  1.00  0.00    -0.044 Cl
HETATM   42  C1  UNL     1    -127.788  32.272 120.973  1.00  0.00     0.692 A 
ATOM     43  H2  UNL     1    -127.607  30.381 120.128  1.00  0.00     0.186 HD
HETATM   44  N9  UNL     1    -127.697  33.014 122.078  1.00  0.00    -0.022 N 
ATOM     45  H9  UNL     1    -127.895  34.013 122.041  1.00  0.00     0.203 HD
BRANCH  42  46
HETATM   46  N1  UNL     1    -128.125  32.811 119.859  1.00  0.00    -0.234 N 
ATOM     47  H12 UNL     1    -128.595  32.258 119.142  1.00  0.00     0.174 HD
ATOM     48  H11 UNL     1    -127.907  33.798 119.720  1.00  0.00     0.174 HD
ENDBRANCH  42  46
ENDBRANCH  34  36
ENDBRANCH   1  34
TORSDOF 16
ENDMDL
MODEL 4
REMARK VINA RESULT: -8.647381043      1.177      1.276
REMARK  16 active torsions:
REMARK  status: ('A' for Active; 'I' for Inactive)
REMARK    1  A    between atoms: N1_1  and  C1_4 
REMARK    2  A    between atoms: C3_11  and  N4_12 
REMARK    3  A    between atoms: N4_12  and  C4_14 
REMARK    4  A    between atoms: C6_16  and  C7_17 
REMARK    5  A    between atoms: C7_17  and  O1_18 
REMARK    6  A    between atoms: C7_17  and  O2_20 
REMARK    7  A    between atoms: C8_23  and  C9_24 
REMARK    8  A    between atoms: C9_24  and  C10_26 
REMARK    9  A    between atoms: C10_26  and  N5_27 
REMARK   10  A    between atoms: C10_26  and  C11_31 
REMARK   11  A    between atoms: C11_31  and  C12_32 
REMARK   12  A    between atoms: C12_32  and  N6_33 
REMARK   13  A    between atoms: C12_32  and  C13_37 
REMARK   14  A    between atoms: C13_37  and  C14_38 
REMARK   15  A    between atoms: C14_38  and  C15_40 
REMARK   16  A    between atoms: C15_40  and  N7_41 
ROOT
HETATM    1  C4  UNL     1    -127.866  33.166 125.196  1.00  0.00     0.079 A 
HETATM    2  C5  UNL     1    -126.909  32.866 126.138  1.00  0.00     0.070 A 
HETATM    3  C6  UNL     1    -127.256  32.097 127.230  1.00  0.00     0.110 A 
HETATM    4  O3  UNL     1    -128.474  31.654 127.380  1.00  0.00    -0.304 OA
HETATM    5  C8  UNL     1    -129.426  31.900 126.528  1.00  0.00     0.150 A 
HETATM    6  C16 UNL     1    -129.146  32.667 125.407  1.00  0.00     0.111 A 
HETATM    7  N8  UNL     1    -130.174  32.941 124.476  1.00  0.00    -0.097 NA
ENDROOT
BRANCH   5   8
HETATM    8  C9  UNL     1    -130.783  31.412 126.688  1.00  0.00     0.215 C 
HETATM    9  O4  UNL     1    -131.451  31.563 127.729  1.00  0.00    -0.288 OA
BRANCH   8  10
HETATM   10  C10 UNL     1    -131.404  30.685 125.524  1.00  0.00     0.261 C 
BRANCH  10  11
HETATM   11  N5  UNL     1    -130.487  29.582 125.263  1.00  0.00    -0.068 N 
ATOM     12  H53 UNL     1    -129.541  29.874 125.017  1.00  0.00     0.275 HD
ATOM     13  H52 UNL     1    -130.227  29.049 126.092  1.00  0.00     0.275 HD
ATOM     14  H51 UNL     1    -130.956  29.033 124.542  1.00  0.00     0.275 HD
ENDBRANCH  10  11
BRANCH  10  15
HETATM   15  C11 UNL     1    -132.739  30.215 125.978  1.00  0.00     0.074 C 
BRANCH  15  16
HETATM   16  C12 UNL     1    -132.859  28.835 126.498  1.00  0.00     0.187 C 
BRANCH  16  17
HETATM   17  N6  UNL     1    -133.979  28.202 125.773  1.00  0.00    -0.075 N 
ATOM     18  H63 UNL     1    -134.102  28.564 124.827  1.00  0.00     0.274 HD
ATOM     19  H62 UNL     1    -133.795  27.232 125.517  1.00  0.00     0.274 HD
ATOM     20  H61 UNL     1    -134.808  28.313 126.356  1.00  0.00     0.274 HD
ENDBRANCH  16  17
BRANCH  16  21
HETATM   21  C13 UNL     1    -133.092  28.677 127.969  1.00  0.00     0.054 C 
BRANCH  21  22
HETATM   22  C14 UNL     1    -131.876  28.045 128.655  1.00  0.00     0.109 C 
HETATM   23 CL2  UNL     1    -130.770  27.310 127.504  1.00  0.00    -0.123 Cl
BRANCH  22  24
HETATM   24  C15 UNL     1    -132.325  27.002 129.656  1.00  0.00     0.249 C 
BRANCH  24  25
HETATM   25  N7  UNL     1    -133.317  26.123 129.123  1.00  0.00    -0.078 N 
ATOM     26  H73 UNL     1    -133.676  26.471 128.234  1.00  0.00     0.274 HD
ATOM     27  H72 UNL     1    -132.899  25.251 128.800  1.00  0.00     0.274 HD
ATOM     28  H71 UNL     1    -134.076  25.946 129.781  1.00  0.00     0.274 HD
ENDBRANCH  24  25
ENDBRANCH  22  24
ENDBRANCH  21  22
ENDBRANCH  16  21
ENDBRANCH  15  16
ENDBRANCH  10  15
ENDBRANCH   8  10
ENDBRANCH   5   8
BRANCH   3  29
HETATM   29  C7  UNL     1    -126.220  31.770 128.254  1.00  0.00     0.312 C 
BRANCH  29  30
HETATM   30  O1  UNL     1    -126.379  32.642 129.329  1.00  0.00    -0.365 OA
ATOM     31  H1  UNL     1    -125.516  32.879 129.650  1.00  0.00     0.213 HD
ENDBRANCH  29  30
BRANCH  29  32
HETATM   32  O2  UNL     1    -124.944  31.856 127.750  1.00  0.00    -0.365 OA
ATOM     33  H2  UNL     1    -124.438  31.069 127.915  1.00  0.00     0.213 HD
ENDBRANCH  29  32
ENDBRANCH   3  29
BRANCH   1  34
HETATM   34  N4  UNL     1    -127.587  33.877 124.168  1.00  0.00    -0.189 N 
ATOM     35  H4  UNL     1    -127.265  34.839 124.271  1.00  0.00     0.184 HD
BRANCH  34  36
HETATM   36  C3  UNL     1    -127.737  33.295 122.879  1.00  0.00     0.699 A 
HETATM   37  N3  UNL     1    -128.218  34.012 121.828  1.00  0.00    -0.164 N 
HETATM   38  C2  UNL     1    -128.362  33.472 120.608  1.00  0.00     0.208 A 
ATOM     39  H3  UNL     1    -128.477  34.988 121.971  1.00  0.00     0.186 HD
HETATM   40  N2  UNL     1    -128.023  32.184 120.412  1.00  0.00    -0.165 N 
HETATM   41 CL1  UNL     1    -128.986  34.397 119.244  1.00  0.00    -0.044 Cl
HETATM   42  C1  UNL     1    -127.540  31.466 121.468  1.00  0.00     0.692 A 
ATOM     43  H2  UNL     1    -128.125  31.753 119.493  1.00  0.00     0.186 HD
HETATM   44  N9  UNL     1    -127.397  32.006 122.679  1.00  0.00    -0.022 N 
ATOM     45  H9  UNL     1    -127.033  31.446 123.450  1.00  0.00     0.203 HD
BRANCH  42  46
HETATM   46  N1  UNL     1    -127.220  30.240 121.265  1.00  0.00    -0.234 N 
ATOM     47  H12 UNL     1    -127.232  29.856 120.320  1.00  0.00     0.174 HD
ATOM     48  H11 UNL     1    -126.958  29.675 122.072  1.00  0.00     0.174 HD
ENDBRANCH  42  46
ENDBRANCH  34  36
ENDBRANCH   1  34
TORSDOF 16
ENDMDL
MODEL 5
REMARK VINA RESULT: -8.508820381      2.277      8.172
REMARK  16 active torsions:
REMARK  status: ('A' for Active; 'I' for Inactive)
REMARK    1  A    between atoms: N1_1  and  C1_4 
REMARK    2  A    between atoms: C3_11  and  N4_12 
REMARK    3  A    between atoms: N4_12  and  C4_14 
REMARK    4  A    between atoms: C6_16  and  C7_17 
REMARK    5  A    between atoms: C7_17  and  O1_18 
REMARK    6  A    between atoms: C7_17  and  O2_20 
REMARK    7  A    between atoms: C8_23  and  C9_24 
REMARK    8  A    between atoms: C9_24  and  C10_26 
REMARK    9  A    between atoms: C10_26  and  N5_27 
REMARK   10  A    between atoms: C10_26  and  C11_31 
REMARK   11  A    between atoms: C11_31  and  C12_32 
REMARK   12  A    between atoms: C12_32  and  N6_33 
REMARK   13  A    between atoms: C12_32  and  C13_37 
REMARK   14  A    between atoms: C13_37  and  C14_38 
REMARK   15  A    between atoms: C14_38  and  C15_40 
REMARK   16  A    between atoms: C15_40  and  N7_41 
ROOT
HETATM    1  C4  UNL     1    -129.764  32.080 127.116  1.00  0.00     0.079 A 
HETATM    2  C5  UNL     1    -128.700  32.175 127.984  1.00  0.00     0.070 A 
HETATM    3  C6  UNL     1    -127.439  32.419 127.479  1.00  0.00     0.110 A 
HETATM    4  O3  UNL     1    -127.244  32.561 126.196  1.00  0.00    -0.304 OA
HETATM    5  C8  UNL     1    -128.205  32.484 125.323  1.00  0.00     0.150 A 
HETATM    6  C16 UNL     1    -129.498  32.240 125.762  1.00  0.00     0.111 A 
HETATM    7  N8  UNL     1    -130.549  32.153 124.820  1.00  0.00    -0.097 NA
ENDROOT
BRANCH   5   8
HETATM    8  C9  UNL     1    -127.997  32.639 123.896  1.00  0.00     0.215 C 
HETATM    9  O4  UNL     1    -127.646  31.708 123.145  1.00  0.00    -0.288 OA
BRANCH   8  10
HETATM   10  C10 UNL     1    -128.221  34.006 123.303  1.00  0.00     0.261 C 
BRANCH  10  11
HETATM   11  N5  UNL     1    -127.441  34.895 124.155  1.00  0.00    -0.068 N 
ATOM     12  H53 UNL     1    -127.501  34.681 125.150  1.00  0.00     0.275 HD
ATOM     13  H52 UNL     1    -126.432  34.772 124.076  1.00  0.00     0.275 HD
ATOM     14  H51 UNL     1    -127.770  35.829 123.908  1.00  0.00     0.275 HD
ENDBRANCH  10  11
BRANCH  10  15
HETATM   15  C11 UNL     1    -127.702  33.958 121.911  1.00  0.00     0.074 C 
BRANCH  15  16
HETATM   16  C12 UNL     1    -128.666  34.074 120.796  1.00  0.00     0.187 C 
BRANCH  16  17
HETATM   17  N6  UNL     1    -128.607  32.802 120.047  1.00  0.00    -0.075 N 
ATOM     18  H63 UNL     1    -128.761  32.917 119.046  1.00  0.00     0.274 HD
ATOM     19  H62 UNL     1    -127.666  32.412 119.990  1.00  0.00     0.274 HD
ATOM     20  H61 UNL     1    -129.277  32.170 120.486  1.00  0.00     0.274 HD
ENDBRANCH  16  17
BRANCH  16  21
HETATM   21  C13 UNL     1    -128.466  35.203 119.833  1.00  0.00     0.054 C 
BRANCH  21  22
HETATM   22  C14 UNL     1    -129.000  34.844 118.443  1.00  0.00     0.109 C 
HETATM   23 CL2  UNL     1    -127.729  34.283 117.367  1.00  0.00    -0.123 Cl
BRANCH  22  24
HETATM   24  C15 UNL     1    -129.690  36.041 117.823  1.00  0.00     0.249 C 
BRANCH  24  25
HETATM   25  N7  UNL     1    -129.908  35.882 116.420  1.00  0.00    -0.078 N 
ATOM     26  H73 UNL     1    -129.621  36.715 115.907  1.00  0.00     0.274 HD
ATOM     27  H72 UNL     1    -129.252  35.211 116.021  1.00  0.00     0.274 HD
ATOM     28  H71 UNL     1    -130.871  35.629 116.200  1.00  0.00     0.274 HD
ENDBRANCH  24  25
ENDBRANCH  22  24
ENDBRANCH  21  22
ENDBRANCH  16  21
ENDBRANCH  15  16
ENDBRANCH  10  15
ENDBRANCH   8  10
ENDBRANCH   5   8
BRANCH   3  29
HETATM   29  C7  UNL     1    -126.283  32.522 128.417  1.00  0.00     0.312 C 
BRANCH  29  30
HETATM   30  O1  UNL     1    -125.240  31.748 127.911  1.00  0.00    -0.365 OA
ATOM     31  H1  UNL     1    -124.435  32.249 127.985  1.00  0.00     0.213 HD
ENDBRANCH  29  30
BRANCH  29  32
HETATM   32  O2  UNL     1    -126.607  32.117 129.690  1.00  0.00    -0.365 OA
ATOM     33  H2  UNL     1    -126.418  32.785 130.339  1.00  0.00     0.213 HD
ENDBRANCH  29  32
ENDBRANCH   3  29
BRANCH   1  34
HETATM   34  N4  UNL     1    -130.951  31.854 127.542  1.00  0.00    -0.189 N 
ATOM     35  H4  UNL     1    -131.529  32.613 127.901  1.00  0.00     0.184 HD
BRANCH  34  36
HETATM   36  C3  UNL     1    -131.444  30.521 127.502  1.00  0.00     0.699 A 
HETATM   37  N3  UNL     1    -132.342  30.124 126.560  1.00  0.00    -0.164 N 
HETATM   38  C2  UNL     1    -132.813  28.868 126.515  1.00  0.00     0.208 A 
ATOM     39  H3  UNL     1    -132.666  30.800 125.868  1.00  0.00     0.186 HD
HETATM   40  N2  UNL     1    -132.390  27.971 127.425  1.00  0.00    -0.165 N 
HETATM   41 CL1  UNL     1    -133.976  28.350 125.296  1.00  0.00    -0.044 Cl
HETATM   42  C1  UNL     1    -131.490  28.371 128.369  1.00  0.00     0.692 A 
ATOM     43  H2  UNL     1    -132.736  27.012 127.409  1.00  0.00     0.186 HD
HETATM   44  N9  UNL     1    -131.022  29.619 128.412  1.00  0.00    -0.022 N 
ATOM     45  H9  UNL     1    -130.349  29.891 129.128  1.00  0.00     0.203 HD
BRANCH  42  46
HETATM   46  N1  UNL     1    -131.096  27.504 129.229  1.00  0.00    -0.234 N 
ATOM     47  H12 UNL     1    -131.675  26.691 129.441  1.00  0.00     0.174 HD
ATOM     48  H11 UNL     1    -130.196  27.658 129.685  1.00  0.00     0.174 HD
ENDBRANCH  42  46
ENDBRANCH  34  36
ENDBRANCH   1  34
TORSDOF 16
ENDMDL
