MODEL 1
REMARK VINA RESULT: -7.177278548      0.000      0.000
REMARK  14 active torsions:
REMARK  status: ('A' for Active; 'I' for Inactive)
REMARK    1  A    between atoms: N1_1  and  C1_4 
REMARK    2  A    between atoms: C2_7  and  N3_8 
REMARK    3  A    between atoms: C3_13  and  N5_14 
REMARK    4  A    between atoms: N5_14  and  C4_16 
REMARK    5  A    between atoms: C4_16  and  C5_17 
REMARK    6  A    between atoms: C5_17  and  O1_18 
REMARK    7  A    between atoms: O1_18  and  C6_19 
REMARK    8  A    between atoms: C9_22  and  O2_23 
REMARK    9  A    between atoms: C10_25  and  C11_26 
REMARK   10  A    between atoms: C11_26  and  N6_27 
REMARK   11  A    between atoms: C13_31  and  C14_32 
REMARK   12  A    between atoms: C14_32  and  N8_33 
REMARK   13  A    between atoms: C14_32  and  N9_37 
REMARK   14  A    between atoms: C16_42  and  N10_43 
ROOT
HETATM    1  C6  UNL     1    -127.264  32.905 125.032  1.00  0.00     0.143 C 
HETATM    2  C7  UNL     1    -126.796  32.704 126.321  1.00  0.00     0.059 C 
HETATM    3  C8  UNL     1    -127.538  32.339 127.428  1.00  0.00     0.041 C 
HETATM    4  C9  UNL     1    -128.917  32.244 127.570  1.00  0.00     0.077 C 
HETATM    5  C10 UNL     1    -129.803  32.018 126.549  1.00  0.00     0.037 C 
HETATM    6  C16 UNL     1    -129.642  32.290 125.187  1.00  0.00     0.111 C 
HETATM    7  N11 UNL     1    -128.478  32.579 124.565  1.00  0.00    -0.323 N 
ATOM      8  H11 UNL     1    -128.533  32.543 123.546  1.00  0.00     0.169 HD
ENDROOT
BRANCH   1   9
HETATM    9  O1  UNL     1    -126.376  33.496 124.168  1.00  0.00    -0.334 OA
BRANCH   9  10
HETATM   10  C5  UNL     1    -126.161  34.881 124.055  1.00  0.00     0.197 C 
BRANCH  10  11
HETATM   11  C4  UNL     1    -127.454  35.590 123.702  1.00  0.00     0.164 C 
BRANCH  11  12
HETATM   12  N5  UNL     1    -127.484  36.077 122.360  1.00  0.00    -0.223 N 
ATOM     13  H5  UNL     1    -127.224  37.054 122.224  1.00  0.00     0.177 HD
BRANCH  12  14
HETATM   14  C3  UNL     1    -127.799  35.419 121.310  1.00  0.00     0.707 A 
HETATM   15  N4  UNL     1    -127.788  34.053 121.313  1.00  0.00    -0.022 N 
HETATM   16  C2  UNL     1    -128.123  33.363 120.205  1.00  0.00     0.705 A 
ATOM     17  H4  UNL     1    -127.525  33.551 122.161  1.00  0.00     0.203 HD
HETATM   18  N2  UNL     1    -128.472  33.990 119.083  1.00  0.00    -0.022 N 
HETATM   19  C1  UNL     1    -128.490  35.353 119.057  1.00  0.00     0.705 A 
ATOM     20  H2  UNL     1    -128.724  33.456 118.251  1.00  0.00     0.203 HD
HETATM   21  N12 UNL     1    -128.156  36.032 120.161  1.00  0.00    -0.022 N 
ATOM     22  H12 UNL     1    -128.173  37.052 120.134  1.00  0.00     0.203 HD
BRANCH  16  23
HETATM   23  N3  UNL     1    -128.096  32.056 120.260  1.00  0.00    -0.234 N 
ATOM     24  H32 UNL     1    -128.233  31.534 119.394  1.00  0.00     0.174 HD
ATOM     25  H31 UNL     1    -127.942  31.574 121.146  1.00  0.00     0.174 HD
ENDBRANCH  16  23
BRANCH  19  26
HETATM   26  N1  UNL     1    -128.833  35.933 117.955  1.00  0.00    -0.234 N 
ATOM     27  H12 UNL     1    -128.226  36.590 117.464  1.00  0.00     0.174 HD
ATOM     28  H11 UNL     1    -129.751  35.717 117.568  1.00  0.00     0.174 HD
ENDBRANCH  19  26
ENDBRANCH  12  14
ENDBRANCH  11  12
ENDBRANCH  10  11
ENDBRANCH   9  10
ENDBRANCH   1   9
BRANCH   6  29
HETATM   29  N10 UNL     1    -130.713  32.256 124.492  1.00  0.00    -0.385 N 
ATOM     30 2H10 UNL     1    -131.588  32.015 124.957  1.00  0.00     0.157 HD
ATOM     31 1H10 UNL     1    -130.599  32.478 123.502  1.00  0.00     0.157 HD
ENDBRANCH   6  29
BRANCH   4  32
HETATM   32  O2  UNL     1    -129.440  32.388 128.826  1.00  0.00    -0.360 OA
ATOM     33  H2  UNL     1    -130.344  32.669 128.899  1.00  0.00     0.217 HD
ENDBRANCH   4  32
BRANCH   5  34
HETATM   34  C11 UNL     1    -131.090  31.413 126.892  1.00  0.00     0.174 C 
BRANCH  34  35
HETATM   35  N6  UNL     1    -130.986  29.963 127.021  1.00  0.00    -0.347 N 
HETATM   36  C12 UNL     1    -130.598  29.043 126.130  1.00  0.00     0.183 A 
HETATM   37  N7  UNL     1    -130.654  27.805 126.682  1.00  0.00    -0.351 N 
HETATM   38  C13 UNL     1    -131.084  27.913 127.948  1.00  0.00     0.083 A 
ATOM     39  H7  UNL     1    -130.410  26.934 126.211  1.00  0.00     0.166 HD
HETATM   40  C15 UNL     1    -131.290  29.257 128.157  1.00  0.00     0.121 A 
BRANCH  38  41
HETATM   41  C14 UNL     1    -131.299  26.806 128.944  1.00  0.00     0.428 C 
BRANCH  41  42
HETATM   42  N8  UNL     1    -132.738  26.640 129.116  1.00  0.00    -0.045 N 
ATOM     43  H83 UNL     1    -133.225  26.465 128.237  1.00  0.00     0.277 HD
ATOM     44  H82 UNL     1    -132.983  25.766 129.581  1.00  0.00     0.277 HD
ATOM     45  H81 UNL     1    -133.089  27.462 129.607  1.00  0.00     0.277 HD
ENDBRANCH  41  42
BRANCH  41  46
HETATM   46  N9  UNL     1    -130.803  27.309 130.230  1.00  0.00    -0.045 N 
ATOM     47  H93 UNL     1    -129.897  27.773 130.163  1.00  0.00     0.277 HD
ATOM     48  H92 UNL     1    -131.328  28.111 130.581  1.00  0.00     0.277 HD
ATOM     49  H91 UNL     1    -130.805  26.513 130.868  1.00  0.00     0.277 HD
ENDBRANCH  41  46
ENDBRANCH  38  41
ENDBRANCH  34  35
ENDBRANCH   5  34
TORSDOF 14
ENDMDL
MODEL 2
REMARK VINA RESULT: -7.132023007      0.039      1.454
REMARK  14 active torsions:
REMARK  status: ('A' for Active; 'I' for Inactive)
REMARK    1  A    between atoms: N1_1  and  C1_4 
REMARK    2  A    between atoms: C2_7  and  N3_8 
REMARK    3  A    between atoms: C3_13  and  N5_14 
REMARK    4  A    between atoms: N5_14  and  C4_16 
REMARK    5  A    between atoms: C4_16  and  C5_17 
REMARK    6  A    between atoms: C5_17  and  O1_18 
REMARK    7  A    between atoms: O1_18  and  C6_19 
REMARK    8  A    between atoms: C9_22  and  O2_23 
REMARK    9  A    between atoms: C10_25  and  C11_26 
REMARK   10  A    between atoms: C11_26  and  N6_27 
REMARK   11  A    between atoms: C13_31  and  C14_32 
REMARK   12  A    between atoms: C14_32  and  N8_33 
REMARK   13  A    between atoms: C14_32  and  N9_37 
REMARK   14  A    between atoms: C16_42  and  N10_43 
ROOT
HETATM    1  C6  UNL     1    -127.267  32.935 125.030  1.00  0.00     0.143 C 
HETATM    2  C7  UNL     1    -126.784  32.706 126.309  1.00  0.00     0.059 C 
HETATM    3  C8  UNL     1    -127.515  32.326 127.417  1.00  0.00     0.041 C 
HETATM    4  C9  UNL     1    -128.893  32.237 127.575  1.00  0.00     0.077 C 
HETATM    5  C10 UNL     1    -129.793  32.036 126.562  1.00  0.00     0.037 C 
HETATM    6  C16 UNL     1    -129.648  32.334 125.203  1.00  0.00     0.111 C 
HETATM    7  N11 UNL     1    -128.490  32.627 124.572  1.00  0.00    -0.323 N 
ATOM      8  H11 UNL     1    -128.557  32.611 123.554  1.00  0.00     0.169 HD
ENDROOT
BRANCH   1   9
HETATM    9  O1  UNL     1    -126.386  33.538 124.166  1.00  0.00    -0.334 OA
BRANCH   9  10
HETATM   10  C5  UNL     1    -126.156  34.923 124.084  1.00  0.00     0.197 C 
BRANCH  10  11
HETATM   11  C4  UNL     1    -127.434  35.649 123.711  1.00  0.00     0.164 C 
BRANCH  11  12
HETATM   12  N5  UNL     1    -127.455  36.095 122.355  1.00  0.00    -0.223 N 
ATOM     13  H5  UNL     1    -127.182  37.064 122.190  1.00  0.00     0.177 HD
BRANCH  12  14
HETATM   14  C3  UNL     1    -127.780  35.410 121.325  1.00  0.00     0.707 A 
HETATM   15  N4  UNL     1    -128.142  36.027 120.162  1.00  0.00    -0.022 N 
HETATM   16  C2  UNL     1    -128.482  35.302 119.078  1.00  0.00     0.705 A 
ATOM     17  H4  UNL     1    -128.155  37.046 120.113  1.00  0.00     0.203 HD
HETATM   18  N2  UNL     1    -128.474  33.970 119.112  1.00  0.00    -0.022 N 
HETATM   19  C1  UNL     1    -128.116  33.333 120.263  1.00  0.00     0.705 A 
ATOM     20  H2  UNL     1    -128.733  33.433 118.284  1.00  0.00     0.203 HD
HETATM   21  N12 UNL     1    -127.780  34.060 121.335  1.00  0.00    -0.022 N 
ATOM     22  H12 UNL     1    -127.513  33.575 122.192  1.00  0.00     0.203 HD
BRANCH  16  23
HETATM   23  N3  UNL     1    -128.822  35.942 117.989  1.00  0.00    -0.234 N 
ATOM     24  H32 UNL     1    -129.381  36.789 118.083  1.00  0.00     0.174 HD
ATOM     25  H31 UNL     1    -128.533  35.600 117.072  1.00  0.00     0.174 HD
ENDBRANCH  16  23
BRANCH  19  26
HETATM   26  N1  UNL     1    -128.118  32.042 120.265  1.00  0.00    -0.234 N 
ATOM     27  H12 UNL     1    -128.196  31.488 119.412  1.00  0.00     0.174 HD
ATOM     28  H11 UNL     1    -128.039  31.566 121.163  1.00  0.00     0.174 HD
ENDBRANCH  19  26
ENDBRANCH  12  14
ENDBRANCH  11  12
ENDBRANCH  10  11
ENDBRANCH   9  10
ENDBRANCH   1   9
BRANCH   6  29
HETATM   29  N10 UNL     1    -130.727  32.321 124.521  1.00  0.00    -0.385 N 
ATOM     30 2H10 UNL     1    -131.610  32.486 125.004  1.00  0.00     0.157 HD
ATOM     31 1H10 UNL     1    -130.612  32.140 123.524  1.00  0.00     0.157 HD
ENDBRANCH   6  29
BRANCH   4  32
HETATM   32  O2  UNL     1    -129.399  32.360 128.840  1.00  0.00    -0.360 OA
ATOM     33  H2  UNL     1    -130.328  32.532 128.930  1.00  0.00     0.217 HD
ENDBRANCH   4  32
BRANCH   5  34
HETATM   34  C11 UNL     1    -131.079  31.433 126.909  1.00  0.00     0.174 C 
BRANCH  34  35
HETATM   35  N6  UNL     1    -130.980  29.983 127.030  1.00  0.00    -0.347 N 
HETATM   36  C12 UNL     1    -130.614  29.065 126.126  1.00  0.00     0.183 A 
HETATM   37  N7  UNL     1    -130.664  27.825 126.673  1.00  0.00    -0.351 N 
HETATM   38  C13 UNL     1    -131.068  27.928 127.948  1.00  0.00     0.083 A 
ATOM     39  H7  UNL     1    -130.433  26.955 126.193  1.00  0.00     0.166 HD
HETATM   40  C15 UNL     1    -131.264  29.272 128.168  1.00  0.00     0.121 A 
BRANCH  38  41
HETATM   41  C14 UNL     1    -131.268  26.818 128.943  1.00  0.00     0.428 C 
BRANCH  41  42
HETATM   42  N8  UNL     1    -132.705  26.622 129.104  1.00  0.00    -0.045 N 
ATOM     43  H83 UNL     1    -133.211  27.496 129.244  1.00  0.00     0.277 HD
ATOM     44  H82 UNL     1    -133.165  26.337 128.240  1.00  0.00     0.277 HD
ATOM     45  H81 UNL     1    -132.843  25.956 129.865  1.00  0.00     0.277 HD
ENDBRANCH  41  42
BRANCH  41  46
HETATM   46  N9  UNL     1    -130.793  27.332 130.233  1.00  0.00    -0.045 N 
ATOM     47  H93 UNL     1    -130.076  28.052 130.144  1.00  0.00     0.277 HD
ATOM     48  H92 UNL     1    -131.483  27.902 130.722  1.00  0.00     0.277 HD
ATOM     49  H91 UNL     1    -130.486  26.519 130.768  1.00  0.00     0.277 HD
ENDBRANCH  41  46
ENDBRANCH  38  41
ENDBRANCH  34  35
ENDBRANCH   5  34
TORSDOF 14
ENDMDL
MODEL 3
REMARK VINA RESULT: -7.018609868      1.036      1.944
REMARK  14 active torsions:
REMARK  status: ('A' for Active; 'I' for Inactive)
REMARK    1  A    between atoms: N1_1  and  C1_4 
REMARK    2  A    between atoms: C2_7  and  N3_8 
REMARK    3  A    between atoms: C3_13  and  N5_14 
REMARK    4  A    between atoms: N5_14  and  C4_16 
REMARK    5  A    between atoms: C4_16  and  C5_17 
REMARK    6  A    between atoms: C5_17  and  O1_18 
REMARK    7  A    between atoms: O1_18  and  C6_19 
REMARK    8  A    between atoms: C9_22  and  O2_23 
REMARK    9  A    between atoms: C10_25  and  C11_26 
REMARK   10  A    between atoms: C11_26  and  N6_27 
REMARK   11  A    between atoms: C13_31  and  C14_32 
REMARK   12  A    between atoms: C14_32  and  N8_33 
REMARK   13  A    between atoms: C14_32  and  N9_37 
REMARK   14  A    between atoms: C16_42  and  N10_43 
ROOT
HETATM    1  C6  UNL     1    -127.280  31.970 125.057  1.00  0.00     0.143 C 
HETATM    2  C7  UNL     1    -126.768  32.031 126.344  1.00  0.00     0.059 C 
HETATM    3  C8  UNL     1    -127.486  32.066 127.523  1.00  0.00     0.041 C 
HETATM    4  C9  UNL     1    -128.854  32.211 127.716  1.00  0.00     0.077 C 
HETATM    5  C10 UNL     1    -129.822  31.870 126.808  1.00  0.00     0.037 C 
HETATM    6  C16 UNL     1    -129.706  31.768 125.417  1.00  0.00     0.111 C 
HETATM    7  N11 UNL     1    -128.553  31.720 124.715  1.00  0.00    -0.323 N 
ATOM      8  H11 UNL     1    -128.672  31.440 123.742  1.00  0.00     0.169 HD
ENDROOT
BRANCH   1   9
HETATM    9  O1  UNL     1    -126.372  32.192 124.050  1.00  0.00    -0.334 OA
BRANCH   9  10
HETATM   10  C5  UNL     1    -126.096  31.296 123.002  1.00  0.00     0.197 C 
BRANCH  10  11
HETATM   11  C4  UNL     1    -127.346  31.033 122.187  1.00  0.00     0.164 C 
BRANCH  11  12
HETATM   12  N5  UNL     1    -127.350  31.703 120.926  1.00  0.00    -0.223 N 
ATOM     13  H5  UNL     1    -127.110  31.139 120.110  1.00  0.00     0.177 HD
BRANCH  12  14
HETATM   14  C3  UNL     1    -127.623  32.933 120.710  1.00  0.00     0.707 A 
HETATM   15  N4  UNL     1    -127.428  33.873 121.683  1.00  0.00    -0.022 N 
HETATM   16  C2  UNL     1    -127.715  35.169 121.451  1.00  0.00     0.705 A 
ATOM     17  H4  UNL     1    -127.063  33.591 122.592  1.00  0.00     0.203 HD
HETATM   18  N2  UNL     1    -128.194  35.568 120.273  1.00  0.00    -0.022 N 
HETATM   19  C1  UNL     1    -128.396  34.647 119.288  1.00  0.00     0.705 A 
ATOM     20  H2  UNL     1    -128.407  36.552 120.111  1.00  0.00     0.203 HD
HETATM   21  N12 UNL     1    -128.109  33.361 119.525  1.00  0.00    -0.022 N 
ATOM     22  H12 UNL     1    -128.263  32.679 118.782  1.00  0.00     0.203 HD
BRANCH  16  23
HETATM   23  N3  UNL     1    -127.511  36.028 122.416  1.00  0.00    -0.234 N 
ATOM     24  H32 UNL     1    -126.908  36.829 122.228  1.00  0.00     0.174 HD
ATOM     25  H31 UNL     1    -127.945  35.899 123.330  1.00  0.00     0.174 HD
ENDBRANCH  16  23
BRANCH  19  26
HETATM   26  N1  UNL     1    -128.861  35.064 118.158  1.00  0.00    -0.234 N 
ATOM     27  H12 UNL     1    -129.764  35.530 118.069  1.00  0.00     0.174 HD
ATOM     28  H11 UNL     1    -128.293  34.915 117.324  1.00  0.00     0.174 HD
ENDBRANCH  19  26
ENDBRANCH  12  14
ENDBRANCH  11  12
ENDBRANCH  10  11
ENDBRANCH   9  10
ENDBRANCH   1   9
BRANCH   6  29
HETATM   29  N10 UNL     1    -130.810  31.719 124.778  1.00  0.00    -0.385 N 
ATOM     30 2H10 UNL     1    -130.905  32.274 123.927  1.00  0.00     0.157 HD
ATOM     31 1H10 UNL     1    -131.524  31.115 125.184  1.00  0.00     0.157 HD
ENDBRANCH   6  29
BRANCH   4  32
HETATM   32  O2  UNL     1    -129.278  32.738 128.905  1.00  0.00    -0.360 OA
ATOM     33  H2  UNL     1    -129.446  33.672 128.940  1.00  0.00     0.217 HD
ENDBRANCH   4  32
BRANCH   5  34
HETATM   34  C11 UNL     1    -131.156  31.564 127.322  1.00  0.00     0.174 C 
BRANCH  34  35
HETATM   35  N6  UNL     1    -131.431  30.132 127.290  1.00  0.00    -0.347 N 
HETATM   36  C12 UNL     1    -131.904  29.366 126.299  1.00  0.00     0.183 A 
HETATM   37  N7  UNL     1    -132.002  28.078 126.711  1.00  0.00    -0.351 N 
HETATM   38  C13 UNL     1    -131.590  27.995 127.984  1.00  0.00     0.083 A 
ATOM     39  H7  UNL     1    -132.335  27.298 126.144  1.00  0.00     0.166 HD
HETATM   40  C15 UNL     1    -131.235  29.275 128.343  1.00  0.00     0.121 A 
BRANCH  38  41
HETATM   41  C14 UNL     1    -131.522  26.769 128.852  1.00  0.00     0.428 C 
BRANCH  41  42
HETATM   42  N8  UNL     1    -132.891  26.358 129.145  1.00  0.00    -0.045 N 
ATOM     43  H83 UNL     1    -133.538  27.144 129.200  1.00  0.00     0.277 HD
ATOM     44  H82 UNL     1    -133.335  25.873 128.366  1.00  0.00     0.277 HD
ATOM     45  H81 UNL     1    -132.870  25.801 130.000  1.00  0.00     0.277 HD
ENDBRANCH  41  42
BRANCH  41  46
HETATM   46  N9  UNL     1    -130.957  27.204 130.135  1.00  0.00    -0.045 N 
ATOM     47  H93 UNL     1    -130.023  26.835 130.313  1.00  0.00     0.277 HD
ATOM     48  H92 UNL     1    -130.706  28.193 130.153  1.00  0.00     0.277 HD
ATOM     49  H91 UNL     1    -131.638  26.945 130.849  1.00  0.00     0.277 HD
ENDBRANCH  41  46
ENDBRANCH  38  41
ENDBRANCH  34  35
ENDBRANCH   5  34
TORSDOF 14
ENDMDL
MODEL 4
REMARK VINA RESULT: -7.004197334      1.034      2.125
REMARK  14 active torsions:
REMARK  status: ('A' for Active; 'I' for Inactive)
REMARK    1  A    between atoms: N1_1  and  C1_4 
REMARK    2  A    between atoms: C2_7  and  N3_8 
REMARK    3  A    between atoms: C3_13  and  N5_14 
REMARK    4  A    between atoms: N5_14  and  C4_16 
REMARK    5  A    between atoms: C4_16  and  C5_17 
REMARK    6  A    between atoms: C5_17  and  O1_18 
REMARK    7  A    between atoms: O1_18  and  C6_19 
REMARK    8  A    between atoms: C9_22  and  O2_23 
REMARK    9  A    between atoms: C10_25  and  C11_26 
REMARK   10  A    between atoms: C11_26  and  N6_27 
REMARK   11  A    between atoms: C13_31  and  C14_32 
REMARK   12  A    between atoms: C14_32  and  N8_33 
REMARK   13  A    between atoms: C14_32  and  N9_37 
REMARK   14  A    between atoms: C16_42  and  N10_43 
ROOT
HETATM    1  C6  UNL     1    -127.299  31.963 125.019  1.00  0.00     0.143 C 
HETATM    2  C7  UNL     1    -126.779  32.038 126.302  1.00  0.00     0.059 C 
HETATM    3  C8  UNL     1    -127.490  32.074 127.486  1.00  0.00     0.041 C 
HETATM    4  C9  UNL     1    -128.859  32.207 127.687  1.00  0.00     0.077 C 
HETATM    5  C10 UNL     1    -129.828  31.850 126.787  1.00  0.00     0.037 C 
HETATM    6  C16 UNL     1    -129.721  31.740 125.396  1.00  0.00     0.111 C 
HETATM    7  N11 UNL     1    -128.571  31.698 124.688  1.00  0.00    -0.323 N 
ATOM      8  H11 UNL     1    -128.694  31.410 123.717  1.00  0.00     0.169 HD
ENDROOT
BRANCH   1   9
HETATM    9  O1  UNL     1    -126.400  32.187 124.005  1.00  0.00    -0.334 OA
BRANCH   9  10
HETATM   10  C5  UNL     1    -126.104  31.277 122.975  1.00  0.00     0.197 C 
BRANCH  10  11
HETATM   11  C4  UNL     1    -127.341  30.998 122.144  1.00  0.00     0.164 C 
BRANCH  11  12
HETATM   12  N5  UNL     1    -127.358  31.700 120.901  1.00  0.00    -0.223 N 
ATOM     13  H5  UNL     1    -127.139  31.155 120.067  1.00  0.00     0.177 HD
BRANCH  12  14
HETATM   14  C3  UNL     1    -127.617  32.939 120.722  1.00  0.00     0.707 A 
HETATM   15  N4  UNL     1    -128.106  33.385 119.526  1.00  0.00    -0.022 N 
HETATM   16  C2  UNL     1    -128.380  34.691 119.342  1.00  0.00     0.705 A 
ATOM     17  H4  UNL     1    -128.264  32.723 118.767  1.00  0.00     0.203 HD
HETATM   18  N2  UNL     1    -128.183  35.580 120.315  1.00  0.00    -0.022 N 
HETATM   19  C1  UNL     1    -127.695  35.158 121.516  1.00  0.00     0.705 A 
ATOM     20  H2  UNL     1    -128.394  36.566 120.162  1.00  0.00     0.203 HD
HETATM   21  N12 UNL     1    -127.426  33.858 121.693  1.00  0.00    -0.022 N 
ATOM     22  H12 UNL     1    -127.062  33.551 122.595  1.00  0.00     0.203 HD
BRANCH  16  23
HETATM   23  N3  UNL     1    -128.845  35.066 118.178  1.00  0.00    -0.234 N 
ATOM     24  H32 UNL     1    -129.815  35.377 118.124  1.00  0.00     0.174 HD
ATOM     25  H31 UNL     1    -128.251  35.046 117.348  1.00  0.00     0.174 HD
ENDBRANCH  16  23
BRANCH  19  26
HETATM   26  N1  UNL     1    -127.515  36.042 122.440  1.00  0.00    -0.234 N 
ATOM     27  H12 UNL     1    -126.612  36.199 122.886  1.00  0.00     0.174 HD
ATOM     28  H11 UNL     1    -128.318  36.602 122.727  1.00  0.00     0.174 HD
ENDBRANCH  19  26
ENDBRANCH  12  14
ENDBRANCH  11  12
ENDBRANCH  10  11
ENDBRANCH   9  10
ENDBRANCH   1   9
BRANCH   6  29
HETATM   29  N10 UNL     1    -130.828  31.675 124.765  1.00  0.00    -0.385 N 
ATOM     30 2H10 UNL     1    -131.601  31.162 125.189  1.00  0.00     0.157 HD
ATOM     31 1H10 UNL     1    -130.847  32.155 123.865  1.00  0.00     0.157 HD
ENDBRANCH   6  29
BRANCH   4  32
HETATM   32  O2  UNL     1    -129.279  32.738 128.875  1.00  0.00    -0.360 OA
ATOM     33  H2  UNL     1    -128.905  32.386 129.674  1.00  0.00     0.217 HD
ENDBRANCH   4  32
BRANCH   5  34
HETATM   34  C11 UNL     1    -131.156  31.535 127.313  1.00  0.00     0.174 C 
BRANCH  34  35
HETATM   35  N6  UNL     1    -131.420  30.100 127.284  1.00  0.00    -0.347 N 
HETATM   36  C12 UNL     1    -131.860  29.323 126.287  1.00  0.00     0.183 A 
HETATM   37  N7  UNL     1    -131.961  28.037 126.705  1.00  0.00    -0.351 N 
HETATM   38  C13 UNL     1    -131.584  27.968 127.991  1.00  0.00     0.083 A 
ATOM     39  H7  UNL     1    -132.272  27.251 126.135  1.00  0.00     0.166 HD
HETATM   40  C15 UNL     1    -131.248  29.253 128.349  1.00  0.00     0.121 A 
BRANCH  38  41
HETATM   41  C14 UNL     1    -131.532  26.749 128.870  1.00  0.00     0.428 C 
BRANCH  41  42
HETATM   42  N8  UNL     1    -132.907  26.364 129.175  1.00  0.00    -0.045 N 
ATOM     43  H83 UNL     1    -133.054  25.356 129.140  1.00  0.00     0.277 HD
ATOM     44  H82 UNL     1    -133.148  26.502 130.156  1.00  0.00     0.277 HD
ATOM     45  H81 UNL     1    -133.519  26.877 128.540  1.00  0.00     0.277 HD
ENDBRANCH  41  42
BRANCH  41  46
HETATM   46  N9  UNL     1    -130.953  27.186 130.145  1.00  0.00    -0.045 N 
ATOM     47  H93 UNL     1    -131.388  28.029 130.521  1.00  0.00     0.277 HD
ATOM     48  H92 UNL     1    -131.180  26.570 130.926  1.00  0.00     0.277 HD
ATOM     49  H91 UNL     1    -129.950  27.285 129.984  1.00  0.00     0.277 HD
ENDBRANCH  41  46
ENDBRANCH  38  41
ENDBRANCH  34  35
ENDBRANCH   5  34
TORSDOF 14
ENDMDL
MODEL 5
REMARK VINA RESULT: -6.941935197      1.150      2.011
REMARK  14 active torsions:
REMARK  status: ('A' for Active; 'I' for Inactive)
REMARK    1  A    between atoms: N1_1  and  C1_4 
REMARK    2  A    between atoms: C2_7  and  N3_8 
REMARK    3  A    between atoms: C3_13  and  N5_14 
REMARK    4  A    between atoms: N5_14  and  C4_16 
REMARK    5  A    between atoms: C4_16  and  C5_17 
REMARK    6  A    between atoms: C5_17  and  O1_18 
REMARK    7  A    between atoms: O1_18  and  C6_19 
REMARK    8  A    between atoms: C9_22  and  O2_23 
REMARK    9  A    between atoms: C10_25  and  C11_26 
REMARK   10  A    between atoms: C11_26  and  N6_27 
REMARK   11  A    between atoms: C13_31  and  C14_32 
REMARK   12  A    between atoms: C14_32  and  N8_33 
REMARK   13  A    between atoms: C14_32  and  N9_37 
REMARK   14  A    between atoms: C16_42  and  N10_43 
ROOT
HETATM    1  C6  UNL     1    -127.314  32.329 126.512  1.00  0.00     0.143 C 
HETATM    2  C7  UNL     1    -127.231  32.256 127.894  1.00  0.00     0.059 C 
HETATM    3  C8  UNL     1    -128.278  32.106 128.782  1.00  0.00     0.041 C 
HETATM    4  C9  UNL     1    -129.647  32.152 128.545  1.00  0.00     0.077 C 
HETATM    5  C10 UNL     1    -130.251  31.874 127.348  1.00  0.00     0.037 C 
HETATM    6  C16 UNL     1    -129.704  31.952 126.062  1.00  0.00     0.111 C 
HETATM    7  N11 UNL     1    -128.391  32.054 125.761  1.00  0.00    -0.323 N 
ATOM      8  H11 UNL     1    -128.178  31.891 124.777  1.00  0.00     0.169 HD
ENDROOT
BRANCH   1   9
HETATM    9  O1  UNL     1    -126.164  32.722 125.872  1.00  0.00    -0.334 OA
BRANCH   9  10
HETATM   10  C5  UNL     1    -126.084  33.113 124.524  1.00  0.00     0.197 C 
BRANCH  10  11
HETATM   11  C4  UNL     1    -126.760  34.455 124.320  1.00  0.00     0.164 C 
BRANCH  11  12
HETATM   12  N5  UNL     1    -127.824  34.414 123.369  1.00  0.00    -0.223 N 
ATOM     13  H5  UNL     1    -128.680  34.907 123.622  1.00  0.00     0.177 HD
BRANCH  12  14
HETATM   14  C3  UNL     1    -127.817  33.826 122.233  1.00  0.00     0.707 A 
HETATM   15  N4  UNL     1    -128.185  34.493 121.099  1.00  0.00    -0.022 N 
HETATM   16  C2  UNL     1    -128.176  33.870 119.904  1.00  0.00     0.705 A 
ATOM     17  H4  UNL     1    -128.470  35.470 121.158  1.00  0.00     0.203 HD
HETATM   18  N2  UNL     1    -127.809  32.594 119.796  1.00  0.00    -0.022 N 
HETATM   19  C1  UNL     1    -127.437  31.908 120.915  1.00  0.00     0.705 A 
ATOM     20  H2  UNL     1    -127.805  32.135 118.885  1.00  0.00     0.203 HD
HETATM   21  N12 UNL     1    -127.449  32.533 122.099  1.00  0.00    -0.022 N 
ATOM     22  H12 UNL     1    -127.169  32.014 122.931  1.00  0.00     0.203 HD
BRANCH  16  23
HETATM   23  N3  UNL     1    -128.538  34.554 118.849  1.00  0.00    -0.234 N 
ATOM     24  H32 UNL     1    -129.467  34.976 118.845  1.00  0.00     0.174 HD
ATOM     25  H31 UNL     1    -127.907  34.660 118.055  1.00  0.00     0.174 HD
ENDBRANCH  16  23
BRANCH  19  26
HETATM   26  N1  UNL     1    -127.086  30.673 120.778  1.00  0.00    -0.234 N 
ATOM     27  H12 UNL     1    -127.595  30.016 120.187  1.00  0.00     0.174 HD
ATOM     28  H11 UNL     1    -126.264  30.352 121.289  1.00  0.00     0.174 HD
ENDBRANCH  19  26
ENDBRANCH  12  14
ENDBRANCH  11  12
ENDBRANCH  10  11
ENDBRANCH   9  10
ENDBRANCH   1   9
BRANCH   6  29
HETATM   29  N10 UNL     1    -130.548  31.922 125.105  1.00  0.00    -0.385 N 
ATOM     30 2H10 UNL     1    -130.586  31.092 124.514  1.00  0.00     0.157 HD
ATOM     31 1H10 UNL     1    -131.129  32.756 125.008  1.00  0.00     0.157 HD
ENDBRANCH   6  29
BRANCH   4  32
HETATM   32  O2  UNL     1    -130.462  32.504 129.586  1.00  0.00    -0.360 OA
ATOM     33  H2  UNL     1    -131.208  31.946 129.771  1.00  0.00     0.217 HD
ENDBRANCH   4  32
BRANCH   5  34
HETATM   34  C11 UNL     1    -131.646  31.435 127.379  1.00  0.00     0.174 C 
BRANCH  34  35
HETATM   35  N6  UNL     1    -131.754  29.980 127.326  1.00  0.00    -0.347 N 
HETATM   36  C12 UNL     1    -131.969  29.169 126.283  1.00  0.00     0.183 A 
HETATM   37  N7  UNL     1    -131.994  27.877 126.694  1.00  0.00    -0.351 N 
HETATM   38  C13 UNL     1    -131.794  27.838 128.019  1.00  0.00     0.083 A 
ATOM     39  H7  UNL     1    -132.141  27.066 126.093  1.00  0.00     0.166 HD
HETATM   40  C15 UNL     1    -131.645  29.149 128.411  1.00  0.00     0.121 A 
BRANCH  38  41
HETATM   41  C14 UNL     1    -131.740  26.625 128.907  1.00  0.00     0.428 C 
BRANCH  41  42
HETATM   42  N8  UNL     1    -133.112  26.272 129.258  1.00  0.00    -0.045 N 
ATOM     43  H83 UNL     1    -133.343  25.305 129.030  1.00  0.00     0.277 HD
ATOM     44  H82 UNL     1    -133.260  26.212 130.265  1.00  0.00     0.277 HD
ATOM     45  H81 UNL     1    -133.730  26.945 128.805  1.00  0.00     0.277 HD
ENDBRANCH  41  42
BRANCH  41  46
HETATM   46  N9  UNL     1    -131.112  27.060 130.160  1.00  0.00    -0.045 N 
ATOM     47  H93 UNL     1    -130.106  27.207 130.080  1.00  0.00     0.277 HD
ATOM     48  H92 UNL     1    -131.357  28.015 130.426  1.00  0.00     0.277 HD
ATOM     49  H91 UNL     1    -131.365  26.365 130.863  1.00  0.00     0.277 HD
ENDBRANCH  41  46
ENDBRANCH  38  41
ENDBRANCH  34  35
ENDBRANCH   5  34
TORSDOF 14
ENDMDL
