MODEL 1
REMARK VINA RESULT: -8.290072335      0.000      0.000
REMARK  13 active torsions:
REMARK  status: ('A' for Active; 'I' for Inactive)
REMARK    1  A    between atoms: N1_1  and  C1_4 
REMARK    2  A    between atoms: C2_7  and  S1_8 
REMARK    3  A    between atoms: S1_8  and  C3_9 
REMARK    4  A    between atoms: C3_9  and  C4_10 
REMARK    5  A    between atoms: C6_14  and  N4_15 
REMARK    6  A    between atoms: C8_26  and  N8_27 
REMARK    7  A    between atoms: N8_27  and  C9_29 
REMARK    8  A    between atoms: C9_29  and  C10_30 
REMARK    9  A    between atoms: C10_30  and  O1_31 
REMARK   10  A    between atoms: C12_37  and  C13_38 
REMARK   11  A    between atoms: C13_38  and  O2_39 
REMARK   12  A    between atoms: C13_38  and  C14_41 
REMARK   13  A    between atoms: C14_41  and  N11_42 
ROOT
HETATM    1  C4  UNL     1    -128.313  32.105 126.131  1.00  0.00     0.108 A 
HETATM    2  N3  UNL     1    -129.039  31.168 125.502  1.00  0.00    -0.325 N 
ATOM      3  H3  UNL     1    -128.772  30.619 124.685  1.00  0.00     0.169 HD
HETATM    4  C5  UNL     1    -130.195  31.111 126.189  1.00  0.00     0.191 A 
HETATM    5  C6  UNL     1    -131.181  30.234 125.798  1.00  0.00     0.161 C 
HETATM    6  N5  UNL     1    -132.345  29.987 126.428  1.00  0.00    -0.173 N 
ATOM      7  H5  UNL     1    -132.904  29.224 126.047  1.00  0.00     0.186 HD
HETATM    8  C7  UNL     1    -132.862  30.618 127.492  1.00  0.00     0.692 C 
HETATM    9  N6  UNL     1    -133.954  30.066 127.926  1.00  0.00    -0.234 N 
ATOM     10  H61 UNL     1    -134.347  30.546 128.736  1.00  0.00     0.174 HD
ATOM     11  H62 UNL     1    -134.319  29.240 127.453  1.00  0.00     0.174 HD
HETATM   12  N7  UNL     1    -132.386  31.698 128.110  1.00  0.00    -0.021 N 
ATOM     13  H7  UNL     1    -133.080  32.204 128.660  1.00  0.00     0.203 HD
HETATM   14  C8  UNL     1    -131.139  32.250 128.143  1.00  0.00     0.716 C 
HETATM   15  N9  UNL     1    -130.194  31.994 127.226  1.00  0.00    -0.064 N 
HETATM   16  N10 UNL     1    -129.026  32.586 127.161  1.00  0.00    -0.265 N 
ATOM     17  H10 UNL     1    -128.704  33.310 127.803  1.00  0.00     0.189 HD
ENDROOT
BRANCH   1  18
HETATM   18  C3  UNL     1    -126.935  32.610 125.822  1.00  0.00     0.158 C 
BRANCH  18  19
HETATM   19  S1  UNL     1    -126.964  33.730 124.424  1.00  0.00    -0.104 SA
BRANCH  19  20
HETATM   20  C2  UNL     1    -127.231  32.875 122.880  1.00  0.00     0.088 A 
HETATM   21  N2  UNL     1    -127.591  33.557 121.798  1.00  0.00    -0.186 N 
HETATM   22  C1  UNL     1    -127.822  33.019 120.589  1.00  0.00     0.677 A 
ATOM     23  H2  UNL     1    -127.700  34.566 121.892  1.00  0.00     0.185 HD
HETATM   24  N12 UNL     1    -127.673  31.678 120.483  1.00  0.00    -0.193 N 
HETATM   25  C12 UNL     1    -127.311  30.917 121.530  1.00  0.00     0.059 A 
ATOM     26  H12 UNL     1    -127.840  31.232 119.581  1.00  0.00     0.184 HD
HETATM   27  C11 UNL     1    -127.080  31.515 122.770  1.00  0.00     0.065 A 
BRANCH  22  28
HETATM   28  N1  UNL     1    -128.169  33.702 119.562  1.00  0.00    -0.234 N 
ATOM     29  H12 UNL     1    -127.704  34.587 119.364  1.00  0.00     0.174 HD
ATOM     30  H11 UNL     1    -128.898  33.412 118.910  1.00  0.00     0.174 HD
ENDBRANCH  22  28
BRANCH  25  31
HETATM   31  C13 UNL     1    -127.135  29.469 121.453  1.00  0.00     0.194 C 
BRANCH  31  32
HETATM   32  O2  UNL     1    -126.189  28.979 122.343  1.00  0.00    -0.388 OA
ATOM     33  H2  UNL     1    -125.343  28.815 121.945  1.00  0.00     0.210 HD
ENDBRANCH  31  32
BRANCH  31  34
HETATM   34  C14 UNL     1    -128.405  28.681 121.646  1.00  0.00     0.267 C 
BRANCH  34  35
HETATM   35  N11 UNL     1    -129.019  28.381 120.375  1.00  0.00    -0.077 N 
ATOM     36 3H11 UNL     1    -130.018  28.197 120.472  1.00  0.00     0.274 HD
ATOM     37 2H11 UNL     1    -129.073  29.206 119.777  1.00  0.00     0.274 HD
ATOM     38 1H11 UNL     1    -128.536  27.610 119.913  1.00  0.00     0.274 HD
ENDBRANCH  34  35
ENDBRANCH  31  34
ENDBRANCH  25  31
ENDBRANCH  19  20
ENDBRANCH  18  19
ENDBRANCH   1  18
BRANCH   5  39
HETATM   39  N4  UNL     1    -130.949  29.574 124.689  1.00  0.00    -0.382 N 
ATOM     40  H42 UNL     1    -130.207  29.927 124.084  1.00  0.00     0.157 HD
ATOM     41  H41 UNL     1    -131.538  28.757 124.527  1.00  0.00     0.157 HD
ENDBRANCH   5  39
BRANCH  14  42
HETATM   42  N8  UNL     1    -130.927  33.028 129.099  1.00  0.00    -0.222 N 
ATOM     43  H8  UNL     1    -130.011  32.939 129.539  1.00  0.00     0.177 HD
BRANCH  42  44
HETATM   44  C9  UNL     1    -131.772  34.011 129.658  1.00  0.00     0.164 C 
BRANCH  44  45
HETATM   45  C10 UNL     1    -131.537  34.154 131.175  1.00  0.00     0.184 C 
BRANCH  45  46
HETATM   46  O1  UNL     1    -130.564  35.119 131.428  1.00  0.00    -0.399 OA
ATOM     47  H1  UNL     1    -130.366  35.156 132.356  1.00  0.00     0.209 HD
ENDBRANCH  45  46
ENDBRANCH  44  45
ENDBRANCH  42  44
ENDBRANCH  14  42
TORSDOF 13
ENDMDL
MODEL 2
REMARK VINA RESULT: -7.852152457      3.135      7.055
REMARK  13 active torsions:
REMARK  status: ('A' for Active; 'I' for Inactive)
REMARK    1  A    between atoms: N1_1  and  C1_4 
REMARK    2  A    between atoms: C2_7  and  S1_8 
REMARK    3  A    between atoms: S1_8  and  C3_9 
REMARK    4  A    between atoms: C3_9  and  C4_10 
REMARK    5  A    between atoms: C6_14  and  N4_15 
REMARK    6  A    between atoms: C8_26  and  N8_27 
REMARK    7  A    between atoms: N8_27  and  C9_29 
REMARK    8  A    between atoms: C9_29  and  C10_30 
REMARK    9  A    between atoms: C10_30  and  O1_31 
REMARK   10  A    between atoms: C12_37  and  C13_38 
REMARK   11  A    between atoms: C13_38  and  O2_39 
REMARK   12  A    between atoms: C13_38  and  C14_41 
REMARK   13  A    between atoms: C14_41  and  N11_42 
ROOT
HETATM    1  C4  UNL     1    -127.868  32.229 125.757  1.00  0.00     0.108 A 
HETATM    2  N3  UNL     1    -127.694  31.190 124.925  1.00  0.00    -0.325 N 
ATOM      3  H3  UNL     1    -127.654  30.199 125.166  1.00  0.00     0.169 HD
HETATM    4  C5  UNL     1    -127.584  31.743 123.702  1.00  0.00     0.191 A 
HETATM    5  C6  UNL     1    -127.393  30.939 122.602  1.00  0.00     0.161 C 
HETATM    6  N5  UNL     1    -127.360  31.323 121.312  1.00  0.00    -0.173 N 
ATOM      7  H5  UNL     1    -127.316  30.571 120.624  1.00  0.00     0.186 HD
HETATM    8  C7  UNL     1    -127.379  32.569 120.817  1.00  0.00     0.692 C 
HETATM    9  N6  UNL     1    -127.447  32.598 119.520  1.00  0.00    -0.234 N 
ATOM     10  H61 UNL     1    -127.462  33.545 119.144  1.00  0.00     0.174 HD
ATOM     11  H62 UNL     1    -127.479  31.720 119.002  1.00  0.00     0.174 HD
HETATM   12  N7  UNL     1    -127.336  33.716 121.493  1.00  0.00    -0.021 N 
ATOM     13  H7  UNL     1    -127.025  34.515 120.941  1.00  0.00     0.203 HD
HETATM   14  C8  UNL     1    -127.633  34.017 122.790  1.00  0.00     0.716 C 
HETATM   15  N9  UNL     1    -127.688  33.100 123.767  1.00  0.00    -0.064 N 
HETATM   16  N10 UNL     1    -127.861  33.363 125.040  1.00  0.00    -0.265 N 
ATOM     17  H10 UNL     1    -127.974  34.298 125.431  1.00  0.00     0.189 HD
ENDROOT
BRANCH   1  18
HETATM   18  C3  UNL     1    -128.046  32.238 127.246  1.00  0.00     0.158 C 
BRANCH  18  19
HETATM   19  S1  UNL     1    -129.777  32.394 127.680  1.00  0.00    -0.104 SA
BRANCH  19  20
HETATM   20  C2  UNL     1    -130.709  30.926 127.283  1.00  0.00     0.088 A 
HETATM   21  N2  UNL     1    -131.539  30.927 126.246  1.00  0.00    -0.186 N 
HETATM   22  C1  UNL     1    -132.292  29.884 125.859  1.00  0.00     0.677 A 
ATOM     23  H2  UNL     1    -131.611  31.786 125.701  1.00  0.00     0.185 HD
HETATM   24  N12 UNL     1    -132.184  28.752 126.593  1.00  0.00    -0.193 N 
HETATM   25  C12 UNL     1    -131.367  28.669 127.658  1.00  0.00     0.059 A 
ATOM     26  H12 UNL     1    -132.740  27.938 126.331  1.00  0.00     0.184 HD
HETATM   27  C11 UNL     1    -130.602  29.776 128.027  1.00  0.00     0.065 A 
BRANCH  22  28
HETATM   28  N1  UNL     1    -133.085  29.915 124.853  1.00  0.00    -0.234 N 
ATOM     29  H12 UNL     1    -134.093  29.939 125.006  1.00  0.00     0.174 HD
ATOM     30  H11 UNL     1    -132.769  29.917 123.883  1.00  0.00     0.174 HD
ENDBRANCH  22  28
BRANCH  25  31
HETATM   31  C13 UNL     1    -131.219  27.465 128.470  1.00  0.00     0.194 C 
BRANCH  31  32
HETATM   32  O2  UNL     1    -131.214  27.715 129.835  1.00  0.00    -0.388 OA
ATOM     33  H2  UNL     1    -130.574  27.201 130.312  1.00  0.00     0.210 HD
ENDBRANCH  31  32
BRANCH  31  34
HETATM   34  C14 UNL     1    -132.256  26.405 128.197  1.00  0.00     0.267 C 
BRANCH  34  35
HETATM   35  N11 UNL     1    -133.227  26.352 129.262  1.00  0.00    -0.077 N 
ATOM     36 3H11 UNL     1    -134.027  25.768 129.015  1.00  0.00     0.274 HD
ATOM     37 2H11 UNL     1    -132.886  25.814 130.058  1.00  0.00     0.274 HD
ATOM     38 1H11 UNL     1    -133.516  27.291 129.536  1.00  0.00     0.274 HD
ENDBRANCH  34  35
ENDBRANCH  31  34
ENDBRANCH  25  31
ENDBRANCH  19  20
ENDBRANCH  18  19
ENDBRANCH   1  18
BRANCH   5  39
HETATM   39  N4  UNL     1    -127.223  29.664 122.851  1.00  0.00    -0.382 N 
ATOM     40  H42 UNL     1    -127.891  29.219 123.482  1.00  0.00     0.157 HD
ATOM     41  H41 UNL     1    -126.429  29.223 122.387  1.00  0.00     0.157 HD
ENDBRANCH   5  39
BRANCH  14  42
HETATM   42  N8  UNL     1    -127.854  35.227 123.017  1.00  0.00    -0.222 N 
ATOM     43  H8  UNL     1    -128.696  35.423 123.558  1.00  0.00     0.177 HD
BRANCH  42  44
HETATM   44  C9  UNL     1    -127.107  36.362 122.634  1.00  0.00     0.164 C 
BRANCH  44  45
HETATM   45  C10 UNL     1    -126.416  37.014 123.847  1.00  0.00     0.184 C 
BRANCH  45  46
HETATM   46  O1  UNL     1    -127.321  37.802 124.556  1.00  0.00    -0.399 OA
ATOM     47  H1  UNL     1    -126.949  38.658 124.733  1.00  0.00     0.209 HD
ENDBRANCH  45  46
ENDBRANCH  44  45
ENDBRANCH  42  44
ENDBRANCH  14  42
TORSDOF 13
ENDMDL
MODEL 3
REMARK VINA RESULT: -7.762642209      1.519      2.596
REMARK  13 active torsions:
REMARK  status: ('A' for Active; 'I' for Inactive)
REMARK    1  A    between atoms: N1_1  and  C1_4 
REMARK    2  A    between atoms: C2_7  and  S1_8 
REMARK    3  A    between atoms: S1_8  and  C3_9 
REMARK    4  A    between atoms: C3_9  and  C4_10 
REMARK    5  A    between atoms: C6_14  and  N4_15 
REMARK    6  A    between atoms: C8_26  and  N8_27 
REMARK    7  A    between atoms: N8_27  and  C9_29 
REMARK    8  A    between atoms: C9_29  and  C10_30 
REMARK    9  A    between atoms: C10_30  and  O1_31 
REMARK   10  A    between atoms: C12_37  and  C13_38 
REMARK   11  A    between atoms: C13_38  and  O2_39 
REMARK   12  A    between atoms: C13_38  and  C14_41 
REMARK   13  A    between atoms: C14_41  and  N11_42 
ROOT
HETATM    1  C4  UNL     1    -128.275  32.105 126.525  1.00  0.00     0.108 A 
HETATM    2  N3  UNL     1    -128.965  31.215 125.795  1.00  0.00    -0.325 N 
ATOM      3  H3  UNL     1    -128.640  30.690 124.983  1.00  0.00     0.169 HD
HETATM    4  C5  UNL     1    -130.181  31.168 126.371  1.00  0.00     0.191 A 
HETATM    5  C6  UNL     1    -131.150  30.338 125.856  1.00  0.00     0.161 C 
HETATM    6  N5  UNL     1    -132.374  30.104 126.368  1.00  0.00    -0.173 N 
ATOM      7  H5  UNL     1    -132.917  29.373 125.907  1.00  0.00     0.186 HD
HETATM    8  C7  UNL     1    -132.969  30.709 127.406  1.00  0.00     0.692 C 
HETATM    9  N6  UNL     1    -134.111  30.175 127.717  1.00  0.00    -0.234 N 
ATOM     10  H61 UNL     1    -134.563  30.636 128.506  1.00  0.00     0.174 HD
ATOM     11  H62 UNL     1    -134.454  29.380 127.179  1.00  0.00     0.174 HD
HETATM   12  N7  UNL     1    -132.522  31.749 128.109  1.00  0.00    -0.021 N 
ATOM     13  H7  UNL     1    -133.249  32.255 128.613  1.00  0.00     0.203 HD
HETATM   14  C8  UNL     1    -131.269  32.260 128.277  1.00  0.00     0.716 C 
HETATM   15  N9  UNL     1    -130.250  32.010 127.440  1.00  0.00    -0.064 N 
HETATM   16  N10 UNL     1    -129.066  32.568 127.505  1.00  0.00    -0.265 N 
ATOM     17  H10 UNL     1    -128.784  33.257 128.203  1.00  0.00     0.189 HD
ENDROOT
BRANCH   1  18
HETATM   18  C3  UNL     1    -126.861  32.578 126.363  1.00  0.00     0.158 C 
BRANCH  18  19
HETATM   19  S1  UNL     1    -126.700  33.624 124.917  1.00  0.00    -0.104 SA
BRANCH  19  20
HETATM   20  C2  UNL     1    -126.962  32.724 123.399  1.00  0.00     0.088 A 
HETATM   21  N2  UNL     1    -126.642  31.437 123.328  1.00  0.00    -0.186 N 
HETATM   22  C1  UNL     1    -126.791  30.665 122.239  1.00  0.00     0.677 A 
ATOM     23  H2  UNL     1    -126.254  31.001 124.164  1.00  0.00     0.185 HD
HETATM   24  N12 UNL     1    -127.307  31.260 121.137  1.00  0.00    -0.193 N 
HETATM   25  C12 UNL     1    -127.655  32.559 121.128  1.00  0.00     0.059 A 
ATOM     26  H12 UNL     1    -127.435  30.707 120.290  1.00  0.00     0.184 HD
HETATM   27  C11 UNL     1    -127.485  33.327 122.281  1.00  0.00     0.065 A 
BRANCH  22  28
HETATM   28  N1  UNL     1    -126.473  29.424 122.199  1.00  0.00    -0.234 N 
ATOM     29  H12 UNL     1    -126.990  28.753 122.766  1.00  0.00     0.174 HD
ATOM     30  H11 UNL     1    -125.719  29.052 121.622  1.00  0.00     0.174 HD
ENDBRANCH  22  28
BRANCH  25  31
HETATM   31  C13 UNL     1    -128.220  33.234 119.963  1.00  0.00     0.194 C 
BRANCH  31  32
HETATM   32  O2  UNL     1    -129.479  32.769 119.610  1.00  0.00    -0.388 OA
ATOM     33  H2  UNL     1    -130.021  32.539 120.355  1.00  0.00     0.210 HD
ENDBRANCH  31  32
BRANCH  31  34
HETATM   34  C14 UNL     1    -128.301  34.733 120.099  1.00  0.00     0.267 C 
BRANCH  34  35
HETATM   35  N11 UNL     1    -128.392  35.361 118.803  1.00  0.00    -0.077 N 
ATOM     36 3H11 UNL     1    -129.302  35.204 118.371  1.00  0.00     0.274 HD
ATOM     37 2H11 UNL     1    -128.430  36.377 118.877  1.00  0.00     0.274 HD
ATOM     38 1H11 UNL     1    -127.629  35.055 118.199  1.00  0.00     0.274 HD
ENDBRANCH  34  35
ENDBRANCH  31  34
ENDBRANCH  25  31
ENDBRANCH  19  20
ENDBRANCH  18  19
ENDBRANCH   1  18
BRANCH   5  39
HETATM   39  N4  UNL     1    -130.836  29.715 124.747  1.00  0.00    -0.382 N 
ATOM     40  H42 UNL     1    -131.577  29.590 124.057  1.00  0.00     0.157 HD
ATOM     41  H41 UNL     1    -129.867  29.406 124.671  1.00  0.00     0.157 HD
ENDBRANCH   5  39
BRANCH  14  42
HETATM   42  N8  UNL     1    -131.124  32.994 129.279  1.00  0.00    -0.222 N 
ATOM     43  H8  UNL     1    -130.340  32.755 129.886  1.00  0.00     0.177 HD
BRANCH  42  44
HETATM   44  C9  UNL     1    -131.889  34.106 129.694  1.00  0.00     0.164 C 
BRANCH  44  45
HETATM   45  C10 UNL     1    -131.856  34.268 131.226  1.00  0.00     0.184 C 
BRANCH  45  46
HETATM   46  O1  UNL     1    -130.755  35.031 131.611  1.00  0.00    -0.399 OA
ATOM     47  H1  UNL     1    -130.392  34.702 132.425  1.00  0.00     0.209 HD
ENDBRANCH  45  46
ENDBRANCH  44  45
ENDBRANCH  42  44
ENDBRANCH  14  42
TORSDOF 13
ENDMDL
MODEL 4
REMARK VINA RESULT: -7.658207443      2.077      2.772
REMARK  13 active torsions:
REMARK  status: ('A' for Active; 'I' for Inactive)
REMARK    1  A    between atoms: N1_1  and  C1_4 
REMARK    2  A    between atoms: C2_7  and  S1_8 
REMARK    3  A    between atoms: S1_8  and  C3_9 
REMARK    4  A    between atoms: C3_9  and  C4_10 
REMARK    5  A    between atoms: C6_14  and  N4_15 
REMARK    6  A    between atoms: C8_26  and  N8_27 
REMARK    7  A    between atoms: N8_27  and  C9_29 
REMARK    8  A    between atoms: C9_29  and  C10_30 
REMARK    9  A    between atoms: C10_30  and  O1_31 
REMARK   10  A    between atoms: C12_37  and  C13_38 
REMARK   11  A    between atoms: C13_38  and  O2_39 
REMARK   12  A    between atoms: C13_38  and  C14_41 
REMARK   13  A    between atoms: C14_41  and  N11_42 
ROOT
HETATM    1  C4  UNL     1    -128.432  32.116 126.363  1.00  0.00     0.108 A 
HETATM    2  N3  UNL     1    -129.146  31.198 125.693  1.00  0.00    -0.325 N 
ATOM      3  H3  UNL     1    -128.856  30.657 124.878  1.00  0.00     0.169 HD
HETATM    4  C5  UNL     1    -130.329  31.148 126.333  1.00  0.00     0.191 A 
HETATM    5  C6  UNL     1    -131.311  30.291 125.891  1.00  0.00     0.161 C 
HETATM    6  N5  UNL     1    -132.502  30.053 126.472  1.00  0.00    -0.173 N 
ATOM      7  H5  UNL     1    -133.056  29.303 126.060  1.00  0.00     0.186 HD
HETATM    8  C7  UNL     1    -133.051  30.676 127.525  1.00  0.00     0.692 C 
HETATM    9  N6  UNL     1    -134.167  30.134 127.909  1.00  0.00    -0.234 N 
ATOM     10  H61 UNL     1    -134.584  30.608 128.709  1.00  0.00     0.174 HD
ATOM     11  H62 UNL     1    -134.525  29.320 127.410  1.00  0.00     0.174 HD
HETATM   12  N7  UNL     1    -132.584  31.740 128.177  1.00  0.00    -0.021 N 
ATOM     13  H7  UNL     1    -133.292  32.248 128.707  1.00  0.00     0.203 HD
HETATM   14  C8  UNL     1    -131.332  32.274 128.266  1.00  0.00     0.716 C 
HETATM   15  N9  UNL     1    -130.355  32.017 127.383  1.00  0.00    -0.064 N 
HETATM   16  N10 UNL     1    -129.178  32.592 127.371  1.00  0.00    -0.265 N 
ATOM     17  H10 UNL     1    -128.871  33.303 128.036  1.00  0.00     0.189 HD
ENDROOT
BRANCH   1  18
HETATM   18  C3  UNL     1    -127.036  32.605 126.114  1.00  0.00     0.158 C 
BRANCH  18  19
HETATM   19  S1  UNL     1    -126.486  32.157 124.469  1.00  0.00    -0.104 SA
BRANCH  19  20
HETATM   20  C2  UNL     1    -126.889  33.405 123.259  1.00  0.00     0.088 A 
HETATM   21  N2  UNL     1    -126.695  34.689 123.539  1.00  0.00    -0.186 N 
HETATM   22  C1  UNL     1    -126.965  35.709 122.709  1.00  0.00     0.677 A 
ATOM     23  H2  UNL     1    -126.310  34.918 124.456  1.00  0.00     0.185 HD
HETATM   24  N12 UNL     1    -127.476  35.387 121.497  1.00  0.00    -0.193 N 
HETATM   25  C12 UNL     1    -127.703  34.112 121.137  1.00  0.00     0.059 A 
ATOM     26  H12 UNL     1    -127.695  36.135 120.839  1.00  0.00     0.184 HD
HETATM   27  C11 UNL     1    -127.407  33.080 122.029  1.00  0.00     0.065 A 
BRANCH  22  28
HETATM   28  N1  UNL     1    -126.768  36.939 123.007  1.00  0.00    -0.234 N 
ATOM     29  H12 UNL     1    -126.042  37.185 123.680  1.00  0.00     0.174 HD
ATOM     30  H11 UNL     1    -127.301  37.711 122.606  1.00  0.00     0.174 HD
ENDBRANCH  22  28
BRANCH  25  31
HETATM   31  C13 UNL     1    -128.246  33.725 119.838  1.00  0.00     0.194 C 
BRANCH  31  32
HETATM   32  O2  UNL     1    -129.231  32.751 119.917  1.00  0.00    -0.388 OA
ATOM     33  H2  UNL     1    -129.651  32.568 119.086  1.00  0.00     0.210 HD
ENDBRANCH  31  32
BRANCH  31  34
HETATM   34  C14 UNL     1    -128.794  34.874 119.031  1.00  0.00     0.267 C 
BRANCH  34  35
HETATM   35  N11 UNL     1    -128.073  35.019 117.790  1.00  0.00    -0.077 N 
ATOM     36 3H11 UNL     1    -127.064  35.022 117.937  1.00  0.00     0.274 HD
ATOM     37 2H11 UNL     1    -128.141  34.179 117.214  1.00  0.00     0.274 HD
ATOM     38 1H11 UNL     1    -128.384  35.849 117.285  1.00  0.00     0.274 HD
ENDBRANCH  34  35
ENDBRANCH  31  34
ENDBRANCH  25  31
ENDBRANCH  19  20
ENDBRANCH  18  19
ENDBRANCH   1  18
BRANCH   5  39
HETATM   39  N4  UNL     1    -131.045  29.644 124.783  1.00  0.00    -0.382 N 
ATOM     40  H42 UNL     1    -131.375  30.059 123.911  1.00  0.00     0.157 HD
ATOM     41  H41 UNL     1    -130.526  28.773 124.891  1.00  0.00     0.157 HD
ENDBRANCH   5  39
BRANCH  14  42
HETATM   42  N8  UNL     1    -131.147  33.035 129.241  1.00  0.00    -0.222 N 
ATOM     43  H8  UNL     1    -130.315  32.837 129.797  1.00  0.00     0.177 HD
BRANCH  42  44
HETATM   44  C9  UNL     1    -131.922  34.128 129.684  1.00  0.00     0.164 C 
BRANCH  44  45
HETATM   45  C10 UNL     1    -131.879  34.259 131.219  1.00  0.00     0.184 C 
BRANCH  45  46
HETATM   46  O1  UNL     1    -130.772  35.009 131.613  1.00  0.00    -0.399 OA
ATOM     47  H1  UNL     1    -130.686  35.002 132.559  1.00  0.00     0.209 HD
ENDBRANCH  45  46
ENDBRANCH  44  45
ENDBRANCH  42  44
ENDBRANCH  14  42
TORSDOF 13
ENDMDL
MODEL 5
REMARK VINA RESULT: -7.653269743      2.695      7.577
REMARK  13 active torsions:
REMARK  status: ('A' for Active; 'I' for Inactive)
REMARK    1  A    between atoms: N1_1  and  C1_4 
REMARK    2  A    between atoms: C2_7  and  S1_8 
REMARK    3  A    between atoms: S1_8  and  C3_9 
REMARK    4  A    between atoms: C3_9  and  C4_10 
REMARK    5  A    between atoms: C6_14  and  N4_15 
REMARK    6  A    between atoms: C8_26  and  N8_27 
REMARK    7  A    between atoms: N8_27  and  C9_29 
REMARK    8  A    between atoms: C9_29  and  C10_30 
REMARK    9  A    between atoms: C10_30  and  O1_31 
REMARK   10  A    between atoms: C12_37  and  C13_38 
REMARK   11  A    between atoms: C13_38  and  O2_39 
REMARK   12  A    between atoms: C13_38  and  C14_41 
REMARK   13  A    between atoms: C14_41  and  N11_42 
ROOT
HETATM    1  C4  UNL     1    -127.849  32.382 125.859  1.00  0.00     0.108 A 
HETATM    2  N3  UNL     1    -127.706  33.472 125.089  1.00  0.00    -0.325 N 
ATOM      3  H3  UNL     1    -127.652  34.445 125.392  1.00  0.00     0.169 HD
HETATM    4  C5  UNL     1    -127.650  32.999 123.830  1.00  0.00     0.191 A 
HETATM    5  C6  UNL     1    -127.505  33.872 122.777  1.00  0.00     0.161 C 
HETATM    6  N5  UNL     1    -127.337  33.557 121.479  1.00  0.00    -0.173 N 
ATOM      7  H5  UNL     1    -127.137  34.338 120.853  1.00  0.00     0.186 HD
HETATM    8  C7  UNL     1    -127.398  32.347 120.904  1.00  0.00     0.692 C 
HETATM    9  N6  UNL     1    -127.080  32.368 119.645  1.00  0.00    -0.234 N 
ATOM     10  H61 UNL     1    -127.126  31.448 119.208  1.00  0.00     0.174 HD
ATOM     11  H62 UNL     1    -126.822  33.253 119.209  1.00  0.00     0.174 HD
HETATM   12  N7  UNL     1    -127.735  31.191 121.473  1.00  0.00    -0.021 N 
ATOM     13  H7  UNL     1    -128.041  30.476 120.814  1.00  0.00     0.203 HD
HETATM   14  C8  UNL     1    -127.746  30.789 122.776  1.00  0.00     0.716 C 
HETATM   15  N9  UNL     1    -127.755  31.641 123.812  1.00  0.00    -0.064 N 
HETATM   16  N10 UNL     1    -127.876  31.296 125.071  1.00  0.00    -0.265 N 
ATOM     17  H10 UNL     1    -127.975  30.337 125.405  1.00  0.00     0.189 HD
ENDROOT
BRANCH   1  18
HETATM   18  C3  UNL     1    -127.971  32.277 127.350  1.00  0.00     0.158 C 
BRANCH  18  19
HETATM   19  S1  UNL     1    -129.684  32.399 127.861  1.00  0.00    -0.104 SA
BRANCH  19  20
HETATM   20  C2  UNL     1    -130.624  30.947 127.424  1.00  0.00     0.088 A 
HETATM   21  N2  UNL     1    -131.440  30.975 126.376  1.00  0.00    -0.186 N 
HETATM   22  C1  UNL     1    -132.197  29.947 125.960  1.00  0.00     0.677 A 
ATOM     23  H2  UNL     1    -131.496  31.845 125.846  1.00  0.00     0.185 HD
HETATM   24  N12 UNL     1    -132.110  28.800 126.675  1.00  0.00    -0.193 N 
HETATM   25  C12 UNL     1    -131.308  28.690 127.749  1.00  0.00     0.059 A 
ATOM     26  H12 UNL     1    -132.670  27.996 126.391  1.00  0.00     0.184 HD
HETATM   27  C11 UNL     1    -130.538  29.783 128.148  1.00  0.00     0.065 A 
BRANCH  22  28
HETATM   28  N1  UNL     1    -132.976  30.003 124.944  1.00  0.00    -0.234 N 
ATOM     29  H12 UNL     1    -133.031  29.210 124.306  1.00  0.00     0.174 HD
ATOM     30  H11 UNL     1    -133.562  30.809 124.725  1.00  0.00     0.174 HD
ENDBRANCH  22  28
BRANCH  25  31
HETATM   31  C13 UNL     1    -131.183  27.470 128.541  1.00  0.00     0.194 C 
BRANCH  31  32
HETATM   32  O2  UNL     1    -131.225  27.693 129.911  1.00  0.00    -0.388 OA
ATOM     33  H2  UNL     1    -131.674  27.008 130.392  1.00  0.00     0.210 HD
ENDBRANCH  31  32
BRANCH  31  34
HETATM   34  C14 UNL     1    -132.206  26.413 128.212  1.00  0.00     0.267 C 
BRANCH  34  35
HETATM   35  N11 UNL     1    -133.193  26.310 129.259  1.00  0.00    -0.077 N 
ATOM     36 3H11 UNL     1    -132.760  26.170 130.172  1.00  0.00     0.274 HD
ATOM     37 2H11 UNL     1    -133.646  27.206 129.440  1.00  0.00     0.274 HD
ATOM     38 1H11 UNL     1    -133.871  25.579 129.046  1.00  0.00     0.274 HD
ENDBRANCH  34  35
ENDBRANCH  31  34
ENDBRANCH  25  31
ENDBRANCH  19  20
ENDBRANCH  18  19
ENDBRANCH   1  18
BRANCH   5  39
HETATM   39  N4  UNL     1    -127.537  35.146 123.084  1.00  0.00    -0.382 N 
ATOM     40  H42 UNL     1    -126.773  35.507 123.656  1.00  0.00     0.157 HD
ATOM     41  H41 UNL     1    -128.333  35.670 122.720  1.00  0.00     0.157 HD
ENDBRANCH   5  39
BRANCH  14  42
HETATM   42  N8  UNL     1    -127.748  29.550 122.949  1.00  0.00    -0.222 N 
ATOM     43  H8  UNL     1    -126.854  29.147 123.232  1.00  0.00     0.177 HD
BRANCH  42  44
HETATM   44  C9  UNL     1    -128.808  28.628 122.812  1.00  0.00     0.164 C 
BRANCH  44  45
HETATM   45  C10 UNL     1    -128.946  28.147 121.354  1.00  0.00     0.184 C 
BRANCH  45  46
HETATM   46  O1  UNL     1    -129.712  26.983 121.296  1.00  0.00    -0.399 OA
ATOM     47  H1  UNL     1    -129.168  26.220 121.453  1.00  0.00     0.209 HD
ENDBRANCH  45  46
ENDBRANCH  44  45
ENDBRANCH  42  44
ENDBRANCH  14  42
TORSDOF 13
ENDMDL
