MODEL 1
REMARK VINA RESULT: -8.341165071      0.000      0.000
REMARK  15 active torsions:
REMARK  status: ('A' for Active; 'I' for Inactive)
REMARK    1  A    between atoms: C2_2  and  O1_3 
REMARK    2  A    between atoms: O1_3  and  C3_4 
REMARK    3  A    between atoms: C3_4  and  C4_5 
REMARK       I    between atoms: C4_5  and  N1_7 
REMARK    4  A    between atoms: N1_7  and  C5_9 
REMARK    5  A    between atoms: C5_9  and  C6_10 
REMARK    6  A    between atoms: C5_9  and  C18_27 
REMARK    7  A    between atoms: C6_10  and  C7_11 
REMARK    8  A    between atoms: C7_11  and  C8_12 
REMARK    9  A    between atoms: C8_12  and  C9_13 
REMARK   10  A    between atoms: C9_13  and  C10_14 
REMARK       I    between atoms: C10_14  and  N2_16 
REMARK   11  A    between atoms: N2_16  and  C11_18 
REMARK   12  A    between atoms: C11_18  and  C12_19 
REMARK   13  A    between atoms: C12_19  and  C13_20 
REMARK   14  A    between atoms: C13_20  and  N3_21 
REMARK       I    between atoms: C18_27  and  N4_29 
REMARK   15  A    between atoms: N4_29  and  C19_31 
ROOT
HETATM    1  C5  UNL     1      19.247  30.039  13.922  1.00  0.00     0.176 C 
ENDROOT
BRANCH   1   2
HETATM    2  N1  UNL     1      20.544  30.357  14.460  1.00  0.00    -0.346 N 
HETATM    3  C4  UNL     1      21.487  31.207  13.830  1.00  0.00     0.242 C 
HETATM    4  O2  UNL     1      21.236  31.752  12.729  1.00  0.00    -0.271 OA
ATOM      5  H1  UNL     1      20.801  29.943  15.356  1.00  0.00     0.163 HD
BRANCH   3   6
HETATM    6  C3  UNL     1      22.813  31.487  14.446  1.00  0.00     0.270 C 
BRANCH   6   7
HETATM    7  O1  UNL     1      22.700  31.837  15.778  1.00  0.00    -0.382 OA
BRANCH   7   8
HETATM    8  C2  UNL     1      22.682  33.228  15.859  1.00  0.00     0.163 C 
HETATM    9  C1  UNL     1      22.009  33.649  17.148  1.00  0.00     0.033 C 
ENDBRANCH   7   8
ENDBRANCH   6   7
ENDBRANCH   3   6
ENDBRANCH   1   2
BRANCH   1  10
HETATM   10  C6  UNL     1      18.788  28.658  14.261  1.00  0.00     0.035 C 
BRANCH  10  11
HETATM   11  C7  UNL     1      18.295  27.844  13.116  1.00  0.00     0.003 C 
BRANCH  11  12
HETATM   12  C8  UNL     1      18.429  28.510  11.787  1.00  0.00     0.009 C 
BRANCH  12  13
HETATM   13  C9  UNL     1      17.703  27.831  10.661  1.00  0.00     0.103 C 
BRANCH  13  14
HETATM   14  C10 UNL     1      18.248  26.533  10.269  1.00  0.00     0.217 C 
HETATM   15  O3  UNL     1      17.547  25.490  10.276  1.00  0.00    -0.274 OA
HETATM   16  N2  UNL     1      19.611  26.417   9.862  1.00  0.00    -0.361 N 
ATOM     17  H2  UNL     1      20.203  27.248   9.846  1.00  0.00     0.162 HD
BRANCH  16  18
HETATM   18  C11 UNL     1      20.161  25.143   9.472  1.00  0.00     0.124 C 
BRANCH  18  19
HETATM   19  C12 UNL     1      21.098  24.643  10.553  1.00  0.00     0.050 C 
BRANCH  19  20
HETATM   20  C13 UNL     1      21.488  25.779  11.467  1.00  0.00     0.274 C 
BRANCH  20  21
HETATM   21  N3  UNL     1      22.919  25.915  11.590  1.00  0.00     0.092 N 
HETATM   22  C14 UNL     1      23.650  25.174  10.612  1.00  0.00     0.298 C 
HETATM   23  C15 UNL     1      24.765  26.040  10.075  1.00  0.00     0.198 C 
HETATM   24  O4  UNL     1      25.581  26.535  11.071  1.00  0.00    -0.388 OA
HETATM   25  C16 UNL     1      24.878  27.179  12.056  1.00  0.00     0.198 C 
HETATM   26  C17 UNL     1      23.383  27.253  11.776  1.00  0.00     0.298 C 
ENDBRANCH  20  21
ENDBRANCH  19  20
ENDBRANCH  18  19
ENDBRANCH  16  18
ENDBRANCH  13  14
ENDBRANCH  12  13
ENDBRANCH  11  12
ENDBRANCH  10  11
ENDBRANCH   1  10
BRANCH   1  27
HETATM   27  C18 UNL     1      18.251  31.031  14.407  1.00  0.00     0.241 C 
HETATM   28  O5  UNL     1      17.125  31.072  13.856  1.00  0.00    -0.271 OA
HETATM   29  N4  UNL     1      18.561  31.922  15.477  1.00  0.00    -0.350 N 
ATOM     30  H4  UNL     1      19.483  31.869  15.910  1.00  0.00     0.163 HD
BRANCH  29  31
HETATM   31  C19 UNL     1      17.620  32.889  15.964  1.00  0.00     0.034 C 
HETATM   32  C20 UNL     1      16.291  32.333  16.356  1.00  0.00     0.035 C 
HETATM   33  C21 UNL     1      15.396  33.459  16.806  1.00  0.00    -0.012 C 
HETATM   34  C22 UNL     1      15.246  34.500  15.725  1.00  0.00     0.009 C 
HETATM   35  C26 UNL     1      15.931  34.025  18.083  1.00  0.00     0.009 C 
HETATM   36  C23 UNL     1      16.600  35.112  15.496  1.00  0.00    -0.012 C 
HETATM   37  C24 UNL     1      17.133  35.708  16.782  1.00  0.00     0.009 C 
HETATM   38  C28 UNL     1      17.518  34.047  14.979  1.00  0.00     0.035 C 
HETATM   39  C25 UNL     1      17.309  34.581  17.791  1.00  0.00    -0.012 C 
HETATM   40  C27 UNL     1      18.201  33.514  17.242  1.00  0.00     0.035 C 
ENDBRANCH  29  31
ENDBRANCH   1  27
TORSDOF 15
ENDMDL
MODEL 2
REMARK VINA RESULT: -8.126604711      3.106      8.936
REMARK  15 active torsions:
REMARK  status: ('A' for Active; 'I' for Inactive)
REMARK    1  A    between atoms: C2_2  and  O1_3 
REMARK    2  A    between atoms: O1_3  and  C3_4 
REMARK    3  A    between atoms: C3_4  and  C4_5 
REMARK       I    between atoms: C4_5  and  N1_7 
REMARK    4  A    between atoms: N1_7  and  C5_9 
REMARK    5  A    between atoms: C5_9  and  C6_10 
REMARK    6  A    between atoms: C5_9  and  C18_27 
REMARK    7  A    between atoms: C6_10  and  C7_11 
REMARK    8  A    between atoms: C7_11  and  C8_12 
REMARK    9  A    between atoms: C8_12  and  C9_13 
REMARK   10  A    between atoms: C9_13  and  C10_14 
REMARK       I    between atoms: C10_14  and  N2_16 
REMARK   11  A    between atoms: N2_16  and  C11_18 
REMARK   12  A    between atoms: C11_18  and  C12_19 
REMARK   13  A    between atoms: C12_19  and  C13_20 
REMARK   14  A    between atoms: C13_20  and  N3_21 
REMARK       I    between atoms: C18_27  and  N4_29 
REMARK   15  A    between atoms: N4_29  and  C19_31 
ROOT
HETATM    1  C5  UNL     1      20.830  30.895  14.282  1.00  0.00     0.176 C 
ENDROOT
BRANCH   1   2
HETATM    2  N1  UNL     1      20.715  29.912  13.237  1.00  0.00    -0.346 N 
HETATM    3  C4  UNL     1      21.220  28.591  13.320  1.00  0.00     0.242 C 
HETATM    4  O2  UNL     1      21.814  28.185  14.347  1.00  0.00    -0.271 OA
ATOM      5  H1  UNL     1      20.238  30.186  12.378  1.00  0.00     0.163 HD
BRANCH   3   6
HETATM    6  C3  UNL     1      21.067  27.628  12.194  1.00  0.00     0.270 C 
BRANCH   6   7
HETATM    7  O1  UNL     1      22.155  26.782  12.086  1.00  0.00    -0.382 OA
BRANCH   7   8
HETATM    8  C2  UNL     1      23.136  27.434  11.342  1.00  0.00     0.163 C 
HETATM    9  C1  UNL     1      24.484  27.230  11.999  1.00  0.00     0.033 C 
ENDBRANCH   7   8
ENDBRANCH   6   7
ENDBRANCH   3   6
ENDBRANCH   1   2
BRANCH   1  10
HETATM   10  C6  UNL     1      21.851  31.948  13.996  1.00  0.00     0.035 C 
BRANCH  10  11
HETATM   11  C7  UNL     1      23.126  31.833  14.757  1.00  0.00     0.003 C 
BRANCH  11  12
HETATM   12  C8  UNL     1      23.442  33.019  15.606  1.00  0.00     0.009 C 
BRANCH  12  13
HETATM   13  C9  UNL     1      22.486  33.261  16.739  1.00  0.00     0.103 C 
BRANCH  13  14
HETATM   14  C10 UNL     1      21.804  34.553  16.707  1.00  0.00     0.217 C 
HETATM   15  O3  UNL     1      21.061  34.888  15.751  1.00  0.00    -0.274 OA
HETATM   16  N2  UNL     1      21.969  35.480  17.779  1.00  0.00    -0.361 N 
ATOM     17  H2  UNL     1      22.567  35.235  18.569  1.00  0.00     0.162 HD
BRANCH  16  18
HETATM   18  C11 UNL     1      21.303  36.758  17.762  1.00  0.00     0.124 C 
BRANCH  18  19
HETATM   19  C12 UNL     1      19.966  36.644  18.467  1.00  0.00     0.050 C 
BRANCH  19  20
HETATM   20  C13 UNL     1      19.419  38.018  18.767  1.00  0.00     0.274 C 
BRANCH  20  21
HETATM   21  N3  UNL     1      18.976  38.703  17.578  1.00  0.00     0.092 N 
HETATM   22  C14 UNL     1      17.558  38.686  17.403  1.00  0.00     0.298 C 
HETATM   23  C15 UNL     1      17.102  40.063  16.981  1.00  0.00     0.198 C 
HETATM   24  O4  UNL     1      17.761  40.521  15.858  1.00  0.00    -0.388 OA
HETATM   25  C16 UNL     1      19.125  40.465  15.989  1.00  0.00     0.198 C 
HETATM   26  C17 UNL     1      19.577  39.980  17.359  1.00  0.00     0.298 C 
ENDBRANCH  20  21
ENDBRANCH  19  20
ENDBRANCH  18  19
ENDBRANCH  16  18
ENDBRANCH  13  14
ENDBRANCH  12  13
ENDBRANCH  11  12
ENDBRANCH  10  11
ENDBRANCH   1  10
BRANCH   1  27
HETATM   27  C18 UNL     1      19.506  31.531  14.514  1.00  0.00     0.241 C 
HETATM   28  O5  UNL     1      18.608  31.385  13.650  1.00  0.00    -0.271 OA
HETATM   29  N4  UNL     1      19.253  32.293  15.693  1.00  0.00    -0.350 N 
ATOM     30  H4  UNL     1      19.998  32.397  16.382  1.00  0.00     0.163 HD
BRANCH  29  31
HETATM   31  C19 UNL     1      17.985  32.918  15.943  1.00  0.00     0.034 C 
HETATM   32  C20 UNL     1      16.841  31.974  16.111  1.00  0.00     0.035 C 
HETATM   33  C21 UNL     1      15.574  32.765  16.324  1.00  0.00    -0.012 C 
HETATM   34  C22 UNL     1      15.327  33.713  15.178  1.00  0.00     0.009 C 
HETATM   35  C26 UNL     1      15.653  33.463  17.645  1.00  0.00     0.009 C 
HETATM   36  C23 UNL     1      16.446  34.717  15.170  1.00  0.00    -0.012 C 
HETATM   37  C24 UNL     1      16.512  35.442  16.497  1.00  0.00     0.009 C 
HETATM   38  C28 UNL     1      17.727  33.991  14.893  1.00  0.00     0.035 C 
HETATM   39  C25 UNL     1      16.824  34.421  17.583  1.00  0.00    -0.012 C 
HETATM   40  C27 UNL     1      18.088  33.686  17.270  1.00  0.00     0.035 C 
ENDBRANCH  29  31
ENDBRANCH   1  27
TORSDOF 15
ENDMDL
MODEL 3
REMARK VINA RESULT: -8.099705291      1.289      3.495
REMARK  15 active torsions:
REMARK  status: ('A' for Active; 'I' for Inactive)
REMARK    1  A    between atoms: C2_2  and  O1_3 
REMARK    2  A    between atoms: O1_3  and  C3_4 
REMARK    3  A    between atoms: C3_4  and  C4_5 
REMARK       I    between atoms: C4_5  and  N1_7 
REMARK    4  A    between atoms: N1_7  and  C5_9 
REMARK    5  A    between atoms: C5_9  and  C6_10 
REMARK    6  A    between atoms: C5_9  and  C18_27 
REMARK    7  A    between atoms: C6_10  and  C7_11 
REMARK    8  A    between atoms: C7_11  and  C8_12 
REMARK    9  A    between atoms: C8_12  and  C9_13 
REMARK   10  A    between atoms: C9_13  and  C10_14 
REMARK       I    between atoms: C10_14  and  N2_16 
REMARK   11  A    between atoms: N2_16  and  C11_18 
REMARK   12  A    between atoms: C11_18  and  C12_19 
REMARK   13  A    between atoms: C12_19  and  C13_20 
REMARK   14  A    between atoms: C13_20  and  N3_21 
REMARK       I    between atoms: C18_27  and  N4_29 
REMARK   15  A    between atoms: N4_29  and  C19_31 
ROOT
HETATM    1  C5  UNL     1      20.625  30.677  14.415  1.00  0.00     0.176 C 
ENDROOT
BRANCH   1   2
HETATM    2  N1  UNL     1      21.648  31.310  15.206  1.00  0.00    -0.346 N 
HETATM    3  C4  UNL     1      22.441  32.400  14.765  1.00  0.00     0.242 C 
HETATM    4  O2  UNL     1      22.291  32.894  13.623  1.00  0.00    -0.271 OA
ATOM      5  H1  UNL     1      21.812  30.951  16.146  1.00  0.00     0.163 HD
BRANCH   3   6
HETATM    6  C3  UNL     1      23.485  33.002  15.640  1.00  0.00     0.270 C 
BRANCH   6   7
HETATM    7  O1  UNL     1      23.038  33.172  16.936  1.00  0.00    -0.382 OA
BRANCH   7   8
HETATM    8  C2  UNL     1      22.141  34.239  16.947  1.00  0.00     0.163 C 
HETATM    9  C1  UNL     1      21.829  34.619  18.379  1.00  0.00     0.033 C 
ENDBRANCH   7   8
ENDBRANCH   6   7
ENDBRANCH   3   6
ENDBRANCH   1   2
BRANCH   1  10
HETATM   10  C6  UNL     1      20.518  29.206  14.654  1.00  0.00     0.035 C 
BRANCH  10  11
HETATM   11  C7  UNL     1      21.709  28.401  14.265  1.00  0.00     0.003 C 
BRANCH  11  12
HETATM   12  C8  UNL     1      22.200  28.663  12.880  1.00  0.00     0.009 C 
BRANCH  12  13
HETATM   13  C9  UNL     1      23.453  27.927  12.502  1.00  0.00     0.103 C 
BRANCH  13  14
HETATM   14  C10 UNL     1      23.238  26.647  11.830  1.00  0.00     0.217 C 
HETATM   15  O3  UNL     1      24.094  25.728  11.864  1.00  0.00    -0.274 OA
HETATM   16  N2  UNL     1      22.031  26.407  11.108  1.00  0.00    -0.361 N 
ATOM     17  H2  UNL     1      21.317  27.135  11.064  1.00  0.00     0.162 HD
BRANCH  16  18
HETATM   18  C11 UNL     1      21.805  25.149  10.440  1.00  0.00     0.124 C 
BRANCH  18  19
HETATM   19  C12 UNL     1      20.423  24.632  10.785  1.00  0.00     0.050 C 
BRANCH  19  20
HETATM   20  C13 UNL     1      19.411  25.160   9.796  1.00  0.00     0.274 C 
BRANCH  20  21
HETATM   21  N3  UNL     1      18.442  26.029  10.416  1.00  0.00     0.092 N 
HETATM   22  C14 UNL     1      18.414  25.930  11.841  1.00  0.00     0.298 C 
HETATM   23  C15 UNL     1      18.337  27.321  12.427  1.00  0.00     0.198 C 
HETATM   24  O4  UNL     1      17.273  28.047  11.934  1.00  0.00    -0.388 OA
HETATM   25  C16 UNL     1      17.247  28.080  10.563  1.00  0.00     0.198 C 
HETATM   26  C17 UNL     1      18.433  27.370   9.924  1.00  0.00     0.298 C 
ENDBRANCH  20  21
ENDBRANCH  19  20
ENDBRANCH  18  19
ENDBRANCH  16  18
ENDBRANCH  13  14
ENDBRANCH  12  13
ENDBRANCH  11  12
ENDBRANCH  10  11
ENDBRANCH   1  10
BRANCH   1  27
HETATM   27  C18 UNL     1      19.315  31.325  14.685  1.00  0.00     0.241 C 
HETATM   28  O5  UNL     1      18.327  31.004  13.981  1.00  0.00    -0.271 OA
HETATM   29  N4  UNL     1      19.174  32.294  15.723  1.00  0.00    -0.350 N 
ATOM     30  H4  UNL     1      19.991  32.539  16.282  1.00  0.00     0.163 HD
BRANCH  29  31
HETATM   31  C19 UNL     1      17.922  32.936  16.005  1.00  0.00     0.034 C 
HETATM   32  C20 UNL     1      16.791  32.008  16.302  1.00  0.00     0.035 C 
HETATM   33  C21 UNL     1      15.538  32.812  16.537  1.00  0.00    -0.012 C 
HETATM   34  C22 UNL     1      15.221  33.684  15.348  1.00  0.00     0.009 C 
HETATM   35  C26 UNL     1      15.693  33.595  17.802  1.00  0.00     0.009 C 
HETATM   36  C23 UNL     1      16.336  34.683  15.209  1.00  0.00    -0.012 C 
HETATM   37  C24 UNL     1      16.478  35.494  16.480  1.00  0.00     0.009 C 
HETATM   38  C28 UNL     1      17.600  33.939  14.904  1.00  0.00     0.035 C 
HETATM   39  C25 UNL     1      16.856  34.545  17.610  1.00  0.00    -0.012 C 
HETATM   40  C27 UNL     1      18.101  33.790  17.270  1.00  0.00     0.035 C 
ENDBRANCH  29  31
ENDBRANCH   1  27
TORSDOF 15
ENDMDL
MODEL 4
REMARK VINA RESULT: -8.096795568      0.352      1.258
REMARK  15 active torsions:
REMARK  status: ('A' for Active; 'I' for Inactive)
REMARK    1  A    between atoms: C2_2  and  O1_3 
REMARK    2  A    between atoms: O1_3  and  C3_4 
REMARK    3  A    between atoms: C3_4  and  C4_5 
REMARK       I    between atoms: C4_5  and  N1_7 
REMARK    4  A    between atoms: N1_7  and  C5_9 
REMARK    5  A    between atoms: C5_9  and  C6_10 
REMARK    6  A    between atoms: C5_9  and  C18_27 
REMARK    7  A    between atoms: C6_10  and  C7_11 
REMARK    8  A    between atoms: C7_11  and  C8_12 
REMARK    9  A    between atoms: C8_12  and  C9_13 
REMARK   10  A    between atoms: C9_13  and  C10_14 
REMARK       I    between atoms: C10_14  and  N2_16 
REMARK   11  A    between atoms: N2_16  and  C11_18 
REMARK   12  A    between atoms: C11_18  and  C12_19 
REMARK   13  A    between atoms: C12_19  and  C13_20 
REMARK   14  A    between atoms: C13_20  and  N3_21 
REMARK       I    between atoms: C18_27  and  N4_29 
REMARK   15  A    between atoms: N4_29  and  C19_31 
ROOT
HETATM    1  C5  UNL     1      19.338  30.151  14.019  1.00  0.00     0.176 C 
ENDROOT
BRANCH   1   2
HETATM    2  N1  UNL     1      20.644  30.455  14.542  1.00  0.00    -0.346 N 
HETATM    3  C4  UNL     1      21.584  31.304  13.904  1.00  0.00     0.242 C 
HETATM    4  O2  UNL     1      21.322  31.860  12.812  1.00  0.00    -0.271 OA
ATOM      5  H1  UNL     1      20.911  30.032  15.430  1.00  0.00     0.163 HD
BRANCH   3   6
HETATM    6  C3  UNL     1      22.921  31.570  14.504  1.00  0.00     0.270 C 
BRANCH   6   7
HETATM    7  O1  UNL     1      22.832  31.881  15.848  1.00  0.00    -0.382 OA
BRANCH   7   8
HETATM    8  C2  UNL     1      22.988  33.260  15.982  1.00  0.00     0.163 C 
HETATM    9  C1  UNL     1      21.833  33.821  16.784  1.00  0.00     0.033 C 
ENDBRANCH   7   8
ENDBRANCH   6   7
ENDBRANCH   3   6
ENDBRANCH   1   2
BRANCH   1  10
HETATM   10  C6  UNL     1      18.834  28.806  14.432  1.00  0.00     0.035 C 
BRANCH  10  11
HETATM   11  C7  UNL     1      18.633  27.826  13.329  1.00  0.00     0.003 C 
BRANCH  11  12
HETATM   12  C8  UNL     1      17.503  28.158  12.412  1.00  0.00     0.009 C 
BRANCH  12  13
HETATM   13  C9  UNL     1      17.880  28.293  10.964  1.00  0.00     0.103 C 
BRANCH  13  14
HETATM   14  C10 UNL     1      18.181  27.036  10.284  1.00  0.00     0.217 C 
HETATM   15  O3  UNL     1      17.274  26.289   9.837  1.00  0.00    -0.274 OA
HETATM   16  N2  UNL     1      19.534  26.617  10.109  1.00  0.00    -0.361 N 
ATOM     17  H2  UNL     1      20.291  27.203  10.461  1.00  0.00     0.162 HD
BRANCH  16  18
HETATM   18  C11 UNL     1      19.845  25.379   9.440  1.00  0.00     0.124 C 
BRANCH  18  19
HETATM   19  C12 UNL     1      21.096  24.775  10.046  1.00  0.00     0.050 C 
BRANCH  19  20
HETATM   20  C13 UNL     1      21.446  25.488  11.330  1.00  0.00     0.274 C 
BRANCH  20  21
HETATM   21  N3  UNL     1      22.866  25.701  11.469  1.00  0.00     0.092 N 
HETATM   22  C14 UNL     1      23.641  25.059  10.455  1.00  0.00     0.298 C 
HETATM   23  C15 UNL     1      24.705  26.018   9.973  1.00  0.00     0.198 C 
HETATM   24  O4  UNL     1      25.488  26.504  11.000  1.00  0.00    -0.388 OA
HETATM   25  C16 UNL     1      24.745  27.050  12.015  1.00  0.00     0.198 C 
HETATM   26  C17 UNL     1      23.249  27.051  11.730  1.00  0.00     0.298 C 
ENDBRANCH  20  21
ENDBRANCH  19  20
ENDBRANCH  18  19
ENDBRANCH  16  18
ENDBRANCH  13  14
ENDBRANCH  12  13
ENDBRANCH  11  12
ENDBRANCH  10  11
ENDBRANCH   1  10
BRANCH   1  27
HETATM   27  C18 UNL     1      18.375  31.200  14.446  1.00  0.00     0.241 C 
HETATM   28  O5  UNL     1      17.305  31.333  13.804  1.00  0.00    -0.271 OA
HETATM   29  N4  UNL     1      18.653  32.042  15.564  1.00  0.00    -0.350 N 
ATOM     30  H4  UNL     1      19.528  31.914  16.071  1.00  0.00     0.163 HD
BRANCH  29  31
HETATM   31  C19 UNL     1      17.742  33.062  15.998  1.00  0.00     0.034 C 
HETATM   32  C20 UNL     1      17.441  34.111  14.980  1.00  0.00     0.035 C 
HETATM   33  C21 UNL     1      16.510  35.133  15.583  1.00  0.00    -0.012 C 
HETATM   34  C22 UNL     1      17.106  35.744  16.826  1.00  0.00     0.009 C 
HETATM   35  C26 UNL     1      15.181  34.494  15.833  1.00  0.00     0.009 C 
HETATM   36  C23 UNL     1      17.239  34.651  17.849  1.00  0.00    -0.012 C 
HETATM   37  C24 UNL     1      15.891  34.018  18.122  1.00  0.00     0.009 C 
HETATM   38  C28 UNL     1      18.211  33.636  17.329  1.00  0.00     0.035 C 
HETATM   39  C25 UNL     1      15.396  33.377  16.832  1.00  0.00    -0.012 C 
HETATM   40  C27 UNL     1      16.395  32.393  16.315  1.00  0.00     0.035 C 
ENDBRANCH  29  31
ENDBRANCH   1  27
TORSDOF 15
ENDMDL
MODEL 5
REMARK VINA RESULT: -8.068746891      1.082      1.279
REMARK  15 active torsions:
REMARK  status: ('A' for Active; 'I' for Inactive)
REMARK    1  A    between atoms: C2_2  and  O1_3 
REMARK    2  A    between atoms: O1_3  and  C3_4 
REMARK    3  A    between atoms: C3_4  and  C4_5 
REMARK       I    between atoms: C4_5  and  N1_7 
REMARK    4  A    between atoms: N1_7  and  C5_9 
REMARK    5  A    between atoms: C5_9  and  C6_10 
REMARK    6  A    between atoms: C5_9  and  C18_27 
REMARK    7  A    between atoms: C6_10  and  C7_11 
REMARK    8  A    between atoms: C7_11  and  C8_12 
REMARK    9  A    between atoms: C8_12  and  C9_13 
REMARK   10  A    between atoms: C9_13  and  C10_14 
REMARK       I    between atoms: C10_14  and  N2_16 
REMARK   11  A    between atoms: N2_16  and  C11_18 
REMARK   12  A    between atoms: C11_18  and  C12_19 
REMARK   13  A    between atoms: C12_19  and  C13_20 
REMARK   14  A    between atoms: C13_20  and  N3_21 
REMARK       I    between atoms: C18_27  and  N4_29 
REMARK   15  A    between atoms: N4_29  and  C19_31 
ROOT
HETATM    1  C5  UNL     1      18.266  30.963  14.293  1.00  0.00     0.176 C 
ENDROOT
BRANCH   1   2
HETATM    2  N1  UNL     1      19.689  31.146  14.419  1.00  0.00    -0.346 N 
HETATM    3  C4  UNL     1      20.545  31.521  13.355  1.00  0.00     0.242 C 
HETATM    4  O2  UNL     1      20.099  31.726  12.201  1.00  0.00    -0.271 OA
ATOM      5  H1  UNL     1      20.107  30.995  15.337  1.00  0.00     0.163 HD
BRANCH   3   6
HETATM    6  C3  UNL     1      22.011  31.687  13.560  1.00  0.00     0.270 C 
BRANCH   6   7
HETATM    7  O1  UNL     1      22.336  32.974  13.944  1.00  0.00    -0.382 OA
BRANCH   7   8
HETATM    8  C2  UNL     1      22.953  32.909  15.192  1.00  0.00     0.163 C 
HETATM    9  C1  UNL     1      22.041  33.517  16.236  1.00  0.00     0.033 C 
ENDBRANCH   7   8
ENDBRANCH   6   7
ENDBRANCH   3   6
ENDBRANCH   1   2
BRANCH   1  10
HETATM   10  C6  UNL     1      17.807  29.598  14.691  1.00  0.00     0.035 C 
BRANCH  10  11
HETATM   11  C7  UNL     1      18.214  28.491  13.782  1.00  0.00     0.003 C 
BRANCH  11  12
HETATM   12  C8  UNL     1      17.644  28.586  12.406  1.00  0.00     0.009 C 
BRANCH  12  13
HETATM   13  C9  UNL     1      18.628  28.356  11.295  1.00  0.00     0.103 C 
BRANCH  13  14
HETATM   14  C10 UNL     1      18.687  26.984  10.797  1.00  0.00     0.217 C 
HETATM   15  O3  UNL     1      17.847  26.115  11.143  1.00  0.00    -0.274 OA
HETATM   16  N2  UNL     1      19.716  26.591   9.889  1.00  0.00    -0.361 N 
ATOM     17  H2  UNL     1      20.411  27.275   9.590  1.00  0.00     0.162 HD
BRANCH  16  18
HETATM   18  C11 UNL     1      19.786  25.241   9.389  1.00  0.00     0.124 C 
BRANCH  18  19
HETATM   19  C12 UNL     1      21.127  24.634   9.750  1.00  0.00     0.050 C 
BRANCH  19  20
HETATM   20  C13 UNL     1      21.504  25.013  11.162  1.00  0.00     0.274 C 
BRANCH  20  21
HETATM   21  N3  UNL     1      22.901  25.350  11.284  1.00  0.00     0.092 N 
HETATM   22  C14 UNL     1      23.695  24.901  10.184  1.00  0.00     0.298 C 
HETATM   23  C15 UNL     1      24.643  26.007   9.782  1.00  0.00     0.198 C 
HETATM   24  O4  UNL     1      25.414  26.454  10.834  1.00  0.00    -0.388 OA
HETATM   25  C16 UNL     1      24.663  26.812  11.924  1.00  0.00     0.198 C 
HETATM   26  C17 UNL     1      23.164  26.695  11.683  1.00  0.00     0.298 C 
ENDBRANCH  20  21
ENDBRANCH  19  20
ENDBRANCH  18  19
ENDBRANCH  16  18
ENDBRANCH  13  14
ENDBRANCH  12  13
ENDBRANCH  11  12
ENDBRANCH  10  11
ENDBRANCH   1  10
BRANCH   1  27
HETATM   27  C18 UNL     1      17.560  31.987  15.109  1.00  0.00     0.241 C 
HETATM   28  O5  UNL     1      16.346  31.813  15.374  1.00  0.00    -0.271 OA
HETATM   29  N4  UNL     1      18.241  33.146  15.585  1.00  0.00    -0.350 N 
ATOM     30  H4  UNL     1      19.228  33.265  15.357  1.00  0.00     0.163 HD
BRANCH  29  31
HETATM   31  C19 UNL     1      17.585  34.150  16.372  1.00  0.00     0.034 C 
HETATM   32  C20 UNL     1      16.821  33.630  17.545  1.00  0.00     0.035 C 
HETATM   33  C21 UNL     1      16.153  34.782  18.252  1.00  0.00    -0.012 C 
HETATM   34  C22 UNL     1      15.250  35.544  17.316  1.00  0.00     0.009 C 
HETATM   35  C26 UNL     1      17.205  35.647  18.872  1.00  0.00     0.009 C 
HETATM   36  C23 UNL     1      16.115  36.157  16.250  1.00  0.00    -0.012 C 
HETATM   37  C24 UNL     1      17.165  37.052  16.873  1.00  0.00     0.009 C 
HETATM   38  C28 UNL     1      16.753  35.049  15.467  1.00  0.00     0.035 C 
HETATM   39  C25 UNL     1      18.064  36.192  17.750  1.00  0.00    -0.012 C 
HETATM   40  C27 UNL     1      18.663  35.075  16.957  1.00  0.00     0.035 C 
ENDBRANCH  29  31
ENDBRANCH   1  27
TORSDOF 15
ENDMDL
