MODEL 1
REMARK VINA RESULT: -7.911902438      0.000      0.000
REMARK  5 active torsions:
REMARK  status: ('A' for Active; 'I' for Inactive)
REMARK    1  A    between atoms: C2_2  and  O1_3 
REMARK    2  A    between atoms: O1_3  and  C3_4 
REMARK    3  A    between atoms: C8_9  and  O2_10 
REMARK    4  A    between atoms: C9_12  and  N1_13 
REMARK       I    between atoms: N2_15  and  C10_17 
REMARK    5  A    between atoms: C10_17  and  C11_19 
ROOT
HETATM    1  C3  UNL     1      22.217   8.305  17.828  1.00  0.00     0.100 A 
HETATM    2  C4  UNL     1      21.292   9.236  18.238  1.00  0.00    -0.026 A 
HETATM    3  C5  UNL     1      20.802  10.251  17.231  1.00  0.00     0.051 C 
HETATM    4  C6  UNL     1      20.791   9.268  19.517  1.00  0.00     0.025 A 
HETATM    5  C7  UNL     1      21.204   8.337  20.485  1.00  0.00     0.020 A 
HETATM    6  C8  UNL     1      20.786   8.266  21.769  1.00  0.00     0.112 A 
HETATM    7  C9  UNL     1      21.319   7.272  22.548  1.00  0.00     0.124 A 
HETATM    8  S1  UNL     1      22.373   6.474  21.484  1.00  0.00    -0.066 SA
HETATM    9  C13 UNL     1      22.123   7.408  20.079  1.00  0.00     0.047 A 
HETATM   10  C14 UNL     1      22.625   7.389  18.768  1.00  0.00     0.098 A 
HETATM   11  N3  UNL     1      23.568   6.384  18.448  1.00  0.00    -0.098 NA
ENDROOT
BRANCH   7  12
HETATM   12  N1  UNL     1      21.016   6.993  23.942  1.00  0.00    -0.289 N 
HETATM   13  N2  UNL     1      19.783   6.955  24.206  1.00  0.00    -0.269 N 
HETATM   14  C10 UNL     1      19.358   6.694  25.526  1.00  0.00     0.235 C 
ATOM     15  H2  UNL     1      19.097   7.113  23.468  1.00  0.00     0.190 HD
HETATM   16  O3  UNL     1      18.835   5.565  25.844  1.00  0.00    -0.272 OA
ATOM     17  H1  UNL     1      21.739   6.842  24.646  1.00  0.00     0.188 HD
BRANCH  14  18
HETATM   18  C11 UNL     1      19.495   7.711  26.596  1.00  0.00     0.100 C 
HETATM   19  C12 UNL     1      19.000   9.064  26.107  1.00  0.00     0.014 C 
ENDBRANCH  14  18
ENDBRANCH   7  12
BRANCH   6  20
HETATM   20  O2  UNL     1      19.838   9.140  22.383  1.00  0.00    -0.357 OA
ATOM     21  H2  UNL     1      19.664   9.199  23.315  1.00  0.00     0.217 HD
ENDBRANCH   6  20
BRANCH   1  22
HETATM   22  O1  UNL     1      22.684   8.330  16.530  1.00  0.00    -0.349 OA
BRANCH  22  23
HETATM   23  C2  UNL     1      24.055   8.322  16.204  1.00  0.00     0.171 C 
HETATM   24  C1  UNL     1      24.229   7.433  14.987  1.00  0.00     0.034 C 
ENDBRANCH  22  23
ENDBRANCH   1  22
TORSDOF 5
ENDMDL
MODEL 2
REMARK VINA RESULT: -7.824960038      1.734      2.101
REMARK  5 active torsions:
REMARK  status: ('A' for Active; 'I' for Inactive)
REMARK    1  A    between atoms: C2_2  and  O1_3 
REMARK    2  A    between atoms: O1_3  and  C3_4 
REMARK    3  A    between atoms: C8_9  and  O2_10 
REMARK    4  A    between atoms: C9_12  and  N1_13 
REMARK       I    between atoms: N2_15  and  C10_17 
REMARK    5  A    between atoms: C10_17  and  C11_19 
ROOT
HETATM    1  C3  UNL     1      22.945   7.543  17.432  1.00  0.00     0.100 A 
HETATM    2  C4  UNL     1      22.185   8.652  17.140  1.00  0.00    -0.026 A 
HETATM    3  C5  UNL     1      22.216   9.190  15.728  1.00  0.00     0.051 C 
HETATM    4  C6  UNL     1      21.395   9.275  18.076  1.00  0.00     0.025 A 
HETATM    5  C7  UNL     1      21.321   8.803  19.398  1.00  0.00     0.020 A 
HETATM    6  C8  UNL     1      20.584   9.327  20.403  1.00  0.00     0.112 A 
HETATM    7  C9  UNL     1      20.656   8.706  21.623  1.00  0.00     0.124 A 
HETATM    8  S1  UNL     1      21.734   7.427  21.339  1.00  0.00    -0.066 SA
HETATM    9  C13 UNL     1      22.074   7.699  19.690  1.00  0.00     0.047 A 
HETATM   10  C14 UNL     1      22.877   7.074  18.722  1.00  0.00     0.098 A 
HETATM   11  N3  UNL     1      23.613   5.935  19.125  1.00  0.00    -0.098 NA
ENDROOT
BRANCH   7  12
HETATM   12  N1  UNL     1      19.951   9.077  22.839  1.00  0.00    -0.289 N 
HETATM   13  N2  UNL     1      20.652   9.004  23.885  1.00  0.00    -0.269 N 
HETATM   14  C10 UNL     1      20.082   9.338  25.133  1.00  0.00     0.235 C 
ATOM     15  H2  UNL     1      21.626   8.705  23.830  1.00  0.00     0.190 HD
HETATM   16  O3  UNL     1      20.397  10.427  25.736  1.00  0.00    -0.272 OA
ATOM     17  H1  UNL     1      18.974   9.371  22.845  1.00  0.00     0.188 HD
BRANCH  14  18
HETATM   18  C11 UNL     1      19.103   8.445  25.797  1.00  0.00     0.100 C 
HETATM   19  C12 UNL     1      19.624   7.016  25.826  1.00  0.00     0.014 C 
ENDBRANCH  14  18
ENDBRANCH   7  12
BRANCH   6  20
HETATM   20  O2  UNL     1      19.737  10.473  20.302  1.00  0.00    -0.357 OA
ATOM     21  H2  UNL     1      19.806  11.259  20.832  1.00  0.00     0.217 HD
ENDBRANCH   6  20
BRANCH   1  22
HETATM   22  O1  UNL     1      23.721   6.966  16.448  1.00  0.00    -0.349 OA
BRANCH  22  23
HETATM   23  C2  UNL     1      25.130   6.953  16.487  1.00  0.00     0.171 C 
HETATM   24  C1  UNL     1      25.574   5.507  16.366  1.00  0.00     0.034 C 
ENDBRANCH  22  23
ENDBRANCH   1  22
TORSDOF 5
ENDMDL
MODEL 3
REMARK VINA RESULT: -7.824357303      2.271      2.858
REMARK  5 active torsions:
REMARK  status: ('A' for Active; 'I' for Inactive)
REMARK    1  A    between atoms: C2_2  and  O1_3 
REMARK    2  A    between atoms: O1_3  and  C3_4 
REMARK    3  A    between atoms: C8_9  and  O2_10 
REMARK    4  A    between atoms: C9_12  and  N1_13 
REMARK       I    between atoms: N2_15  and  C10_17 
REMARK    5  A    between atoms: C10_17  and  C11_19 
ROOT
HETATM    1  C3  UNL     1      22.630   8.871  16.796  1.00  0.00     0.100 A 
HETATM    2  C4  UNL     1      23.335   7.950  17.537  1.00  0.00    -0.026 A 
HETATM    3  C5  UNL     1      24.522   7.271  16.894  1.00  0.00     0.051 C 
HETATM    4  C6  UNL     1      23.008   7.638  18.835  1.00  0.00     0.025 A 
HETATM    5  C7  UNL     1      21.922   8.253  19.480  1.00  0.00     0.020 A 
HETATM    6  C8  UNL     1      21.504   8.031  20.747  1.00  0.00     0.112 A 
HETATM    7  C9  UNL     1      20.417   8.744  21.182  1.00  0.00     0.124 A 
HETATM    8  S1  UNL     1      20.014   9.692  19.833  1.00  0.00    -0.066 SA
HETATM    9  C13 UNL     1      21.221   9.171  18.747  1.00  0.00     0.047 A 
HETATM   10  C14 UNL     1      21.568   9.478  17.421  1.00  0.00     0.098 A 
HETATM   11  N3  UNL     1      20.782  10.445  16.752  1.00  0.00    -0.098 NA
ENDROOT
BRANCH   7  12
HETATM   12  N1  UNL     1      19.799   8.685  22.497  1.00  0.00    -0.289 N 
HETATM   13  N2  UNL     1      20.573   8.985  23.446  1.00  0.00    -0.269 N 
HETATM   14  C10 UNL     1      20.093   8.966  24.773  1.00  0.00     0.235 C 
ATOM     15  H2  UNL     1      21.542   9.241  23.256  1.00  0.00     0.190 HD
HETATM   16  O3  UNL     1      19.877  10.055  25.418  1.00  0.00    -0.272 OA
ATOM     17  H1  UNL     1      18.823   8.423  22.639  1.00  0.00     0.188 HD
BRANCH  14  18
HETATM   18  C11 UNL     1      19.822   7.688  25.476  1.00  0.00     0.100 C 
HETATM   19  C12 UNL     1      20.409   7.721  26.879  1.00  0.00     0.014 C 
ENDBRANCH  14  18
ENDBRANCH   7  12
BRANCH   6  20
HETATM   20  O2  UNL     1      22.096   7.116  21.669  1.00  0.00    -0.357 OA
ATOM     21  H2  UNL     1      22.988   6.790  21.628  1.00  0.00     0.217 HD
ENDBRANCH   6  20
BRANCH   1  22
HETATM   22  O1  UNL     1      23.008   9.136  15.496  1.00  0.00    -0.349 OA
BRANCH  22  23
HETATM   23  C2  UNL     1      22.387   8.544  14.378  1.00  0.00     0.171 C 
HETATM   24  C1  UNL     1      23.484   7.992  13.487  1.00  0.00     0.034 C 
ENDBRANCH  22  23
ENDBRANCH   1  22
TORSDOF 5
ENDMDL
MODEL 4
REMARK VINA RESULT: -7.747590884      4.280      7.304
REMARK  5 active torsions:
REMARK  status: ('A' for Active; 'I' for Inactive)
REMARK    1  A    between atoms: C2_2  and  O1_3 
REMARK    2  A    between atoms: O1_3  and  C3_4 
REMARK    3  A    between atoms: C8_9  and  O2_10 
REMARK    4  A    between atoms: C9_12  and  N1_13 
REMARK       I    between atoms: N2_15  and  C10_17 
REMARK    5  A    between atoms: C10_17  and  C11_19 
ROOT
HETATM    1  C3  UNL     1      22.251   8.368  18.448  1.00  0.00     0.100 A 
HETATM    2  C4  UNL     1      22.894   8.238  17.239  1.00  0.00    -0.026 A 
HETATM    3  C5  UNL     1      22.735   9.344  16.221  1.00  0.00     0.051 C 
HETATM    4  C6  UNL     1      23.679   7.153  16.930  1.00  0.00     0.025 A 
HETATM    5  C7  UNL     1      23.869   6.107  17.849  1.00  0.00     0.020 A 
HETATM    6  C8  UNL     1      24.613   4.993  17.663  1.00  0.00     0.112 A 
HETATM    7  C9  UNL     1      24.665   4.094  18.696  1.00  0.00     0.124 A 
HETATM    8  S1  UNL     1      23.688   4.815  19.882  1.00  0.00    -0.066 SA
HETATM    9  C13 UNL     1      23.233   6.235  19.053  1.00  0.00     0.047 A 
HETATM   10  C14 UNL     1      22.434   7.350  19.353  1.00  0.00     0.098 A 
HETATM   11  N3  UNL     1      21.824   7.388  20.628  1.00  0.00    -0.098 NA
ENDROOT
BRANCH   7  12
HETATM   12  N1  UNL     1      25.403   2.842  18.733  1.00  0.00    -0.289 N 
HETATM   13  N2  UNL     1      25.280   2.139  17.692  1.00  0.00    -0.269 N 
HETATM   14  C10 UNL     1      25.948   0.899  17.604  1.00  0.00     0.235 C 
ATOM     15  H2  UNL     1      24.701   2.466  16.918  1.00  0.00     0.190 HD
HETATM   16  O3  UNL     1      26.972   0.748  16.843  1.00  0.00    -0.272 OA
ATOM     17  H1  UNL     1      25.971   2.557  19.531  1.00  0.00     0.188 HD
BRANCH  14  18
HETATM   18  C11 UNL     1      25.493  -0.279  18.381  1.00  0.00     0.100 C 
HETATM   19  C12 UNL     1      24.052  -0.619  18.032  1.00  0.00     0.014 C 
ENDBRANCH  14  18
ENDBRANCH   7  12
BRANCH   6  20
HETATM   20  O2  UNL     1      25.349   4.674  16.481  1.00  0.00    -0.357 OA
ATOM     21  H2  UNL     1      26.127   5.125  16.176  1.00  0.00     0.217 HD
ENDBRANCH   6  20
BRANCH   1  22
HETATM   22  O1  UNL     1      21.474   9.481  18.694  1.00  0.00    -0.349 OA
BRANCH  22  23
HETATM   23  C2  UNL     1      20.079   9.506  18.493  1.00  0.00     0.171 C 
HETATM   24  C1  UNL     1      19.777  10.646  17.539  1.00  0.00     0.034 C 
ENDBRANCH  22  23
ENDBRANCH   1  22
TORSDOF 5
ENDMDL
MODEL 5
REMARK VINA RESULT: -7.515159228      5.001      7.291
REMARK  5 active torsions:
REMARK  status: ('A' for Active; 'I' for Inactive)
REMARK    1  A    between atoms: C2_2  and  O1_3 
REMARK    2  A    between atoms: O1_3  and  C3_4 
REMARK    3  A    between atoms: C8_9  and  O2_10 
REMARK    4  A    between atoms: C9_12  and  N1_13 
REMARK       I    between atoms: N2_15  and  C10_17 
REMARK    5  A    between atoms: C10_17  and  C11_19 
ROOT
HETATM    1  C3  UNL     1      22.871   7.650  18.475  1.00  0.00     0.100 A 
HETATM    2  C4  UNL     1      23.595   7.283  17.365  1.00  0.00    -0.026 A 
HETATM    3  C5  UNL     1      23.719   8.274  16.231  1.00  0.00     0.051 C 
HETATM    4  C6  UNL     1      24.216   6.062  17.257  1.00  0.00     0.025 A 
HETATM    5  C7  UNL     1      24.142   5.113  18.290  1.00  0.00     0.020 A 
HETATM    6  C8  UNL     1      24.708   3.884  18.301  1.00  0.00     0.112 A 
HETATM    7  C9  UNL     1      24.511   3.114  19.418  1.00  0.00     0.124 A 
HETATM    8  S1  UNL     1      23.558   4.109  20.408  1.00  0.00    -0.066 SA
HETATM    9  C13 UNL     1      23.425   5.476  19.396  1.00  0.00     0.047 A 
HETATM   10  C14 UNL     1      22.796   6.728  19.491  1.00  0.00     0.098 A 
HETATM   11  N3  UNL     1      22.082   7.007  20.680  1.00  0.00    -0.098 NA
ENDROOT
BRANCH   7  12
HETATM   12  N1  UNL     1      25.026   1.776  19.661  1.00  0.00    -0.289 N 
HETATM   13  N2  UNL     1      24.691   0.927  18.790  1.00  0.00    -0.269 N 
HETATM   14  C10 UNL     1      25.127  -0.409  18.914  1.00  0.00     0.235 C 
ATOM     15  H2  UNL     1      24.108   1.206  18.001  1.00  0.00     0.190 HD
HETATM   16  O3  UNL     1      26.037  -0.885  18.142  1.00  0.00    -0.272 OA
ATOM     17  H1  UNL     1      25.607   1.545  20.467  1.00  0.00     0.188 HD
BRANCH  14  18
HETATM   18  C11 UNL     1      24.552  -1.317  19.935  1.00  0.00     0.100 C 
HETATM   19  C12 UNL     1      24.548  -2.752  19.427  1.00  0.00     0.014 C 
ENDBRANCH  14  18
ENDBRANCH   7  12
BRANCH   6  20
HETATM   20  O2  UNL     1      25.490   3.320  17.247  1.00  0.00    -0.357 OA
ATOM     21  H2  UNL     1      26.437   3.361  17.180  1.00  0.00     0.217 HD
ENDBRANCH   6  20
BRANCH   1  22
HETATM   22  O1  UNL     1      22.267   8.890  18.520  1.00  0.00    -0.349 OA
BRANCH  22  23
HETATM   23  C2  UNL     1      20.903   9.093  18.235  1.00  0.00     0.171 C 
HETATM   24  C1  UNL     1      20.808  10.267  17.278  1.00  0.00     0.034 C 
ENDBRANCH  22  23
ENDBRANCH   1  22
TORSDOF 5
ENDMDL
