MODEL 1
REMARK VINA RESULT: -7.017071958      0.000      0.000
REMARK  6 active torsions:
REMARK  status: ('A' for Active; 'I' for Inactive)
REMARK    1  A    between atoms: C2_2  and  N1_3 
REMARK    2  A    between atoms: N1_3  and  C3_5 
REMARK    3  A    between atoms: C6_10  and  S1_11 
REMARK    4  A    between atoms: S1_11  and  S2_12 
REMARK    5  A    between atoms: S2_12  and  C7_13 
REMARK    6  A    between atoms: C11_18  and  O2_19 
ROOT
HETATM    1  C3  UNL     1      20.520   2.750  22.184  1.00  0.00     0.145 A 
HETATM    2  N2  UNL     1      21.283   2.420  21.146  1.00  0.00    -0.339 N 
ATOM      3  H2  UNL     1      21.227   1.489  20.734  1.00  0.00     0.168 HD
HETATM    4  C4  UNL     1      22.104   3.310  20.663  1.00  0.00     0.032 A 
HETATM    5  C5  UNL     1      23.009   3.017  19.478  1.00  0.00     0.070 C 
HETATM    6  C6  UNL     1      22.136   4.542  21.255  1.00  0.00     0.078 A 
HETATM    7  S3  UNL     1      20.966   4.363  22.498  1.00  0.00    -0.044 SA
ENDROOT
BRANCH   6   8
HETATM    8  S1  UNL     1      23.143   5.988  20.853  1.00  0.00    -0.041 SA
BRANCH   8   9
HETATM    9  S2  UNL     1      21.914   7.702  21.078  1.00  0.00    -0.024 SA
BRANCH   9  10
HETATM   10  C7  UNL     1      21.692   8.414  19.468  1.00  0.00     0.156 A 
HETATM   11  O1  UNL     1      22.393   8.288  18.370  1.00  0.00    -0.305 OA
HETATM   12  C8  UNL     1      21.876   8.992  17.396  1.00  0.00     0.053 A 
HETATM   13  C9  UNL     1      22.396   9.094  16.013  1.00  0.00     0.077 C 
HETATM   14  C10 UNL     1      20.752   9.630  17.876  1.00  0.00     0.072 A 
HETATM   15  C11 UNL     1      20.620   9.274  19.191  1.00  0.00     0.109 A 
BRANCH  15  16
HETATM   16  O2  UNL     1      19.627   9.697  20.030  1.00  0.00    -0.357 OA
ATOM     17  H2  UNL     1      18.767  10.034  19.808  1.00  0.00     0.217 HD
ENDBRANCH  15  16
ENDBRANCH   9  10
ENDBRANCH   8   9
ENDBRANCH   6   8
BRANCH   1  18
HETATM   18  N1  UNL     1      19.633   2.030  22.827  1.00  0.00    -0.371 N 
ATOM     19  H1  UNL     1      19.446   2.192  23.816  1.00  0.00     0.161 HD
BRANCH  18  20
HETATM   20  C2  UNL     1      18.919   0.988  22.088  1.00  0.00     0.117 C 
HETATM   21  C1  UNL     1      17.539   1.419  21.689  1.00  0.00     0.026 C 
ENDBRANCH  18  20
ENDBRANCH   1  18
TORSDOF 6
ENDMDL
MODEL 2
REMARK VINA RESULT: -6.742892624      1.210      1.711
REMARK  6 active torsions:
REMARK  status: ('A' for Active; 'I' for Inactive)
REMARK    1  A    between atoms: C2_2  and  N1_3 
REMARK    2  A    between atoms: N1_3  and  C3_5 
REMARK    3  A    between atoms: C6_10  and  S1_11 
REMARK    4  A    between atoms: S1_11  and  S2_12 
REMARK    5  A    between atoms: S2_12  and  C7_13 
REMARK    6  A    between atoms: C11_18  and  O2_19 
ROOT
HETATM    1  C3  UNL     1      20.702   2.677  21.743  1.00  0.00     0.145 A 
HETATM    2  N2  UNL     1      20.428   3.578  22.683  1.00  0.00    -0.339 N 
ATOM      3  H2  UNL     1      19.728   3.385  23.399  1.00  0.00     0.168 HD
HETATM    4  C4  UNL     1      21.070   4.712  22.671  1.00  0.00     0.032 A 
HETATM    5  C5  UNL     1      20.820   5.794  23.708  1.00  0.00     0.070 C 
HETATM    6  C6  UNL     1      21.997   4.915  21.686  1.00  0.00     0.078 A 
HETATM    7  S3  UNL     1      21.902   3.444  20.808  1.00  0.00    -0.044 SA
ENDROOT
BRANCH   6   8
HETATM    8  S1  UNL     1      23.049   6.351  21.372  1.00  0.00    -0.041 SA
BRANCH   8   9
HETATM    9  S2  UNL     1      21.774   8.019  21.068  1.00  0.00    -0.024 SA
BRANCH   9  10
HETATM   10  C7  UNL     1      21.844   8.436  19.345  1.00  0.00     0.156 A 
HETATM   11  O1  UNL     1      22.704   8.104  18.416  1.00  0.00    -0.305 OA
HETATM   12  C8  UNL     1      22.382   8.632  17.263  1.00  0.00     0.053 A 
HETATM   13  C9  UNL     1      23.120   8.477  15.988  1.00  0.00     0.077 C 
HETATM   14  C10 UNL     1      21.226   9.365  17.434  1.00  0.00     0.072 A 
HETATM   15  C11 UNL     1      20.871   9.251  18.751  1.00  0.00     0.109 A 
BRANCH  15  16
HETATM   16  O2  UNL     1      19.777   9.834  19.328  1.00  0.00    -0.357 OA
ATOM     17  H2  UNL     1      18.965   9.427  19.606  1.00  0.00     0.217 HD
ENDBRANCH  15  16
ENDBRANCH   9  10
ENDBRANCH   8   9
ENDBRANCH   6   8
BRANCH   1  18
HETATM   18  N1  UNL     1      20.191   1.484  21.559  1.00  0.00    -0.371 N 
ATOM     19  H1  UNL     1      20.588   0.845  20.871  1.00  0.00     0.161 HD
BRANCH  18  20
HETATM   20  C2  UNL     1      19.035   1.094  22.367  1.00  0.00     0.117 C 
HETATM   21  C1  UNL     1      17.737   1.334  21.657  1.00  0.00     0.026 C 
ENDBRANCH  18  20
ENDBRANCH   1  18
TORSDOF 6
ENDMDL
MODEL 3
REMARK VINA RESULT: -6.686860631      4.778      7.466
REMARK  6 active torsions:
REMARK  status: ('A' for Active; 'I' for Inactive)
REMARK    1  A    between atoms: C2_2  and  N1_3 
REMARK    2  A    between atoms: N1_3  and  C3_5 
REMARK    3  A    between atoms: C6_10  and  S1_11 
REMARK    4  A    between atoms: S1_11  and  S2_12 
REMARK    5  A    between atoms: S2_12  and  C7_13 
REMARK    6  A    between atoms: C11_18  and  O2_19 
ROOT
HETATM    1  C3  UNL     1      22.901   8.638  16.647  1.00  0.00     0.145 A 
HETATM    2  N2  UNL     1      21.899   9.502  16.502  1.00  0.00    -0.339 N 
ATOM      3  H2  UNL     1      21.759   9.992  15.619  1.00  0.00     0.168 HD
HETATM    4  C4  UNL     1      21.100   9.710  17.511  1.00  0.00     0.032 A 
HETATM    5  C5  UNL     1      19.930  10.677  17.431  1.00  0.00     0.070 C 
HETATM    6  C6  UNL     1      21.336   9.024  18.671  1.00  0.00     0.078 A 
HETATM    7  S3  UNL     1      22.719   8.097  18.252  1.00  0.00    -0.044 SA
ENDROOT
BRANCH   6   8
HETATM    8  S1  UNL     1      20.444   9.074  20.241  1.00  0.00    -0.041 SA
BRANCH   8   9
HETATM    9  S2  UNL     1      21.561   7.938  21.642  1.00  0.00    -0.024 SA
BRANCH   9  10
HETATM   10  C7  UNL     1      20.675   7.969  23.180  1.00  0.00     0.156 A 
HETATM   11  O1  UNL     1      20.421   8.953  24.004  1.00  0.00    -0.305 OA
HETATM   12  C8  UNL     1      19.728   8.540  25.034  1.00  0.00     0.053 A 
HETATM   13  C9  UNL     1      19.260   9.370  26.168  1.00  0.00     0.077 C 
HETATM   14  C10 UNL     1      19.502   7.188  24.886  1.00  0.00     0.072 A 
HETATM   15  C11 UNL     1      20.097   6.809  23.713  1.00  0.00     0.109 A 
BRANCH  15  16
HETATM   16  O2  UNL     1      20.102   5.540  23.203  1.00  0.00    -0.357 OA
ATOM     17  H2  UNL     1      19.548   5.171  22.525  1.00  0.00     0.217 HD
ENDBRANCH  15  16
ENDBRANCH   9  10
ENDBRANCH   8   9
ENDBRANCH   6   8
BRANCH   1  18
HETATM   18  N1  UNL     1      23.816   8.274  15.783  1.00  0.00    -0.371 N 
ATOM     19  H1  UNL     1      24.493   8.946  15.423  1.00  0.00     0.161 HD
BRANCH  18  20
HETATM   20  C2  UNL     1      23.842   6.877  15.348  1.00  0.00     0.117 C 
HETATM   21  C1  UNL     1      24.885   6.076  16.068  1.00  0.00     0.026 C 
ENDBRANCH  18  20
ENDBRANCH   1  18
TORSDOF 6
ENDMDL
MODEL 4
REMARK VINA RESULT: -6.678921538      3.982      6.542
REMARK  6 active torsions:
REMARK  status: ('A' for Active; 'I' for Inactive)
REMARK    1  A    between atoms: C2_2  and  N1_3 
REMARK    2  A    between atoms: N1_3  and  C3_5 
REMARK    3  A    between atoms: C6_10  and  S1_11 
REMARK    4  A    between atoms: S1_11  and  S2_12 
REMARK    5  A    between atoms: S2_12  and  C7_13 
REMARK    6  A    between atoms: C11_18  and  O2_19 
ROOT
HETATM    1  C3  UNL     1      20.244   9.123  20.533  1.00  0.00     0.145 A 
HETATM    2  N2  UNL     1      19.673   9.861  19.585  1.00  0.00    -0.339 N 
ATOM      3  H2  UNL     1      18.850  10.426  19.792  1.00  0.00     0.168 HD
HETATM    4  C4  UNL     1      20.184   9.847  18.386  1.00  0.00     0.032 A 
HETATM    5  C5  UNL     1      19.595  10.661  17.246  1.00  0.00     0.070 C 
HETATM    6  C6  UNL     1      21.288   9.069  18.167  1.00  0.00     0.078 A 
HETATM    7  S3  UNL     1      21.544   8.382  19.719  1.00  0.00    -0.044 SA
ENDROOT
BRANCH   6   8
HETATM    8  S1  UNL     1      22.235   8.814  16.649  1.00  0.00    -0.041 SA
BRANCH   8   9
HETATM    9  S2  UNL     1      24.194   8.229  17.213  1.00  0.00    -0.024 SA
BRANCH   9  10
HETATM   10  C7  UNL     1      24.136   6.503  17.625  1.00  0.00     0.156 A 
HETATM   11  O1  UNL     1      23.707   5.891  18.699  1.00  0.00    -0.305 OA
HETATM   12  C8  UNL     1      23.846   4.595  18.592  1.00  0.00     0.053 A 
HETATM   13  C9  UNL     1      23.472   3.584  19.607  1.00  0.00     0.077 C 
HETATM   14  C10 UNL     1      24.405   4.323  17.361  1.00  0.00     0.072 A 
HETATM   15  C11 UNL     1      24.595   5.524  16.733  1.00  0.00     0.109 A 
BRANCH  15  16
HETATM   16  O2  UNL     1      25.131   5.689  15.486  1.00  0.00    -0.357 OA
ATOM     17  H2  UNL     1      25.495   5.032  14.905  1.00  0.00     0.217 HD
ENDBRANCH  15  16
ENDBRANCH   9  10
ENDBRANCH   8   9
ENDBRANCH   6   8
BRANCH   1  18
HETATM   18  N1  UNL     1      19.910   8.983  21.793  1.00  0.00    -0.371 N 
ATOM     19  H1  UNL     1      18.932   8.913  22.070  1.00  0.00     0.161 HD
BRANCH  18  20
HETATM   20  C2  UNL     1      20.979   8.928  22.791  1.00  0.00     0.117 C 
HETATM   21  C1  UNL     1      20.728   9.853  23.944  1.00  0.00     0.026 C 
ENDBRANCH  18  20
ENDBRANCH   1  18
TORSDOF 6
ENDMDL
MODEL 5
REMARK VINA RESULT: -6.665290991      0.987      1.260
REMARK  6 active torsions:
REMARK  status: ('A' for Active; 'I' for Inactive)
REMARK    1  A    between atoms: C2_2  and  N1_3 
REMARK    2  A    between atoms: N1_3  and  C3_5 
REMARK    3  A    between atoms: C6_10  and  S1_11 
REMARK    4  A    between atoms: S1_11  and  S2_12 
REMARK    5  A    between atoms: S2_12  and  C7_13 
REMARK    6  A    between atoms: C11_18  and  O2_19 
ROOT
HETATM    1  C3  UNL     1      20.621   2.737  22.136  1.00  0.00     0.145 A 
HETATM    2  N2  UNL     1      21.357   2.426  21.072  1.00  0.00    -0.339 N 
ATOM      3  H2  UNL     1      21.298   1.498  20.653  1.00  0.00     0.168 HD
HETATM    4  C4  UNL     1      22.154   3.329  20.575  1.00  0.00     0.032 A 
HETATM    5  C5  UNL     1      23.027   3.058  19.360  1.00  0.00     0.070 C 
HETATM    6  C6  UNL     1      22.192   4.556  21.179  1.00  0.00     0.078 A 
HETATM    7  S3  UNL     1      21.061   4.351  22.454  1.00  0.00    -0.044 SA
ENDROOT
BRANCH   6   8
HETATM    8  S1  UNL     1      23.172   6.016  20.763  1.00  0.00    -0.041 SA
BRANCH   8   9
HETATM    9  S2  UNL     1      21.917   7.710  20.991  1.00  0.00    -0.024 SA
BRANCH   9  10
HETATM   10  C7  UNL     1      21.698   8.430  19.383  1.00  0.00     0.156 A 
HETATM   11  O1  UNL     1      22.392   8.299  18.283  1.00  0.00    -0.305 OA
HETATM   12  C8  UNL     1      21.881   9.012  17.312  1.00  0.00     0.053 A 
HETATM   13  C9  UNL     1      22.397   9.112  15.928  1.00  0.00     0.077 C 
HETATM   14  C10 UNL     1      20.767   9.664  17.800  1.00  0.00     0.072 A 
HETATM   15  C11 UNL     1      20.636   9.305  19.114  1.00  0.00     0.109 A 
BRANCH  15  16
HETATM   16  O2  UNL     1      19.651   9.738  19.958  1.00  0.00    -0.357 OA
ATOM     17  H2  UNL     1      18.887   9.268  20.269  1.00  0.00     0.217 HD
ENDBRANCH  15  16
ENDBRANCH   9  10
ENDBRANCH   8   9
ENDBRANCH   6   8
BRANCH   1  18
HETATM   18  N1  UNL     1      19.761   2.001  22.797  1.00  0.00    -0.371 N 
ATOM     19  H1  UNL     1      19.106   1.394  22.305  1.00  0.00     0.161 HD
BRANCH  18  20
HETATM   20  C2  UNL     1      19.766   2.073  24.258  1.00  0.00     0.117 C 
HETATM   21  C1  UNL     1      20.972   1.414  24.857  1.00  0.00     0.026 C 
ENDBRANCH  18  20
ENDBRANCH   1  18
TORSDOF 6
ENDMDL
