MODEL 1
REMARK VINA RESULT: -6.802981955      0.000      0.000
REMARK  7 active torsions:
REMARK  status: ('A' for Active; 'I' for Inactive)
REMARK    1  A    between atoms: O1_2  and  C2_3 
REMARK    2  A    between atoms: C4_5  and  O2_6 
REMARK    3  A    between atoms: C7_9  and  O3_10 
REMARK    4  A    between atoms: C9_12  and  O4_13 
REMARK    5  A    between atoms: C11_15  and  C12_16 
REMARK    6  A    between atoms: N1_17  and  C13_19 
REMARK    7  A    between atoms: C17_23  and  O5_24 
ROOT
HETATM    1  C2  UNL     1      22.487   7.026  20.391  1.00  0.00     0.071 A 
HETATM    2  C3  UNL     1      22.226   6.995  21.744  1.00  0.00     0.074 A 
HETATM    3  C4  UNL     1      22.342   5.825  22.453  1.00  0.00     0.085 A 
HETATM    4  C6  UNL     1      22.721   4.660  21.822  1.00  0.00     0.047 A 
HETATM    5  C7  UNL     1      22.867   3.454  22.462  1.00  0.00     0.116 A 
HETATM    6  C9  UNL     1      23.263   2.291  21.802  1.00  0.00     0.116 A 
HETATM    7  C11 UNL     1      23.532   2.285  20.456  1.00  0.00     0.049 A 
HETATM    8  C17 UNL     1      23.387   3.501  19.796  1.00  0.00     0.091 A 
HETATM    9  C18 UNL     1      22.992   4.661  20.456  1.00  0.00     0.017 A 
HETATM   10  C19 UNL     1      22.867   5.855  19.771  1.00  0.00     0.052 A 
ENDROOT
BRANCH   7  11
HETATM   11  C12 UNL     1      23.921   1.085  19.741  1.00  0.00     0.101 C 
HETATM   12  N1  UNL     1      25.018   1.014  19.084  1.00  0.00    -0.390 N 
ATOM     13  H1  UNL     1      25.620   1.838  19.079  1.00  0.00     0.159 HD
BRANCH  12  14
HETATM   14  C13 UNL     1      25.465  -0.133  18.358  1.00  0.00     0.018 C 
HETATM   15  C14 UNL     1      26.954  -0.215  18.204  1.00  0.00     0.037 C 
HETATM   16  C15 UNL     1      24.991  -1.436  18.995  1.00  0.00     0.037 C 
HETATM   17  C16 UNL     1      24.848  -0.101  16.958  1.00  0.00     0.037 C 
ENDBRANCH  12  14
ENDBRANCH   7  11
BRANCH   6  18
HETATM   18  O4  UNL     1      23.366   1.159  22.588  1.00  0.00    -0.352 OA
HETATM   19  C10 UNL     1      24.595   0.782  23.208  1.00  0.00     0.210 C 
ENDBRANCH   6  18
BRANCH   8  20
HETATM   20  O5  UNL     1      23.626   3.623  18.457  1.00  0.00    -0.359 OA
ATOM     21  H5  UNL     1      24.480   3.868  18.123  1.00  0.00     0.217 HD
ENDBRANCH   8  20
BRANCH   5  22
HETATM   22  O3  UNL     1      22.597   3.401  23.836  1.00  0.00    -0.352 OA
HETATM   23  C8  UNL     1      21.367   2.769  24.204  1.00  0.00     0.210 C 
ENDBRANCH   5  22
BRANCH   3  24
HETATM   24  O2  UNL     1      22.075   5.837  23.798  1.00  0.00    -0.355 OA
HETATM   25  C5  UNL     1      21.150   6.660  24.435  1.00  0.00     0.210 C 
ENDBRANCH   3  24
BRANCH   1  26
HETATM   26  O1  UNL     1      22.380   8.182  19.655  1.00  0.00    -0.356 OA
HETATM   27  C1  UNL     1      21.703   8.306  18.442  1.00  0.00     0.210 C 
ENDBRANCH   1  26
TORSDOF 7
ENDMDL
MODEL 2
REMARK VINA RESULT: -6.799233508      4.081      7.157
REMARK  7 active torsions:
REMARK  status: ('A' for Active; 'I' for Inactive)
REMARK    1  A    between atoms: O1_2  and  C2_3 
REMARK    2  A    between atoms: C4_5  and  O2_6 
REMARK    3  A    between atoms: C7_9  and  O3_10 
REMARK    4  A    between atoms: C9_12  and  O4_13 
REMARK    5  A    between atoms: C11_15  and  C12_16 
REMARK    6  A    between atoms: N1_17  and  C13_19 
REMARK    7  A    between atoms: C17_23  and  O5_24 
ROOT
HETATM    1  C2  UNL     1      25.443   2.175  20.773  1.00  0.00     0.071 A 
HETATM    2  C3  UNL     1      25.121   0.836  20.738  1.00  0.00     0.074 A 
HETATM    3  C4  UNL     1      25.416   0.073  19.636  1.00  0.00     0.085 A 
HETATM    4  C6  UNL     1      26.041   0.636  18.543  1.00  0.00     0.047 A 
HETATM    5  C7  UNL     1      26.376  -0.062  17.409  1.00  0.00     0.116 A 
HETATM    6  C9  UNL     1      27.019   0.529  16.321  1.00  0.00     0.116 A 
HETATM    7  C11 UNL     1      27.356   1.859  16.321  1.00  0.00     0.049 A 
HETATM    8  C17 UNL     1      27.021   2.577  17.464  1.00  0.00     0.091 A 
HETATM    9  C18 UNL     1      26.380   1.986  18.550  1.00  0.00     0.017 A 
HETATM   10  C19 UNL     1      26.070   2.726  19.675  1.00  0.00     0.052 A 
ENDROOT
BRANCH   7  11
HETATM   11  C12 UNL     1      28.001   2.504  15.194  1.00  0.00     0.101 C 
HETATM   12  N1  UNL     1      27.671   3.679  14.807  1.00  0.00    -0.390 N 
ATOM     13  H1  UNL     1      26.931   4.156  15.323  1.00  0.00     0.159 HD
BRANCH  12  14
HETATM   14  C13 UNL     1      28.262   4.375  13.707  1.00  0.00     0.018 C 
HETATM   15  C14 UNL     1      29.761   4.394  13.733  1.00  0.00     0.037 C 
HETATM   16  C15 UNL     1      27.830   3.796  12.363  1.00  0.00     0.037 C 
HETATM   17  C16 UNL     1      27.772   5.824  13.719  1.00  0.00     0.037 C 
ENDBRANCH  12  14
ENDBRANCH   7  11
BRANCH   6  18
HETATM   18  O4  UNL     1      27.290  -0.309  15.256  1.00  0.00    -0.352 OA
HETATM   19  C10 UNL     1      26.366  -0.484  14.181  1.00  0.00     0.210 C 
ENDBRANCH   6  18
BRANCH   8  20
HETATM   20  O5  UNL     1      27.304   3.907  17.585  1.00  0.00    -0.359 OA
ATOM     21  H5  UNL     1      27.628   4.276  18.397  1.00  0.00     0.217 HD
ENDBRANCH   8  20
BRANCH   5  22
HETATM   22  O3  UNL     1      26.048  -1.423  17.352  1.00  0.00    -0.352 OA
HETATM   23  C8  UNL     1      27.151  -2.331  17.423  1.00  0.00     0.210 C 
ENDBRANCH   5  22
BRANCH   3  24
HETATM   24  O2  UNL     1      25.080  -1.256  19.641  1.00  0.00    -0.355 OA
HETATM   25  C5  UNL     1      25.365  -2.162  20.661  1.00  0.00     0.210 C 
ENDBRANCH   3  24
BRANCH   1  26
HETATM   26  O1  UNL     1      25.161   2.965  21.863  1.00  0.00    -0.356 OA
HETATM   27  C1  UNL     1      24.522   4.204  21.817  1.00  0.00     0.210 C 
ENDBRANCH   1  26
TORSDOF 7
ENDMDL
MODEL 3
REMARK VINA RESULT: -6.719889282      1.809      3.108
REMARK  7 active torsions:
REMARK  status: ('A' for Active; 'I' for Inactive)
REMARK    1  A    between atoms: O1_2  and  C2_3 
REMARK    2  A    between atoms: C4_5  and  O2_6 
REMARK    3  A    between atoms: C7_9  and  O3_10 
REMARK    4  A    between atoms: C9_12  and  O4_13 
REMARK    5  A    between atoms: C11_15  and  C12_16 
REMARK    6  A    between atoms: N1_17  and  C13_19 
REMARK    7  A    between atoms: C17_23  and  O5_24 
ROOT
HETATM    1  C2  UNL     1      23.489   5.221  21.420  1.00  0.00     0.071 A 
HETATM    2  C3  UNL     1      23.166   4.428  22.500  1.00  0.00     0.074 A 
HETATM    3  C4  UNL     1      23.535   3.106  22.533  1.00  0.00     0.085 A 
HETATM    4  C6  UNL     1      24.235   2.549  21.484  1.00  0.00     0.047 A 
HETATM    5  C7  UNL     1      24.646   1.240  21.446  1.00  0.00     0.116 A 
HETATM    6  C9  UNL     1      25.363   0.703  20.377  1.00  0.00     0.116 A 
HETATM    7  C11 UNL     1      25.703   1.463  19.286  1.00  0.00     0.049 A 
HETATM    8  C17 UNL     1      25.291   2.791  19.311  1.00  0.00     0.091 A 
HETATM    9  C18 UNL     1      24.575   3.326  20.379  1.00  0.00     0.017 A 
HETATM   10  C19 UNL     1      24.190   4.653  20.378  1.00  0.00     0.052 A 
ENDROOT
BRANCH   7  11
HETATM   11  C12 UNL     1      26.425   0.924  18.150  1.00  0.00     0.101 C 
HETATM   12  N1  UNL     1      25.890   0.829  16.991  1.00  0.00    -0.390 N 
ATOM     13  H1  UNL     1      24.926   1.147  16.888  1.00  0.00     0.159 HD
BRANCH  12  14
HETATM   14  C13 UNL     1      26.540   0.309  15.829  1.00  0.00     0.018 C 
HETATM   15  C14 UNL     1      27.355  -0.923  16.087  1.00  0.00     0.037 C 
HETATM   16  C15 UNL     1      25.551  -0.014  14.713  1.00  0.00     0.037 C 
HETATM   17  C16 UNL     1      27.474   1.381  15.266  1.00  0.00     0.037 C 
ENDBRANCH  12  14
ENDBRANCH   7  11
BRANCH   6  18
HETATM   18  O4  UNL     1      25.706  -0.631  20.492  1.00  0.00    -0.352 OA
HETATM   19  C10 UNL     1      25.035  -1.648  19.746  1.00  0.00     0.210 C 
ENDBRANCH   6  18
BRANCH   8  20
HETATM   20  O5  UNL     1      25.568   3.648  18.285  1.00  0.00    -0.359 OA
ATOM     21  H5  UNL     1      26.289   4.264  18.331  1.00  0.00     0.217 HD
ENDBRANCH   8  20
BRANCH   5  22
HETATM   22  O3  UNL     1      24.320   0.415  22.532  1.00  0.00    -0.352 OA
HETATM   23  C8  UNL     1      25.379   0.161  23.459  1.00  0.00     0.210 C 
ENDBRANCH   5  22
BRANCH   3  24
HETATM   24  O2  UNL     1      23.197   2.351  23.626  1.00  0.00    -0.355 OA
HETATM   25  C5  UNL     1      21.977   2.394  24.297  1.00  0.00     0.210 C 
ENDBRANCH   3  24
BRANCH   1  26
HETATM   26  O1  UNL     1      23.133   6.548  21.358  1.00  0.00    -0.356 OA
HETATM   27  C1  UNL     1      22.706   7.215  20.211  1.00  0.00     0.210 C 
ENDBRANCH   1  26
TORSDOF 7
ENDMDL
MODEL 4
REMARK VINA RESULT: -6.700721461      1.312      1.730
REMARK  7 active torsions:
REMARK  status: ('A' for Active; 'I' for Inactive)
REMARK    1  A    between atoms: O1_2  and  C2_3 
REMARK    2  A    between atoms: C4_5  and  O2_6 
REMARK    3  A    between atoms: C7_9  and  O3_10 
REMARK    4  A    between atoms: C9_12  and  O4_13 
REMARK    5  A    between atoms: C11_15  and  C12_16 
REMARK    6  A    between atoms: N1_17  and  C13_19 
REMARK    7  A    between atoms: C17_23  and  O5_24 
ROOT
HETATM    1  C2  UNL     1      21.918   7.810  20.126  1.00  0.00     0.071 A 
HETATM    2  C3  UNL     1      21.450   8.023  21.405  1.00  0.00     0.074 A 
HETATM    3  C4  UNL     1      21.674   7.098  22.395  1.00  0.00     0.085 A 
HETATM    4  C6  UNL     1      22.371   5.940  22.125  1.00  0.00     0.047 A 
HETATM    5  C7  UNL     1      22.642   4.973  23.062  1.00  0.00     0.116 A 
HETATM    6  C9  UNL     1      23.360   3.814  22.766  1.00  0.00     0.116 A 
HETATM    7  C11 UNL     1      23.841   3.570  21.504  1.00  0.00     0.049 A 
HETATM    8  C17 UNL     1      23.572   4.542  20.546  1.00  0.00     0.091 A 
HETATM    9  C18 UNL     1      22.856   5.698  20.843  1.00  0.00     0.017 A 
HETATM   10  C19 UNL     1      22.615   6.649  19.869  1.00  0.00     0.052 A 
ENDROOT
BRANCH   7  11
HETATM   11  C12 UNL     1      24.568   2.362  21.164  1.00  0.00     0.101 C 
HETATM   12  N1  UNL     1      24.375   1.746  20.058  1.00  0.00    -0.390 N 
ATOM     13  H1  UNL     1      23.685   2.135  19.414  1.00  0.00     0.159 HD
BRANCH  12  14
HETATM   14  C13 UNL     1      25.053   0.553  19.657  1.00  0.00     0.018 C 
HETATM   15  C14 UNL     1      25.121  -0.497  20.724  1.00  0.00     0.037 C 
HETATM   16  C15 UNL     1      24.418  -0.081  18.422  1.00  0.00     0.037 C 
HETATM   17  C16 UNL     1      26.485   0.911  19.257  1.00  0.00     0.037 C 
ENDBRANCH  12  14
ENDBRANCH   7  11
BRANCH   6  18
HETATM   18  O4  UNL     1      23.551   2.940  23.820  1.00  0.00    -0.352 OA
HETATM   19  C10 UNL     1      22.844   1.702  23.909  1.00  0.00     0.210 C 
ENDBRANCH   6  18
BRANCH   8  20
HETATM   20  O5  UNL     1      23.998   4.414  19.256  1.00  0.00    -0.359 OA
ATOM     21  H5  UNL     1      23.899   5.117  18.625  1.00  0.00     0.217 HD
ENDBRANCH   8  20
BRANCH   5  22
HETATM   22  O3  UNL     1      22.167   5.168  24.366  1.00  0.00    -0.352 OA
HETATM   23  C8  UNL     1      20.932   4.517  24.681  1.00  0.00     0.210 C 
ENDBRANCH   5  22
BRANCH   3  24
HETATM   24  O2  UNL     1      21.194   7.348  23.655  1.00  0.00    -0.355 OA
HETATM   25  C5  UNL     1      20.912   8.606  24.182  1.00  0.00     0.210 C 
ENDBRANCH   3  24
BRANCH   1  26
HETATM   26  O1  UNL     1      21.710   8.717  19.114  1.00  0.00    -0.356 OA
HETATM   27  C1  UNL     1      21.755   8.428  17.751  1.00  0.00     0.210 C 
ENDBRANCH   1  26
TORSDOF 7
ENDMDL
MODEL 5
REMARK VINA RESULT: -6.634735317      2.892      6.707
REMARK  7 active torsions:
REMARK  status: ('A' for Active; 'I' for Inactive)
REMARK    1  A    between atoms: O1_2  and  C2_3 
REMARK    2  A    between atoms: C4_5  and  O2_6 
REMARK    3  A    between atoms: C7_9  and  O3_10 
REMARK    4  A    between atoms: C9_12  and  O4_13 
REMARK    5  A    between atoms: C11_15  and  C12_16 
REMARK    6  A    between atoms: N1_17  and  C13_19 
REMARK    7  A    between atoms: C17_23  and  O5_24 
ROOT
HETATM    1  C2  UNL     1      22.438   7.047  20.225  1.00  0.00     0.071 A 
HETATM    2  C3  UNL     1      22.728   5.759  19.830  1.00  0.00     0.074 A 
HETATM    3  C4  UNL     1      22.655   4.719  20.723  1.00  0.00     0.085 A 
HETATM    4  C6  UNL     1      22.289   4.947  22.032  1.00  0.00     0.047 A 
HETATM    5  C7  UNL     1      22.184   3.961  22.981  1.00  0.00     0.116 A 
HETATM    6  C9  UNL     1      21.800   4.215  24.298  1.00  0.00     0.116 A 
HETATM    7  C11 UNL     1      21.502   5.485  24.726  1.00  0.00     0.049 A 
HETATM    8  C17 UNL     1      21.605   6.494  23.774  1.00  0.00     0.091 A 
HETATM    9  C18 UNL     1      21.988   6.238  22.460  1.00  0.00     0.017 A 
HETATM   10  C19 UNL     1      22.071   7.262  21.536  1.00  0.00     0.052 A 
ENDROOT
BRANCH   7  11
HETATM   11  C12 UNL     1      21.126   5.781  26.095  1.00  0.00     0.101 C 
HETATM   12  N1  UNL     1      21.848   5.419  27.089  1.00  0.00    -0.390 N 
ATOM     13  H1  UNL     1      22.707   4.908  26.886  1.00  0.00     0.159 HD
BRANCH  12  14
HETATM   14  C13 UNL     1      21.540   5.675  28.460  1.00  0.00     0.018 C 
HETATM   15  C14 UNL     1      20.999   4.486  29.196  1.00  0.00     0.037 C 
HETATM   16  C15 UNL     1      22.750   6.189  29.235  1.00  0.00     0.037 C 
HETATM   17  C16 UNL     1      20.492   6.788  28.531  1.00  0.00     0.037 C 
ENDBRANCH  12  14
ENDBRANCH   7  11
BRANCH   6  18
HETATM   18  O4  UNL     1      21.741   3.114  25.131  1.00  0.00    -0.352 OA
HETATM   19  C10 UNL     1      20.539   2.361  25.298  1.00  0.00     0.210 C 
ENDBRANCH   6  18
BRANCH   8  20
HETATM   20  O5  UNL     1      21.335   7.797  24.078  1.00  0.00    -0.359 OA
ATOM     21  H5  UNL     1      21.817   8.512  23.681  1.00  0.00     0.217 HD
ENDBRANCH   8  20
BRANCH   5  22
HETATM   22  O3  UNL     1      22.485   2.645  22.600  1.00  0.00    -0.352 OA
HETATM   23  C8  UNL     1      23.736   2.134  23.068  1.00  0.00     0.210 C 
ENDBRANCH   5  22
BRANCH   3  24
HETATM   24  O2  UNL     1      22.950   3.453  20.290  1.00  0.00    -0.355 OA
HETATM   25  C5  UNL     1      23.490   3.124  19.049  1.00  0.00     0.210 C 
ENDBRANCH   3  24
BRANCH   1  26
HETATM   26  O1  UNL     1      22.502   8.109  19.354  1.00  0.00    -0.356 OA
HETATM   27  C1  UNL     1      21.536   8.430  18.401  1.00  0.00     0.210 C 
ENDBRANCH   1  26
TORSDOF 7
ENDMDL
