MODEL 1
REMARK VINA RESULT: -7.717514524      0.000      0.000
REMARK  7 active torsions:
REMARK  status: ('A' for Active; 'I' for Inactive)
REMARK    1  A    between atoms: C2_2  and  O1_3 
REMARK    2  A    between atoms: O1_3  and  C3_4 
REMARK       I    between atoms: C3_4  and  N1_6 
REMARK    3  A    between atoms: N1_6  and  C4_8 
REMARK    4  A    between atoms: C6_10  and  C7_11 
REMARK    5  A    between atoms: C8_16  and  S1_17 
REMARK    6  A    between atoms: S1_17  and  C9_18 
REMARK    7  A    between atoms: N5_20  and  C10_22 
ROOT
HETATM    1  C7  UNL     1      25.501   2.571  19.852  1.00  0.00     0.175 A 
HETATM    2  N2  UNL     1      26.127   1.494  20.352  1.00  0.00    -0.277 N 
ATOM      3  H2  UNL     1      26.114   1.219  21.334  1.00  0.00     0.189 HD
HETATM    4  N3  UNL     1      26.758   0.842  19.401  1.00  0.00    -0.272 N 
ATOM      5  H3  UNL     1      27.312  -0.008  19.501  1.00  0.00     0.189 HD
HETATM    6  C8  UNL     1      26.523   1.529  18.271  1.00  0.00     0.211 A 
HETATM    7  O3  UNL     1      25.767   2.555  18.578  1.00  0.00    -0.267 OA
ENDROOT
BRANCH   1   8
HETATM    8  C6  UNL     1      24.677   3.564  20.603  1.00  0.00     0.026 A 
HETATM    9  C5  UNL     1      23.716   4.319  20.025  1.00  0.00     0.053 A 
HETATM   10  C4  UNL     1      23.040   5.185  20.829  1.00  0.00     0.079 A 
HETATM   11  S2  UNL     1      23.746   4.936  22.359  1.00  0.00    -0.083 SA
HETATM   12  C12 UNL     1      24.882   3.740  21.944  1.00  0.00     0.067 A 
BRANCH  10  13
HETATM   13  N1  UNL     1      21.977   6.092  20.447  1.00  0.00    -0.297 N 
HETATM   14  C3  UNL     1      22.264   7.282  19.786  1.00  0.00     0.365 C 
HETATM   15  O2  UNL     1      23.446   7.580  19.514  1.00  0.00    -0.238 OA
ATOM     16  H1  UNL     1      21.008   5.856  20.665  1.00  0.00     0.171 HD
BRANCH  14  17
HETATM   17  O1  UNL     1      21.247   8.137  19.427  1.00  0.00    -0.304 OA
BRANCH  17  18
HETATM   18  C2  UNL     1      21.239   8.855  18.209  1.00  0.00     0.176 C 
HETATM   19  C1  UNL     1      19.977   9.640  18.006  1.00  0.00     0.034 C 
ENDBRANCH  17  18
ENDBRANCH  14  17
ENDBRANCH  10  13
ENDBRANCH   1   8
BRANCH   6  20
HETATM   20  S1  UNL     1      27.164   1.057  16.675  1.00  0.00    -0.012 SA
BRANCH  20  21
HETATM   21  C9  UNL     1      28.701   1.896  16.374  1.00  0.00     0.159 C 
HETATM   22  N4  UNL     1      29.769   1.723  17.284  1.00  0.00    -0.075 NA
HETATM   23  N5  UNL     1      28.848   2.649  15.349  1.00  0.00    -0.356 N 
ATOM     24  H5  UNL     1      29.753   3.105  15.227  1.00  0.00     0.162 HD
BRANCH  23  25
HETATM   25  C10 UNL     1      27.849   2.904  14.360  1.00  0.00     0.176 C 
HETATM   26  C11 UNL     1      27.833   4.410  14.102  1.00  0.00     0.049 C 
HETATM   27 CL1  UNL     1      28.214   2.009  12.875  1.00  0.00    -0.103 Cl
ENDBRANCH  23  25
ENDBRANCH  20  21
ENDBRANCH   6  20
TORSDOF 7
ENDMDL
MODEL 2
REMARK VINA RESULT: -7.520038378      2.280      2.645
REMARK  7 active torsions:
REMARK  status: ('A' for Active; 'I' for Inactive)
REMARK    1  A    between atoms: C2_2  and  O1_3 
REMARK    2  A    between atoms: O1_3  and  C3_4 
REMARK       I    between atoms: C3_4  and  N1_6 
REMARK    3  A    between atoms: N1_6  and  C4_8 
REMARK    4  A    between atoms: C6_10  and  C7_11 
REMARK    5  A    between atoms: C8_16  and  S1_17 
REMARK    6  A    between atoms: S1_17  and  C9_18 
REMARK    7  A    between atoms: N5_20  and  C10_22 
ROOT
HETATM    1  C7  UNL     1      24.892   0.887  18.164  1.00  0.00     0.175 A 
HETATM    2  N2  UNL     1      24.264   0.261  17.157  1.00  0.00    -0.277 N 
ATOM      3  H2  UNL     1      23.278   0.001  17.160  1.00  0.00     0.189 HD
HETATM    4  N3  UNL     1      25.095   0.028  16.166  1.00  0.00    -0.272 N 
ATOM      5  H3  UNL     1      24.884  -0.432  15.280  1.00  0.00     0.189 HD
HETATM    6  C8  UNL     1      26.280   0.522  16.561  1.00  0.00     0.211 A 
HETATM    7  O3  UNL     1      26.121   1.029  17.759  1.00  0.00    -0.267 OA
ENDROOT
BRANCH   1   8
HETATM    8  C6  UNL     1      24.300   1.324  19.463  1.00  0.00     0.026 A 
HETATM    9  C5  UNL     1      23.566   2.451  19.601  1.00  0.00     0.053 A 
HETATM   10  C4  UNL     1      23.085   2.729  20.845  1.00  0.00     0.079 A 
HETATM   11  S2  UNL     1      23.656   1.431  21.788  1.00  0.00    -0.083 SA
HETATM   12  C12 UNL     1      24.492   0.566  20.586  1.00  0.00     0.067 A 
BRANCH  10  13
HETATM   13  N1  UNL     1      22.280   3.867  21.241  1.00  0.00    -0.297 N 
HETATM   14  C3  UNL     1      22.863   4.958  21.880  1.00  0.00     0.365 C 
HETATM   15  O2  UNL     1      24.089   4.966  22.117  1.00  0.00    -0.238 OA
ATOM     16  H1  UNL     1      21.278   3.869  21.051  1.00  0.00     0.171 HD
BRANCH  14  17
HETATM   17  O1  UNL     1      22.090   6.034  22.253  1.00  0.00    -0.304 OA
BRANCH  17  18
HETATM   18  C2  UNL     1      22.291   7.338  21.747  1.00  0.00     0.176 C 
HETATM   19  C1  UNL     1      22.343   7.378  20.248  1.00  0.00     0.034 C 
ENDBRANCH  17  18
ENDBRANCH  14  17
ENDBRANCH  10  13
ENDBRANCH   1   8
BRANCH   6  20
HETATM   20  S1  UNL     1      27.759   0.460  15.567  1.00  0.00    -0.012 SA
BRANCH  20  21
HETATM   21  C9  UNL     1      28.829   1.812  15.998  1.00  0.00     0.159 C 
HETATM   22  N4  UNL     1      29.668   1.691  17.129  1.00  0.00    -0.075 NA
HETATM   23  N5  UNL     1      28.846   2.885  15.299  1.00  0.00    -0.356 N 
ATOM     24  H5  UNL     1      29.480   3.627  15.594  1.00  0.00     0.162 HD
BRANCH  23  25
HETATM   25  C10 UNL     1      28.049   3.128  14.139  1.00  0.00     0.176 C 
HETATM   26  C11 UNL     1      27.791   4.632  14.066  1.00  0.00     0.049 C 
HETATM   27 CL1  UNL     1      28.888   2.557  12.687  1.00  0.00    -0.103 Cl
ENDBRANCH  23  25
ENDBRANCH  20  21
ENDBRANCH   6  20
TORSDOF 7
ENDMDL
MODEL 3
REMARK VINA RESULT: -7.511355608      1.649      1.674
REMARK  7 active torsions:
REMARK  status: ('A' for Active; 'I' for Inactive)
REMARK    1  A    between atoms: C2_2  and  O1_3 
REMARK    2  A    between atoms: O1_3  and  C3_4 
REMARK       I    between atoms: C3_4  and  N1_6 
REMARK    3  A    between atoms: N1_6  and  C4_8 
REMARK    4  A    between atoms: C6_10  and  C7_11 
REMARK    5  A    between atoms: C8_16  and  S1_17 
REMARK    6  A    between atoms: S1_17  and  C9_18 
REMARK    7  A    between atoms: N5_20  and  C10_22 
ROOT
HETATM    1  C7  UNL     1      24.804   2.201  19.149  1.00  0.00     0.175 A 
HETATM    2  N2  UNL     1      24.071   1.509  18.264  1.00  0.00    -0.277 N 
ATOM      3  H2  UNL     1      23.070   1.637  18.113  1.00  0.00     0.189 HD
HETATM    4  N3  UNL     1      24.820   0.644  17.617  1.00  0.00    -0.272 N 
ATOM      5  H3  UNL     1      24.522  -0.007  16.891  1.00  0.00     0.189 HD
HETATM    6  C8  UNL     1      26.060   0.797  18.111  1.00  0.00     0.211 A 
HETATM    7  O3  UNL     1      26.013   1.736  19.024  1.00  0.00    -0.267 OA
ENDROOT
BRANCH   1   8
HETATM    8  C6  UNL     1      24.326   3.273  20.073  1.00  0.00     0.026 A 
HETATM    9  C5  UNL     1      23.360   4.159  19.744  1.00  0.00     0.053 A 
HETATM   10  C4  UNL     1      23.021   5.084  20.685  1.00  0.00     0.079 A 
HETATM   11  S2  UNL     1      24.041   4.707  21.995  1.00  0.00    -0.083 SA
HETATM   12  C12 UNL     1      24.875   3.386  21.322  1.00  0.00     0.067 A 
BRANCH  10  13
HETATM   13  N1  UNL     1      22.024   6.129  20.570  1.00  0.00    -0.297 N 
HETATM   14  C3  UNL     1      22.302   7.299  19.869  1.00  0.00     0.365 C 
HETATM   15  O2  UNL     1      23.417   7.458  19.330  1.00  0.00    -0.238 OA
ATOM     16  H1  UNL     1      21.110   6.006  21.007  1.00  0.00     0.171 HD
BRANCH  14  17
HETATM   17  O1  UNL     1      21.348   8.286  19.766  1.00  0.00    -0.304 OA
BRANCH  17  18
HETATM   18  C2  UNL     1      21.041   8.935  18.549  1.00  0.00     0.176 C 
HETATM   19  C1  UNL     1      19.754   9.702  18.607  1.00  0.00     0.034 C 
ENDBRANCH  17  18
ENDBRANCH  14  17
ENDBRANCH  10  13
ENDBRANCH   1   8
BRANCH   6  20
HETATM   20  S1  UNL     1      27.467  -0.152  17.563  1.00  0.00    -0.012 SA
BRANCH  20  21
HETATM   21  C9  UNL     1      28.428   0.807  16.416  1.00  0.00     0.159 C 
HETATM   22  N4  UNL     1      29.554   1.518  16.889  1.00  0.00    -0.075 NA
HETATM   23  N5  UNL     1      28.111   0.859  15.176  1.00  0.00    -0.356 N 
ATOM     24  H5  UNL     1      28.699   1.425  14.565  1.00  0.00     0.162 HD
BRANCH  23  25
HETATM   25  C10 UNL     1      27.000   0.188  14.579  1.00  0.00     0.176 C 
HETATM   26  C11 UNL     1      26.578   1.001  13.356  1.00  0.00     0.049 C 
HETATM   27 CL1  UNL     1      27.455  -1.461  14.119  1.00  0.00    -0.103 Cl
ENDBRANCH  23  25
ENDBRANCH  20  21
ENDBRANCH   6  20
TORSDOF 7
ENDMDL
MODEL 4
REMARK VINA RESULT: -7.393172741      3.305      3.662
REMARK  7 active torsions:
REMARK  status: ('A' for Active; 'I' for Inactive)
REMARK    1  A    between atoms: C2_2  and  O1_3 
REMARK    2  A    between atoms: O1_3  and  C3_4 
REMARK       I    between atoms: C3_4  and  N1_6 
REMARK    3  A    between atoms: N1_6  and  C4_8 
REMARK    4  A    between atoms: C6_10  and  C7_11 
REMARK    5  A    between atoms: C8_16  and  S1_17 
REMARK    6  A    between atoms: S1_17  and  C9_18 
REMARK    7  A    between atoms: N5_20  and  C10_22 
ROOT
HETATM    1  C7  UNL     1      25.037   0.698  18.354  1.00  0.00     0.175 A 
HETATM    2  N2  UNL     1      24.292   0.322  17.303  1.00  0.00    -0.277 N 
ATOM      3  H2  UNL     1      23.288   0.149  17.336  1.00  0.00     0.189 HD
HETATM    4  N3  UNL     1      25.036   0.207  16.226  1.00  0.00    -0.272 N 
ATOM      5  H3  UNL     1      24.729  -0.064  15.291  1.00  0.00     0.189 HD
HETATM    6  C8  UNL     1      26.285   0.519  16.610  1.00  0.00     0.211 A 
HETATM    7  O3  UNL     1      26.247   0.809  17.888  1.00  0.00    -0.267 OA
ENDROOT
BRANCH   1   8
HETATM    8  C6  UNL     1      24.569   0.937  19.752  1.00  0.00     0.026 A 
HETATM    9  C5  UNL     1      23.729   1.941  20.090  1.00  0.00     0.053 A 
HETATM   10  C4  UNL     1      23.382   2.042  21.404  1.00  0.00     0.079 A 
HETATM   11  S2  UNL     1      24.221   0.753  22.134  1.00  0.00    -0.083 SA
HETATM   12  C12 UNL     1      24.993   0.115  20.760  1.00  0.00     0.067 A 
BRANCH  10  13
HETATM   13  N1  UNL     1      22.505   3.025  22.007  1.00  0.00    -0.297 N 
HETATM   14  C3  UNL     1      21.141   2.777  22.130  1.00  0.00     0.365 C 
HETATM   15  O2  UNL     1      20.659   1.701  21.719  1.00  0.00    -0.238 OA
ATOM     16  H1  UNL     1      22.891   3.907  22.346  1.00  0.00     0.171 HD
BRANCH  14  17
HETATM   17  O1  UNL     1      20.317   3.717  22.705  1.00  0.00    -0.304 OA
BRANCH  17  18
HETATM   18  C2  UNL     1      20.745   4.592  23.729  1.00  0.00     0.176 C 
HETATM   19  C1  UNL     1      20.780   6.026  23.291  1.00  0.00     0.034 C 
ENDBRANCH  17  18
ENDBRANCH  14  17
ENDBRANCH  10  13
ENDBRANCH   1   8
BRANCH   6  20
HETATM   20  S1  UNL     1      27.688   0.518  15.510  1.00  0.00    -0.012 SA
BRANCH  20  21
HETATM   21  C9  UNL     1      28.796   1.836  15.949  1.00  0.00     0.159 C 
HETATM   22  N4  UNL     1      29.638   1.681  17.074  1.00  0.00    -0.075 NA
HETATM   23  N5  UNL     1      28.837   2.916  15.262  1.00  0.00    -0.356 N 
ATOM     24  H5  UNL     1      29.492   3.638  15.561  1.00  0.00     0.162 HD
BRANCH  23  25
HETATM   25  C10 UNL     1      28.039   3.193  14.110  1.00  0.00     0.176 C 
HETATM   26  C11 UNL     1      27.820   4.704  14.055  1.00  0.00     0.049 C 
HETATM   27 CL1  UNL     1      28.855   2.616  12.646  1.00  0.00    -0.103 Cl
ENDBRANCH  23  25
ENDBRANCH  20  21
ENDBRANCH   6  20
TORSDOF 7
ENDMDL
MODEL 5
REMARK VINA RESULT: -7.338978330      1.988      2.328
REMARK  7 active torsions:
REMARK  status: ('A' for Active; 'I' for Inactive)
REMARK    1  A    between atoms: C2_2  and  O1_3 
REMARK    2  A    between atoms: O1_3  and  C3_4 
REMARK       I    between atoms: C3_4  and  N1_6 
REMARK    3  A    between atoms: N1_6  and  C4_8 
REMARK    4  A    between atoms: C6_10  and  C7_11 
REMARK    5  A    between atoms: C8_16  and  S1_17 
REMARK    6  A    between atoms: S1_17  and  C9_18 
REMARK    7  A    between atoms: N5_20  and  C10_22 
ROOT
HETATM    1  C7  UNL     1      23.913   2.694  19.403  1.00  0.00     0.175 A 
HETATM    2  N2  UNL     1      23.069   2.208  18.481  1.00  0.00    -0.277 N 
ATOM      3  H2  UNL     1      22.130   2.566  18.307  1.00  0.00     0.189 HD
HETATM    4  N3  UNL     1      23.619   1.206  17.831  1.00  0.00    -0.272 N 
ATOM      5  H3  UNL     1      23.202   0.656  17.081  1.00  0.00     0.189 HD
HETATM    6  C8  UNL     1      24.844   1.058  18.361  1.00  0.00     0.211 A 
HETATM    7  O3  UNL     1      24.986   1.965  19.297  1.00  0.00    -0.267 OA
ENDROOT
BRANCH   1   8
HETATM    8  C6  UNL     1      23.666   3.828  20.343  1.00  0.00     0.026 A 
HETATM    9  C5  UNL     1      22.838   4.858  20.060  1.00  0.00     0.053 A 
HETATM   10  C4  UNL     1      22.704   5.826  21.009  1.00  0.00     0.079 A 
HETATM   11  S2  UNL     1      23.723   5.289  22.265  1.00  0.00    -0.083 SA
HETATM   12  C12 UNL     1      24.295   3.852  21.558  1.00  0.00     0.067 A 
BRANCH  10  13
HETATM   13  N1  UNL     1      21.884   7.018  20.940  1.00  0.00    -0.297 N 
HETATM   14  C3  UNL     1      21.924   7.842  19.819  1.00  0.00     0.365 C 
HETATM   15  O2  UNL     1      22.670   7.559  18.859  1.00  0.00    -0.238 OA
ATOM     16  H1  UNL     1      21.271   7.255  21.720  1.00  0.00     0.171 HD
BRANCH  14  17
HETATM   17  O1  UNL     1      21.140   8.972  19.764  1.00  0.00    -0.304 OA
BRANCH  17  18
HETATM   18  C2  UNL     1      20.232   9.227  18.711  1.00  0.00     0.176 C 
HETATM   19  C1  UNL     1      20.913   9.684  17.455  1.00  0.00     0.034 C 
ENDBRANCH  17  18
ENDBRANCH  14  17
ENDBRANCH  10  13
ENDBRANCH   1   8
BRANCH   6  20
HETATM   20  S1  UNL     1      26.011  -0.179  17.825  1.00  0.00    -0.012 SA
BRANCH  20  21
HETATM   21  C9  UNL     1      26.162  -0.134  16.055  1.00  0.00     0.159 C 
HETATM   22  N4  UNL     1      25.429  -1.060  15.279  1.00  0.00    -0.075 NA
HETATM   23  N5  UNL     1      26.923   0.722  15.482  1.00  0.00    -0.356 N 
ATOM     24  H5  UNL     1      26.970   0.700  14.463  1.00  0.00     0.162 HD
BRANCH  23  25
HETATM   25  C10 UNL     1      27.713   1.705  16.153  1.00  0.00     0.176 C 
HETATM   26  C11 UNL     1      29.078   1.081  16.437  1.00  0.00     0.049 C 
HETATM   27 CL1  UNL     1      27.874   3.154  15.145  1.00  0.00    -0.103 Cl
ENDBRANCH  23  25
ENDBRANCH  20  21
ENDBRANCH   6  20
TORSDOF 7
ENDMDL
