MODEL 1
REMARK VINA RESULT: -10.048274910      0.000      0.000
REMARK  14 active torsions:
REMARK  status: ('A' for Active; 'I' for Inactive)
REMARK       I    between atoms: C2_2  and  N1_4 
REMARK    1  A    between atoms: N1_4  and  C3_6 
REMARK    2  A    between atoms: C3_6  and  C4_7 
REMARK    3  A    between atoms: C3_6  and  C29_45 
REMARK    4  A    between atoms: C4_7  and  C5_9 
REMARK    5  A    between atoms: N2_10  and  C6_11 
REMARK    6  A    between atoms: C6_11  and  O3_12 
REMARK    7  A    between atoms: C6_11  and  C7_14 
REMARK    8  A    between atoms: C7_14  and  N3_15 
REMARK    9  A    between atoms: C7_14  and  C21_36 
REMARK       I    between atoms: N3_15  and  C8_17 
REMARK       I    between atoms: C8_17  and  N4_19 
REMARK   10  A    between atoms: N4_19  and  C9_21 
REMARK   11  A    between atoms: C9_21  and  C10_22 
REMARK   12  A    between atoms: C9_21  and  C18_33 
REMARK   13  A    between atoms: C10_22  and  O5_23 
REMARK   14  A    between atoms: C10_22  and  N5_25 
ROOT
HETATM    1  C7  UNL     1     -16.756  19.443  -7.118  1.00  0.00     0.168 C 
ENDROOT
BRANCH   1   2
HETATM    2  C6  UNL     1     -15.404  19.717  -6.601  1.00  0.00     0.138 C 
BRANCH   2   3
HETATM    3  N2  UNL     1     -14.478  20.635  -7.065  1.00  0.00    -0.350 N 
HETATM    4  C5  UNL     1     -14.489  22.152  -6.932  1.00  0.00     0.172 C 
HETATM    5  C26 UNL     1     -13.634  22.154  -8.083  1.00  0.00     0.046 C 
HETATM    6  C25 UNL     1     -13.234  20.732  -7.815  1.00  0.00     0.142 C 
HETATM    7  C27 UNL     1     -14.314  22.341  -9.447  1.00  0.00     0.183 C 
HETATM    8  C28 UNL     1     -12.692  23.155  -8.516  1.00  0.00     0.183 C 
HETATM    9  O6  UNL     1     -13.119  22.955  -9.852  1.00  0.00    -0.389 OA
BRANCH   4  10
HETATM   10  C4  UNL     1     -14.251  22.548  -5.570  1.00  0.00     0.173 C 
HETATM   11  O2  UNL     1     -13.244  22.071  -4.990  1.00  0.00    -0.293 OA
BRANCH  10  12
HETATM   12  C3  UNL     1     -15.052  23.451  -4.728  1.00  0.00     0.159 C 
BRANCH  12  13
HETATM   13  N1  UNL     1     -16.017  22.617  -3.939  1.00  0.00    -0.350 N 
HETATM   14  C2  UNL     1     -17.375  22.572  -4.321  1.00  0.00     0.214 C 
HETATM   15  C1  UNL     1     -18.387  21.780  -3.602  1.00  0.00     0.117 C 
HETATM   16  O1  UNL     1     -17.777  23.237  -5.332  1.00  0.00    -0.274 OA
ATOM     17  H1  UNL     1     -15.694  22.086  -3.131  1.00  0.00     0.163 HD
ENDBRANCH  12  13
BRANCH  12  18
HETATM   18  C29 UNL     1     -14.139  24.056  -3.659  1.00  0.00     0.007 C 
HETATM   19  C30 UNL     1     -13.732  25.437  -3.890  1.00  0.00     0.012 C 
HETATM   20  C31 UNL     1     -14.724  23.810  -2.278  1.00  0.00     0.012 C 
ENDBRANCH  12  18
ENDBRANCH  10  12
ENDBRANCH   4  10
ENDBRANCH   2   3
BRANCH   2  21
HETATM   21  O3  UNL     1     -15.089  18.979  -5.565  1.00  0.00    -0.348 OA
ATOM     22  H3  UNL     1     -15.243  18.042  -5.611  1.00  0.00     0.219 HD
ENDBRANCH   2  21
ENDBRANCH   1   2
BRANCH   1  23
HETATM   23  N3  UNL     1     -17.361  18.490  -6.152  1.00  0.00    -0.330 N 
HETATM   24  C8  UNL     1     -18.665  18.645  -5.630  1.00  0.00     0.317 C 
HETATM   25  O4  UNL     1     -19.364  19.606  -5.967  1.00  0.00    -0.247 OA
HETATM   26  N4  UNL     1     -19.150  17.689  -4.717  1.00  0.00    -0.331 N 
ATOM     27  H4  UNL     1     -18.559  16.898  -4.464  1.00  0.00     0.165 HD
ATOM     28  H3  UNL     1     -16.809  17.686  -5.852  1.00  0.00     0.165 HD
BRANCH  26  29
HETATM   29  C9  UNL     1     -20.518  17.807  -4.107  1.00  0.00     0.164 C 
BRANCH  29  30
HETATM   30  C10 UNL     1     -21.244  16.642  -4.625  1.00  0.00     0.138 C 
BRANCH  30  31
HETATM   31  O5  UNL     1     -20.843  15.519  -4.079  1.00  0.00    -0.348 OA
ATOM     32  H5  UNL     1     -20.503  14.906  -4.719  1.00  0.00     0.219 HD
ENDBRANCH  30  31
BRANCH  30  33
HETATM   33  N5  UNL     1     -22.253  16.566  -5.582  1.00  0.00    -0.354 N 
HETATM   34  C11 UNL     1     -23.701  16.646  -5.238  1.00  0.00     0.130 C 
HETATM   35  C12 UNL     1     -24.130  15.584  -6.197  1.00  0.00     0.010 A 
HETATM   36  C13 UNL     1     -24.691  15.553  -7.475  1.00  0.00     0.014 A 
HETATM   37  C14 UNL     1     -23.591  16.415  -7.422  1.00  0.00     0.019 A 
HETATM   38  C15 UNL     1     -22.168  16.323  -6.985  1.00  0.00     0.031 C 
HETATM   39  C16 UNL     1     -21.402  17.341  -7.792  1.00  0.00     0.038 C 
HETATM   40  C17 UNL     1     -21.562  14.962  -7.293  1.00  0.00     0.038 C 
ENDBRANCH  30  33
ENDBRANCH  29  30
BRANCH  29  41
HETATM   41  C18 UNL     1     -20.258  17.743  -2.603  1.00  0.00     0.008 C 
HETATM   42  C19 UNL     1     -21.410  18.193  -1.767  1.00  0.00     0.012 C 
HETATM   43  C20 UNL     1     -18.959  18.305  -2.191  1.00  0.00     0.012 C 
ENDBRANCH  29  41
ENDBRANCH  26  29
ENDBRANCH   1  23
BRANCH   1  44
HETATM   44  C21 UNL     1     -16.789  18.828  -8.474  1.00  0.00    -0.023 C 
HETATM   45  C22 UNL     1     -16.259  17.386  -8.428  1.00  0.00     0.017 C 
HETATM   46  C23 UNL     1     -16.032  19.560  -9.535  1.00  0.00     0.017 C 
HETATM   47  C24 UNL     1     -18.215  18.694  -8.967  1.00  0.00     0.017 C 
ENDBRANCH   1  44
TORSDOF 14
ENDMDL
MODEL 2
REMARK VINA RESULT: -9.827513435      0.846      1.412
REMARK  14 active torsions:
REMARK  status: ('A' for Active; 'I' for Inactive)
REMARK       I    between atoms: C2_2  and  N1_4 
REMARK    1  A    between atoms: N1_4  and  C3_6 
REMARK    2  A    between atoms: C3_6  and  C4_7 
REMARK    3  A    between atoms: C3_6  and  C29_45 
REMARK    4  A    between atoms: C4_7  and  C5_9 
REMARK    5  A    between atoms: N2_10  and  C6_11 
REMARK    6  A    between atoms: C6_11  and  O3_12 
REMARK    7  A    between atoms: C6_11  and  C7_14 
REMARK    8  A    between atoms: C7_14  and  N3_15 
REMARK    9  A    between atoms: C7_14  and  C21_36 
REMARK       I    between atoms: N3_15  and  C8_17 
REMARK       I    between atoms: C8_17  and  N4_19 
REMARK   10  A    between atoms: N4_19  and  C9_21 
REMARK   11  A    between atoms: C9_21  and  C10_22 
REMARK   12  A    between atoms: C9_21  and  C18_33 
REMARK   13  A    between atoms: C10_22  and  O5_23 
REMARK   14  A    between atoms: C10_22  and  N5_25 
ROOT
HETATM    1  C7  UNL     1     -16.793  19.578  -7.255  1.00  0.00     0.168 C 
ENDROOT
BRANCH   1   2
HETATM    2  C6  UNL     1     -15.456  19.790  -6.672  1.00  0.00     0.138 C 
BRANCH   2   3
HETATM    3  N2  UNL     1     -14.472  20.673  -7.082  1.00  0.00    -0.350 N 
HETATM    4  C5  UNL     1     -14.408  22.183  -6.897  1.00  0.00     0.172 C 
HETATM    5  C26 UNL     1     -13.524  22.178  -8.026  1.00  0.00     0.046 C 
HETATM    6  C25 UNL     1     -13.205  20.729  -7.796  1.00  0.00     0.142 C 
HETATM    7  C27 UNL     1     -14.158  22.445  -9.399  1.00  0.00     0.183 C 
HETATM    8  C28 UNL     1     -12.520  23.142  -8.401  1.00  0.00     0.183 C 
HETATM    9  O6  UNL     1     -12.922  23.008  -9.753  1.00  0.00    -0.389 OA
BRANCH   4  10
HETATM   10  C4  UNL     1     -14.186  22.521  -5.517  1.00  0.00     0.173 C 
HETATM   11  O2  UNL     1     -13.250  21.937  -4.915  1.00  0.00    -0.293 OA
BRANCH  10  12
HETATM   12  C3  UNL     1     -14.931  23.474  -4.679  1.00  0.00     0.159 C 
BRANCH  12  13
HETATM   13  N1  UNL     1     -15.869  22.693  -3.807  1.00  0.00    -0.350 N 
HETATM   14  C2  UNL     1     -17.238  22.624  -4.142  1.00  0.00     0.214 C 
HETATM   15  C1  UNL     1     -18.225  21.880  -3.342  1.00  0.00     0.117 C 
HETATM   16  O1  UNL     1     -17.673  23.223  -5.181  1.00  0.00    -0.274 OA
ATOM     17  H1  UNL     1     -15.520  22.215  -2.977  1.00  0.00     0.163 HD
ENDBRANCH  12  13
BRANCH  12  18
HETATM   18  C29 UNL     1     -13.958  24.110  -3.683  1.00  0.00     0.007 C 
HETATM   19  C30 UNL     1     -13.425  25.411  -4.070  1.00  0.00     0.012 C 
HETATM   20  C31 UNL     1     -14.552  24.079  -2.285  1.00  0.00     0.012 C 
ENDBRANCH  12  18
ENDBRANCH  10  12
ENDBRANCH   4  10
ENDBRANCH   2   3
BRANCH   2  21
HETATM   21  O3  UNL     1     -15.221  19.029  -5.631  1.00  0.00    -0.348 OA
ATOM     22  H3  UNL     1     -15.424  18.102  -5.691  1.00  0.00     0.219 HD
ENDBRANCH   2  21
ENDBRANCH   1   2
BRANCH   1  23
HETATM   23  N3  UNL     1     -17.519  18.730  -6.274  1.00  0.00    -0.330 N 
HETATM   24  C8  UNL     1     -18.756  19.104  -5.699  1.00  0.00     0.317 C 
HETATM   25  O4  UNL     1     -19.286  20.178  -5.999  1.00  0.00    -0.247 OA
HETATM   26  N4  UNL     1     -19.367  18.233  -4.777  1.00  0.00    -0.331 N 
ATOM     27  H4  UNL     1     -18.915  17.346  -4.555  1.00  0.00     0.165 HD
ATOM     28  H3  UNL     1     -17.107  17.838  -6.004  1.00  0.00     0.165 HD
BRANCH  26  29
HETATM   29  C9  UNL     1     -20.669  18.579  -4.113  1.00  0.00     0.164 C 
BRANCH  29  30
HETATM   30  C10 UNL     1     -21.678  17.872  -4.909  1.00  0.00     0.138 C 
BRANCH  30  31
HETATM   31  O5  UNL     1     -22.898  18.269  -4.637  1.00  0.00    -0.348 OA
ATOM     32  H5  UNL     1     -22.965  18.673  -3.780  1.00  0.00     0.219 HD
ENDBRANCH  30  31
BRANCH  30  33
HETATM   33  N5  UNL     1     -21.526  16.874  -5.869  1.00  0.00    -0.354 N 
HETATM   34  C11 UNL     1     -20.707  15.651  -5.641  1.00  0.00     0.130 C 
HETATM   35  C12 UNL     1     -20.112  15.626  -7.011  1.00  0.00     0.010 A 
HETATM   36  C13 UNL     1     -20.360  14.936  -8.200  1.00  0.00     0.014 A 
HETATM   37  C14 UNL     1     -21.536  15.477  -7.670  1.00  0.00     0.019 A 
HETATM   38  C15 UNL     1     -21.996  16.821  -7.215  1.00  0.00     0.031 C 
HETATM   39  C16 UNL     1     -23.492  16.850  -7.400  1.00  0.00     0.038 C 
HETATM   40  C17 UNL     1     -21.418  17.942  -8.066  1.00  0.00     0.038 C 
ENDBRANCH  30  33
ENDBRANCH  29  30
BRANCH  29  41
HETATM   41  C18 UNL     1     -20.516  18.030  -2.695  1.00  0.00     0.008 C 
HETATM   42  C19 UNL     1     -21.689  18.294  -1.810  1.00  0.00     0.012 C 
HETATM   43  C20 UNL     1     -19.214  18.322  -2.071  1.00  0.00     0.012 C 
ENDBRANCH  29  41
ENDBRANCH  26  29
ENDBRANCH   1  23
BRANCH   1  44
HETATM   44  C21 UNL     1     -16.792  18.884  -8.572  1.00  0.00    -0.023 C 
HETATM   45  C22 UNL     1     -16.229  17.461  -8.435  1.00  0.00     0.017 C 
HETATM   46  C23 UNL     1     -16.038  19.571  -9.665  1.00  0.00     0.017 C 
HETATM   47  C24 UNL     1     -18.208  18.687  -9.075  1.00  0.00     0.017 C 
ENDBRANCH   1  44
TORSDOF 14
ENDMDL
MODEL 3
REMARK VINA RESULT: -9.699478937      1.145      2.180
REMARK  14 active torsions:
REMARK  status: ('A' for Active; 'I' for Inactive)
REMARK       I    between atoms: C2_2  and  N1_4 
REMARK    1  A    between atoms: N1_4  and  C3_6 
REMARK    2  A    between atoms: C3_6  and  C4_7 
REMARK    3  A    between atoms: C3_6  and  C29_45 
REMARK    4  A    between atoms: C4_7  and  C5_9 
REMARK    5  A    between atoms: N2_10  and  C6_11 
REMARK    6  A    between atoms: C6_11  and  O3_12 
REMARK    7  A    between atoms: C6_11  and  C7_14 
REMARK    8  A    between atoms: C7_14  and  N3_15 
REMARK    9  A    between atoms: C7_14  and  C21_36 
REMARK       I    between atoms: N3_15  and  C8_17 
REMARK       I    between atoms: C8_17  and  N4_19 
REMARK   10  A    between atoms: N4_19  and  C9_21 
REMARK   11  A    between atoms: C9_21  and  C10_22 
REMARK   12  A    between atoms: C9_21  and  C18_33 
REMARK   13  A    between atoms: C10_22  and  O5_23 
REMARK   14  A    between atoms: C10_22  and  N5_25 
ROOT
HETATM    1  C7  UNL     1     -16.786  19.404  -6.985  1.00  0.00     0.168 C 
ENDROOT
BRANCH   1   2
HETATM    2  C6  UNL     1     -15.435  19.516  -6.407  1.00  0.00     0.138 C 
BRANCH   2   3
HETATM    3  N2  UNL     1     -14.402  20.350  -6.798  1.00  0.00    -0.350 N 
HETATM    4  C5  UNL     1     -14.153  21.803  -6.418  1.00  0.00     0.172 C 
HETATM    5  C26 UNL     1     -13.385  21.878  -7.627  1.00  0.00     0.046 C 
HETATM    6  C25 UNL     1     -13.210  20.387  -7.633  1.00  0.00     0.142 C 
HETATM    7  C27 UNL     1     -14.112  22.404  -8.873  1.00  0.00     0.183 C 
HETATM    8  C28 UNL     1     -12.320  22.785  -7.974  1.00  0.00     0.183 C 
HETATM    9  O6  UNL     1     -12.860  22.890  -9.280  1.00  0.00    -0.389 OA
BRANCH   4  10
HETATM   10  C4  UNL     1     -13.765  21.912  -5.037  1.00  0.00     0.173 C 
HETATM   11  O2  UNL     1     -13.476  20.853  -4.425  1.00  0.00    -0.293 OA
BRANCH  10  12
HETATM   12  C3  UNL     1     -13.668  23.124  -4.208  1.00  0.00     0.159 C 
BRANCH  12  13
HETATM   13  N1  UNL     1     -12.934  24.168  -4.995  1.00  0.00    -0.350 N 
HETATM   14  C2  UNL     1     -11.698  24.659  -4.521  1.00  0.00     0.214 C 
HETATM   15  C1  UNL     1     -10.913  25.682  -5.231  1.00  0.00     0.117 C 
HETATM   16  O1  UNL     1     -11.210  24.214  -3.429  1.00  0.00    -0.274 OA
ATOM     17  H1  UNL     1     -13.325  24.522  -5.868  1.00  0.00     0.163 HD
ENDBRANCH  12  13
BRANCH  12  18
HETATM   18  C29 UNL     1     -15.071  23.714  -4.044  1.00  0.00     0.007 C 
HETATM   19  C30 UNL     1     -16.102  22.775  -3.622  1.00  0.00     0.012 C 
HETATM   20  C31 UNL     1     -15.006  24.977  -3.201  1.00  0.00     0.012 C 
ENDBRANCH  12  18
ENDBRANCH  10  12
ENDBRANCH   4  10
ENDBRANCH   2   3
BRANCH   2  21
HETATM   21  O3  UNL     1     -15.240  18.710  -5.392  1.00  0.00    -0.348 OA
ATOM     22  H3  UNL     1     -15.345  17.776  -5.528  1.00  0.00     0.219 HD
ENDBRANCH   2  21
ENDBRANCH   1   2
BRANCH   1  23
HETATM   23  N3  UNL     1     -17.508  18.442  -6.113  1.00  0.00    -0.330 N 
HETATM   24  C8  UNL     1     -18.785  18.707  -5.566  1.00  0.00     0.317 C 
HETATM   25  O4  UNL     1     -19.356  19.776  -5.800  1.00  0.00    -0.247 OA
HETATM   26  N4  UNL     1     -19.388  17.733  -4.748  1.00  0.00    -0.331 N 
ATOM     27  H4  UNL     1     -18.901  16.853  -4.579  1.00  0.00     0.165 HD
ATOM     28  H3  UNL     1     -17.062  17.551  -5.898  1.00  0.00     0.165 HD
BRANCH  26  29
HETATM   29  C9  UNL     1     -20.733  17.959  -4.117  1.00  0.00     0.164 C 
BRANCH  29  30
HETATM   30  C10 UNL     1     -21.572  16.887  -4.663  1.00  0.00     0.138 C 
BRANCH  30  31
HETATM   31  O5  UNL     1     -21.265  15.711  -4.169  1.00  0.00    -0.348 OA
ATOM     32  H5  UNL     1     -20.837  15.151  -4.805  1.00  0.00     0.219 HD
ENDBRANCH  30  31
BRANCH  30  33
HETATM   33  N5  UNL     1     -22.601  16.941  -5.600  1.00  0.00    -0.354 N 
HETATM   34  C11 UNL     1     -23.999  17.311  -5.244  1.00  0.00     0.130 C 
HETATM   35  C12 UNL     1     -24.641  16.289  -6.125  1.00  0.00     0.010 A 
HETATM   36  C13 UNL     1     -25.229  16.283  -7.392  1.00  0.00     0.014 A 
HETATM   37  C14 UNL     1     -23.988  16.928  -7.410  1.00  0.00     0.019 A 
HETATM   38  C15 UNL     1     -22.596  16.599  -6.985  1.00  0.00     0.031 C 
HETATM   39  C16 UNL     1     -21.676  17.405  -7.866  1.00  0.00     0.038 C 
HETATM   40  C17 UNL     1     -22.261  15.132  -7.211  1.00  0.00     0.038 C 
ENDBRANCH  30  33
ENDBRANCH  29  30
BRANCH  29  41
HETATM   41  C18 UNL     1     -20.465  17.821  -2.620  1.00  0.00     0.008 C 
HETATM   42  C19 UNL     1     -21.626  18.193  -1.757  1.00  0.00     0.012 C 
HETATM   43  C20 UNL     1     -19.181  18.394  -2.180  1.00  0.00     0.012 C 
ENDBRANCH  29  41
ENDBRANCH  26  29
ENDBRANCH   1  23
BRANCH   1  44
HETATM   44  C21 UNL     1     -16.822  18.893  -8.384  1.00  0.00    -0.023 C 
HETATM   45  C22 UNL     1     -16.205  17.488  -8.464  1.00  0.00     0.017 C 
HETATM   46  C23 UNL     1     -16.142  19.750  -9.403  1.00  0.00     0.017 C 
HETATM   47  C24 UNL     1     -18.251  18.709  -8.850  1.00  0.00     0.017 C 
ENDBRANCH   1  44
TORSDOF 14
ENDMDL
MODEL 4
REMARK VINA RESULT: -9.602036213      1.449      2.538
REMARK  14 active torsions:
REMARK  status: ('A' for Active; 'I' for Inactive)
REMARK       I    between atoms: C2_2  and  N1_4 
REMARK    1  A    between atoms: N1_4  and  C3_6 
REMARK    2  A    between atoms: C3_6  and  C4_7 
REMARK    3  A    between atoms: C3_6  and  C29_45 
REMARK    4  A    between atoms: C4_7  and  C5_9 
REMARK    5  A    between atoms: N2_10  and  C6_11 
REMARK    6  A    between atoms: C6_11  and  O3_12 
REMARK    7  A    between atoms: C6_11  and  C7_14 
REMARK    8  A    between atoms: C7_14  and  N3_15 
REMARK    9  A    between atoms: C7_14  and  C21_36 
REMARK       I    between atoms: N3_15  and  C8_17 
REMARK       I    between atoms: C8_17  and  N4_19 
REMARK   10  A    between atoms: N4_19  and  C9_21 
REMARK   11  A    between atoms: C9_21  and  C10_22 
REMARK   12  A    between atoms: C9_21  and  C18_33 
REMARK   13  A    between atoms: C10_22  and  O5_23 
REMARK   14  A    between atoms: C10_22  and  N5_25 
ROOT
HETATM    1  C7  UNL     1     -16.750  19.528  -6.995  1.00  0.00     0.168 C 
ENDROOT
BRANCH   1   2
HETATM    2  C6  UNL     1     -15.418  19.511  -6.366  1.00  0.00     0.138 C 
BRANCH   2   3
HETATM    3  N2  UNL     1     -14.322  20.304  -6.659  1.00  0.00    -0.350 N 
HETATM    4  C5  UNL     1     -14.030  21.730  -6.213  1.00  0.00     0.172 C 
HETATM    5  C26 UNL     1     -13.179  21.804  -7.365  1.00  0.00     0.046 C 
HETATM    6  C25 UNL     1     -13.075  20.307  -7.410  1.00  0.00     0.142 C 
HETATM    7  C27 UNL     1     -13.793  22.404  -8.639  1.00  0.00     0.183 C 
HETATM    8  C28 UNL     1     -12.050  22.666  -7.610  1.00  0.00     0.183 C 
HETATM    9  O6  UNL     1     -12.494  22.839  -8.945  1.00  0.00    -0.389 OA
BRANCH   4  10
HETATM   10  C4  UNL     1     -13.732  21.777  -4.807  1.00  0.00     0.173 C 
HETATM   11  O2  UNL     1     -13.609  20.684  -4.198  1.00  0.00    -0.293 OA
BRANCH  10  12
HETATM   12  C3  UNL     1     -13.559  22.959  -3.949  1.00  0.00     0.159 C 
BRANCH  12  13
HETATM   13  N1  UNL     1     -12.998  24.067  -4.790  1.00  0.00    -0.350 N 
HETATM   14  C2  UNL     1     -11.773  24.667  -4.428  1.00  0.00     0.214 C 
HETATM   15  C1  UNL     1     -11.154  25.759  -5.197  1.00  0.00     0.117 C 
HETATM   16  O1  UNL     1     -11.148  24.268  -3.390  1.00  0.00    -0.274 OA
ATOM     17  H1  UNL     1     -13.499  24.385  -5.619  1.00  0.00     0.163 HD
ENDBRANCH  12  13
BRANCH  12  18
HETATM   18  C29 UNL     1     -14.942  23.475  -3.547  1.00  0.00     0.007 C 
HETATM   19  C30 UNL     1     -15.132  23.717  -2.121  1.00  0.00     0.012 C 
HETATM   20  C31 UNL     1     -15.334  24.650  -4.427  1.00  0.00     0.012 C 
ENDBRANCH  12  18
ENDBRANCH  10  12
ENDBRANCH   4  10
ENDBRANCH   2   3
BRANCH   2  21
HETATM   21  O3  UNL     1     -15.311  18.622  -5.409  1.00  0.00    -0.348 OA
ATOM     22  H3  UNL     1     -15.916  18.667  -4.678  1.00  0.00     0.219 HD
ENDBRANCH   2  21
ENDBRANCH   1   2
BRANCH   1  23
HETATM   23  N3  UNL     1     -17.598  18.654  -6.143  1.00  0.00    -0.330 N 
HETATM   24  C8  UNL     1     -18.787  19.102  -5.524  1.00  0.00     0.317 C 
HETATM   25  O4  UNL     1     -19.170  20.266  -5.671  1.00  0.00    -0.247 OA
HETATM   26  N4  UNL     1     -19.523  18.198  -4.733  1.00  0.00    -0.331 N 
ATOM     27  H4  UNL     1     -19.192  17.238  -4.636  1.00  0.00     0.165 HD
ATOM     28  H3  UNL     1     -17.308  17.687  -5.999  1.00  0.00     0.165 HD
BRANCH  26  29
HETATM   29  C9  UNL     1     -20.782  18.614  -4.028  1.00  0.00     0.164 C 
BRANCH  29  30
HETATM   30  C10 UNL     1     -21.851  17.944  -4.776  1.00  0.00     0.138 C 
BRANCH  30  31
HETATM   31  O5  UNL     1     -23.039  18.417  -4.485  1.00  0.00    -0.348 OA
ATOM     32  H5  UNL     1     -23.432  18.884  -5.213  1.00  0.00     0.219 HD
ENDBRANCH  30  31
BRANCH  30  33
HETATM   33  N5  UNL     1     -21.783  16.913  -5.710  1.00  0.00    -0.354 N 
HETATM   34  C11 UNL     1     -21.108  15.614  -5.432  1.00  0.00     0.130 C 
HETATM   35  C12 UNL     1     -20.482  15.491  -6.783  1.00  0.00     0.010 A 
HETATM   36  C13 UNL     1     -20.770  14.804  -7.964  1.00  0.00     0.014 A 
HETATM   37  C14 UNL     1     -21.895  15.481  -7.481  1.00  0.00     0.019 A 
HETATM   38  C15 UNL     1     -22.218  16.878  -7.068  1.00  0.00     0.031 C 
HETATM   39  C16 UNL     1     -23.696  17.064  -7.299  1.00  0.00     0.038 C 
HETATM   40  C17 UNL     1     -21.498  17.909  -7.925  1.00  0.00     0.038 C 
ENDBRANCH  30  33
ENDBRANCH  29  30
BRANCH  29  41
HETATM   41  C18 UNL     1     -20.604  18.079  -2.608  1.00  0.00     0.008 C 
HETATM   42  C19 UNL     1     -21.798  18.269  -1.732  1.00  0.00     0.012 C 
HETATM   43  C20 UNL     1     -19.327  18.455  -1.976  1.00  0.00     0.012 C 
ENDBRANCH  29  41
ENDBRANCH  26  29
ENDBRANCH   1  23
BRANCH   1  44
HETATM   44  C21 UNL     1     -16.785  19.008  -8.390  1.00  0.00    -0.023 C 
HETATM   45  C22 UNL     1     -16.202  17.588  -8.453  1.00  0.00     0.017 C 
HETATM   46  C23 UNL     1     -16.074  19.840  -9.408  1.00  0.00     0.017 C 
HETATM   47  C24 UNL     1     -18.214  18.855  -8.869  1.00  0.00     0.017 C 
ENDBRANCH   1  44
TORSDOF 14
ENDMDL
MODEL 5
REMARK VINA RESULT: -9.578492743      1.992      9.536
REMARK  14 active torsions:
REMARK  status: ('A' for Active; 'I' for Inactive)
REMARK       I    between atoms: C2_2  and  N1_4 
REMARK    1  A    between atoms: N1_4  and  C3_6 
REMARK    2  A    between atoms: C3_6  and  C4_7 
REMARK    3  A    between atoms: C3_6  and  C29_45 
REMARK    4  A    between atoms: C4_7  and  C5_9 
REMARK    5  A    between atoms: N2_10  and  C6_11 
REMARK    6  A    between atoms: C6_11  and  O3_12 
REMARK    7  A    between atoms: C6_11  and  C7_14 
REMARK    8  A    between atoms: C7_14  and  N3_15 
REMARK    9  A    between atoms: C7_14  and  C21_36 
REMARK       I    between atoms: N3_15  and  C8_17 
REMARK       I    between atoms: C8_17  and  N4_19 
REMARK   10  A    between atoms: N4_19  and  C9_21 
REMARK   11  A    between atoms: C9_21  and  C10_22 
REMARK   12  A    between atoms: C9_21  and  C18_33 
REMARK   13  A    between atoms: C10_22  and  O5_23 
REMARK   14  A    between atoms: C10_22  and  N5_25 
ROOT
HETATM    1  C7  UNL     1     -17.470  20.019  -4.784  1.00  0.00     0.168 C 
ENDROOT
BRANCH   1   2
HETATM    2  C6  UNL     1     -17.678  18.562  -4.852  1.00  0.00     0.138 C 
BRANCH   2   3
HETATM    3  N2  UNL     1     -18.824  17.876  -5.214  1.00  0.00    -0.350 N 
HETATM    4  C5  UNL     1     -19.933  18.307  -6.164  1.00  0.00     0.172 C 
HETATM    5  C26 UNL     1     -20.760  17.376  -5.453  1.00  0.00     0.046 C 
HETATM    6  C25 UNL     1     -19.547  16.636  -4.969  1.00  0.00     0.142 C 
HETATM    7  C27 UNL     1     -21.615  17.944  -4.311  1.00  0.00     0.183 C 
HETATM    8  C28 UNL     1     -21.955  16.699  -5.892  1.00  0.00     0.183 C 
HETATM    9  O6  UNL     1     -22.529  16.923  -4.616  1.00  0.00    -0.389 OA
BRANCH   4  10
HETATM   10  C4  UNL     1     -19.468  18.319  -7.525  1.00  0.00     0.173 C 
HETATM   11  O2  UNL     1     -19.899  19.224  -8.282  1.00  0.00    -0.293 OA
BRANCH  10  12
HETATM   12  C3  UNL     1     -18.539  17.386  -8.181  1.00  0.00     0.159 C 
BRANCH  12  13
HETATM   13  N1  UNL     1     -19.274  16.707  -9.298  1.00  0.00    -0.350 N 
HETATM   14  C2  UNL     1     -19.858  15.440  -9.081  1.00  0.00     0.214 C 
HETATM   15  C1  UNL     1     -20.595  14.706 -10.123  1.00  0.00     0.117 C 
HETATM   16  O1  UNL     1     -19.761  14.878  -7.940  1.00  0.00    -0.274 OA
ATOM     17  H1  UNL     1     -19.350  17.157 -10.209  1.00  0.00     0.163 HD
ENDBRANCH  12  13
BRANCH  12  18
HETATM   18  C29 UNL     1     -17.459  18.198  -8.899  1.00  0.00     0.007 C 
HETATM   19  C30 UNL     1     -16.153  18.217  -8.251  1.00  0.00     0.012 C 
HETATM   20  C31 UNL     1     -17.412  17.813 -10.368  1.00  0.00     0.012 C 
ENDBRANCH  12  18
ENDBRANCH  10  12
ENDBRANCH   4  10
ENDBRANCH   2   3
BRANCH   2  21
HETATM   21  O3  UNL     1     -16.612  17.873  -4.527  1.00  0.00    -0.348 OA
ATOM     22  H3  UNL     1     -16.694  16.932  -4.420  1.00  0.00     0.219 HD
ENDBRANCH   2  21
ENDBRANCH   1   2
BRANCH   1  23
HETATM   23  N3  UNL     1     -16.014  20.219  -5.007  1.00  0.00    -0.330 N 
HETATM   24  C8  UNL     1     -15.488  21.324  -5.714  1.00  0.00     0.317 C 
HETATM   25  O4  UNL     1     -16.240  22.181  -6.185  1.00  0.00    -0.247 OA
HETATM   26  N4  UNL     1     -14.093  21.425  -5.875  1.00  0.00    -0.331 N 
ATOM     27  H4  UNL     1     -13.491  20.709  -5.466  1.00  0.00     0.165 HD
ATOM     28  H3  UNL     1     -15.365  19.527  -4.632  1.00  0.00     0.165 HD
BRANCH  26  29
HETATM   29  C9  UNL     1     -13.469  22.561  -6.635  1.00  0.00     0.164 C 
BRANCH  29  30
HETATM   30  C10 UNL     1     -12.410  23.049  -5.746  1.00  0.00     0.138 C 
BRANCH  30  31
HETATM   31  O5  UNL     1     -11.247  22.502  -6.004  1.00  0.00    -0.348 OA
ATOM     32  H5  UNL     1     -11.221  21.580  -5.776  1.00  0.00     0.219 HD
ENDBRANCH  30  31
BRANCH  30  33
HETATM   33  N5  UNL     1     -12.467  23.971  -4.703  1.00  0.00    -0.354 N 
HETATM   34  C11 UNL     1     -11.295  24.789  -4.281  1.00  0.00     0.130 C 
HETATM   35  C12 UNL     1     -11.563  24.668  -2.816  1.00  0.00     0.010 A 
HETATM   36  C13 UNL     1     -12.157  25.466  -1.836  1.00  0.00     0.014 A 
HETATM   37  C14 UNL     1     -12.965  25.371  -2.973  1.00  0.00     0.019 A 
HETATM   38  C15 UNL     1     -13.534  24.270  -3.804  1.00  0.00     0.031 C 
HETATM   39  C16 UNL     1     -14.797  24.809  -4.426  1.00  0.00     0.038 C 
HETATM   40  C17 UNL     1     -13.927  23.065  -2.964  1.00  0.00     0.038 C 
ENDBRANCH  30  33
ENDBRANCH  29  30
BRANCH  29  41
HETATM   41  C18 UNL     1     -12.940  21.905  -7.909  1.00  0.00     0.008 C 
HETATM   42  C19 UNL     1     -13.359  22.592  -9.167  1.00  0.00     0.012 C 
HETATM   43  C20 UNL     1     -13.095  20.440  -7.945  1.00  0.00     0.012 C 
ENDBRANCH  29  41
ENDBRANCH  26  29
ENDBRANCH   1  23
BRANCH   1  44
HETATM   44  C21 UNL     1     -17.838  20.638  -3.481  1.00  0.00    -0.023 C 
HETATM   45  C22 UNL     1     -16.582  20.942  -2.650  1.00  0.00     0.017 C 
HETATM   46  C23 UNL     1     -18.770  19.841  -2.626  1.00  0.00     0.017 C 
HETATM   47  C24 UNL     1     -18.489  21.989  -3.694  1.00  0.00     0.017 C 
ENDBRANCH   1  44
TORSDOF 14
ENDMDL
