MODEL 1
REMARK VINA RESULT: -10.390158110      0.000      0.000
REMARK  12 active torsions:
REMARK  status: ('A' for Active; 'I' for Inactive)
REMARK    1  A    between atoms: C2_2  and  C3_3 
REMARK    2  A    between atoms: C3_3  and  C4_4 
REMARK    3  A    between atoms: C4_4  and  C5_5 
REMARK    4  A    between atoms: C5_5  and  N1_6 
REMARK    5  A    between atoms: C5_5  and  C21_31 
REMARK       I    between atoms: N1_6  and  C6_8 
REMARK       I    between atoms: C6_8  and  N2_10 
REMARK    6  A    between atoms: N2_10  and  C7_12 
REMARK    7  A    between atoms: C7_12  and  C13_18 
REMARK    8  A    between atoms: C8_13  and  C9_14 
REMARK       I    between atoms: C13_18  and  N3_20 
REMARK    9  A    between atoms: N3_20  and  C14_21 
REMARK   10  A    between atoms: C14_21  and  C15_22 
REMARK       I    between atoms: C15_22  and  N4_24 
REMARK       I    between atoms: C21_31  and  N6_33 
REMARK   11  A    between atoms: C24_37  and  O5_38 
REMARK   12  A    between atoms: C24_37  and  C25_40 
REMARK       I    between atoms: N8_44  and  C29_46 
ROOT
HETATM    1  C5  UNL     1       8.030 -16.019 -15.840  1.00  0.00     0.178 C 
ENDROOT
BRANCH   1   2
HETATM    2  C4  UNL     1       7.428 -14.521 -15.682  1.00  0.00     0.035 C 
BRANCH   2   3
HETATM    3  C3  UNL     1       6.007 -14.565 -15.334  1.00  0.00     0.002 C 
BRANCH   3   4
HETATM    4  C2  UNL     1       5.663 -13.340 -14.460  1.00  0.00    -0.004 C 
HETATM    5  C1  UNL     1       4.569 -12.522 -15.079  1.00  0.00     0.005 C 
ENDBRANCH   3   4
ENDBRANCH   2   3
ENDBRANCH   1   2
BRANCH   1   6
HETATM    6  N1  UNL     1       8.592 -15.878 -17.170  1.00  0.00    -0.330 N 
HETATM    7  C6  UNL     1       8.678 -17.097 -17.925  1.00  0.00     0.321 C 
HETATM    8  O1  UNL     1       8.448 -18.144 -17.308  1.00  0.00    -0.247 OA
HETATM    9  N2  UNL     1       8.957 -17.009 -19.295  1.00  0.00    -0.303 N 
ATOM     10  H2  UNL     1       9.384 -16.134 -19.599  1.00  0.00     0.171 HD
ATOM     11  H1  UNL     1       8.903 -14.980 -17.542  1.00  0.00     0.165 HD
BRANCH   9  12
HETATM   12  C7  UNL     1       8.725 -17.986 -20.341  1.00  0.00     0.115 C 
HETATM   13  C8  UNL     1       9.514 -19.161 -20.440  1.00  0.00     0.014 C 
BRANCH  13  14
HETATM   14  C9  UNL     1       9.662 -20.173 -19.372  1.00  0.00     0.010 C 
HETATM   15  C10 UNL     1      10.035 -21.578 -19.677  1.00  0.00     0.009 C 
HETATM   16  C11 UNL     1      11.511 -21.193 -19.360  1.00  0.00     0.001 C 
HETATM   17  C12 UNL     1      10.959 -20.031 -18.568  1.00  0.00     0.009 C 
ENDBRANCH  13  14
BRANCH  12  18
HETATM   18  C13 UNL     1       7.229 -18.021 -20.636  1.00  0.00     0.337 C 
HETATM   19  O2  UNL     1       6.879 -17.675 -21.814  1.00  0.00    -0.250 OA
HETATM   20  N3  UNL     1       6.271 -18.418 -19.746  1.00  0.00    -0.401 NA
BRANCH  20  21
HETATM   21  C14 UNL     1       5.287 -18.823 -18.840  1.00  0.00     0.326 C 
BRANCH  21  22
HETATM   22  C15 UNL     1       4.666 -17.535 -18.286  1.00  0.00     0.274 C 
HETATM   23  O3  UNL     1       5.411 -16.532 -18.230  1.00  0.00    -0.269 OA
HETATM   24  N4  UNL     1       3.338 -17.432 -17.848  1.00  0.00    -0.175 N 
HETATM   25  C16 UNL     1       2.371 -18.535 -17.990  1.00  0.00     0.161 C 
HETATM   26  N5  UNL     1       2.712 -16.377 -17.231  1.00  0.00     0.009 N 
HETATM   27  C17 UNL     1       1.149 -17.692 -18.415  1.00  0.00     0.052 C 
HETATM   28  C18 UNL     1       1.278 -16.573 -17.355  1.00  0.00     0.266 C 
HETATM   29  C19 UNL     1       3.087 -15.055 -17.691  1.00  0.00     0.302 C 
HETATM   30  C20 UNL     1       2.978 -16.359 -15.774  1.00  0.00     0.302 C 
ENDBRANCH  21  22
ENDBRANCH  20  21
ENDBRANCH  12  18
ENDBRANCH   9  12
ENDBRANCH   1   6
BRANCH   1  31
HETATM   31  C21 UNL     1       9.005 -16.062 -14.761  1.00  0.00     0.242 C 
HETATM   32  O4  UNL     1       8.726 -15.289 -13.757  1.00  0.00    -0.271 OA
HETATM   33  N6  UNL     1      10.178 -16.814 -14.631  1.00  0.00    -0.347 N 
HETATM   34  C22 UNL     1      10.891 -16.833 -13.327  1.00  0.00     0.145 C 
HETATM   35  C33 UNL     1      10.804 -17.561 -15.693  1.00  0.00     0.145 C 
HETATM   36  C23 UNL     1      11.013 -18.301 -12.967  1.00  0.00     0.144 C 
HETATM   37  N7  UNL     1      11.889 -18.965 -13.945  1.00  0.00    -0.362 N 
HETATM   38  C24 UNL     1      12.901 -19.751 -13.490  1.00  0.00     0.118 C 
HETATM   39  C32 UNL     1      11.608 -18.749 -15.337  1.00  0.00     0.144 C 
BRANCH  38  40
HETATM   40  O5  UNL     1      12.973 -19.801 -12.151  1.00  0.00    -0.349 OA
ATOM     41  H5  UNL     1      13.840 -19.611 -11.814  1.00  0.00     0.219 HD
ENDBRANCH  38  40
BRANCH  38  42
HETATM   42  C25 UNL     1      13.956 -20.563 -14.076  1.00  0.00     0.066 C 
HETATM   43  C26 UNL     1      14.917 -19.804 -14.932  1.00  0.00     0.019 C 
HETATM   44  C27 UNL     1      15.169 -20.631 -16.139  1.00  0.00     0.053 C 
HETATM   45  C28 UNL     1      14.321 -21.832 -16.041  1.00  0.00    -0.010 C 
HETATM   46  N8  UNL     1      14.328 -22.797 -16.881  1.00  0.00    -0.335 N 
HETATM   47  C31 UNL     1      13.488 -21.727 -14.859  1.00  0.00     0.065 C 
HETATM   48  C29 UNL     1      15.128 -22.887 -18.030  1.00  0.00     0.217 C 
ATOM     49  H8  UNL     1      13.693 -23.574 -16.698  1.00  0.00     0.168 HD
HETATM   50  C30 UNL     1      14.508 -22.981 -19.387  1.00  0.00     0.117 C 
HETATM   51  O6  UNL     1      16.386 -22.896 -17.997  1.00  0.00    -0.274 OA
ENDBRANCH  38  42
ENDBRANCH   1  31
TORSDOF 12
ENDMDL
MODEL 2
REMARK VINA RESULT: -10.372856264      3.627      5.607
REMARK  12 active torsions:
REMARK  status: ('A' for Active; 'I' for Inactive)
REMARK    1  A    between atoms: C2_2  and  C3_3 
REMARK    2  A    between atoms: C3_3  and  C4_4 
REMARK    3  A    between atoms: C4_4  and  C5_5 
REMARK    4  A    between atoms: C5_5  and  N1_6 
REMARK    5  A    between atoms: C5_5  and  C21_31 
REMARK       I    between atoms: N1_6  and  C6_8 
REMARK       I    between atoms: C6_8  and  N2_10 
REMARK    6  A    between atoms: N2_10  and  C7_12 
REMARK    7  A    between atoms: C7_12  and  C13_18 
REMARK    8  A    between atoms: C8_13  and  C9_14 
REMARK       I    between atoms: C13_18  and  N3_20 
REMARK    9  A    between atoms: N3_20  and  C14_21 
REMARK   10  A    between atoms: C14_21  and  C15_22 
REMARK       I    between atoms: C15_22  and  N4_24 
REMARK       I    between atoms: C21_31  and  N6_33 
REMARK   11  A    between atoms: C24_37  and  O5_38 
REMARK   12  A    between atoms: C24_37  and  C25_40 
REMARK       I    between atoms: N8_44  and  C29_46 
ROOT
HETATM    1  C5  UNL     1      11.573 -18.818 -15.594  1.00  0.00     0.178 C 
ENDROOT
BRANCH   1   2
HETATM    2  C4  UNL     1      12.246 -17.628 -14.722  1.00  0.00     0.035 C 
BRANCH   2   3
HETATM    3  C3  UNL     1      11.227 -16.883 -13.981  1.00  0.00     0.002 C 
BRANCH   3   4
HETATM    4  C2  UNL     1      10.523 -17.836 -12.993  1.00  0.00    -0.004 C 
HETATM    5  C1  UNL     1      11.429 -18.206 -11.857  1.00  0.00     0.005 C 
ENDBRANCH   3   4
ENDBRANCH   2   3
ENDBRANCH   1   2
BRANCH   1   6
HETATM    6  N1  UNL     1      10.823 -17.995 -16.525  1.00  0.00    -0.330 N 
HETATM    7  C6  UNL     1       9.398 -18.174 -16.482  1.00  0.00     0.321 C 
HETATM    8  O1  UNL     1       8.983 -19.124 -15.808  1.00  0.00    -0.247 OA
HETATM    9  N2  UNL     1       8.594 -17.242 -17.150  1.00  0.00    -0.303 N 
ATOM     10  H2  UNL     1       9.065 -16.693 -17.869  1.00  0.00     0.171 HD
ATOM     11  H1  UNL     1      11.274 -17.339 -17.163  1.00  0.00     0.165 HD
BRANCH   9  12
HETATM   12  C7  UNL     1       7.186 -16.947 -16.963  1.00  0.00     0.115 C 
HETATM   13  C8  UNL     1       6.739 -16.151 -15.877  1.00  0.00     0.014 C 
BRANCH  13  14
HETATM   14  C9  UNL     1       7.180 -14.766 -15.606  1.00  0.00     0.010 C 
HETATM   15  C10 UNL     1       6.463 -13.895 -14.641  1.00  0.00     0.009 C 
HETATM   16  C11 UNL     1       7.511 -14.318 -13.569  1.00  0.00     0.001 C 
HETATM   17  C12 UNL     1       8.425 -14.683 -14.716  1.00  0.00     0.009 C 
ENDBRANCH  13  14
BRANCH  12  18
HETATM   18  C13 UNL     1       6.538 -16.832 -18.339  1.00  0.00     0.337 C 
HETATM   19  O2  UNL     1       7.312 -16.510 -19.301  1.00  0.00    -0.250 OA
HETATM   20  N3  UNL     1       5.219 -17.078 -18.598  1.00  0.00    -0.401 NA
BRANCH  20  21
HETATM   21  C14 UNL     1       3.871 -17.327 -18.870  1.00  0.00     0.326 C 
BRANCH  21  22
HETATM   22  C15 UNL     1       3.101 -16.109 -18.345  1.00  0.00     0.274 C 
HETATM   23  O3  UNL     1       2.951 -15.155 -19.141  1.00  0.00    -0.269 OA
HETATM   24  N4  UNL     1       2.574 -16.015 -17.050  1.00  0.00    -0.175 N 
HETATM   25  C16 UNL     1       2.611 -17.140 -16.098  1.00  0.00     0.161 C 
HETATM   26  N5  UNL     1       1.976 -14.941 -16.437  1.00  0.00     0.009 N 
HETATM   27  C17 UNL     1       1.192 -16.968 -15.511  1.00  0.00     0.052 C 
HETATM   28  C18 UNL     1       1.233 -15.437 -15.291  1.00  0.00     0.266 C 
HETATM   29  C19 UNL     1       1.129 -14.118 -17.276  1.00  0.00     0.302 C 
HETATM   30  C20 UNL     1       2.977 -14.005 -15.876  1.00  0.00     0.302 C 
ENDBRANCH  21  22
ENDBRANCH  20  21
ENDBRANCH  12  18
ENDBRANCH   9  12
ENDBRANCH   1   6
BRANCH   1  31
HETATM   31  C21 UNL     1      12.743 -19.474 -16.156  1.00  0.00     0.242 C 
HETATM   32  O4  UNL     1      13.160 -18.960 -17.272  1.00  0.00    -0.271 OA
HETATM   33  N6  UNL     1      13.494 -20.552 -15.676  1.00  0.00    -0.347 N 
HETATM   34  C22 UNL     1      14.780 -20.898 -16.335  1.00  0.00     0.145 C 
HETATM   35  C33 UNL     1      13.100 -21.417 -14.591  1.00  0.00     0.145 C 
HETATM   36  C23 UNL     1      15.809 -20.885 -15.222  1.00  0.00     0.144 C 
HETATM   37  N7  UNL     1      15.508 -21.971 -14.276  1.00  0.00    -0.362 N 
HETATM   38  C24 UNL     1      16.510 -22.808 -13.899  1.00  0.00     0.118 C 
HETATM   39  C32 UNL     1      14.158 -22.070 -13.793  1.00  0.00     0.144 C 
BRANCH  38  40
HETATM   40  O5  UNL     1      17.686 -22.525 -14.481  1.00  0.00    -0.349 OA
ATOM     41  H5  UNL     1      18.088 -23.276 -14.900  1.00  0.00     0.219 HD
ENDBRANCH  38  40
BRANCH  38  42
HETATM   42  C25 UNL     1      16.654 -23.960 -13.021  1.00  0.00     0.066 C 
HETATM   43  C26 UNL     1      17.243 -23.648 -11.685  1.00  0.00     0.019 C 
HETATM   44  C27 UNL     1      18.221 -24.724 -11.381  1.00  0.00     0.053 C 
HETATM   45  C28 UNL     1      18.268 -25.624 -12.546  1.00  0.00    -0.010 C 
HETATM   46  N8  UNL     1      18.961 -26.699 -12.605  1.00  0.00    -0.335 N 
HETATM   47  C31 UNL     1      17.420 -25.089 -13.592  1.00  0.00     0.065 C 
HETATM   48  C29 UNL     1      19.790 -27.206 -11.594  1.00  0.00     0.217 C 
ATOM     49  H8  UNL     1      18.905 -27.237 -13.470  1.00  0.00     0.168 HD
HETATM   50  C30 UNL     1      21.255 -27.389 -11.827  1.00  0.00     0.117 C 
HETATM   51  O6  UNL     1      19.368 -27.532 -10.454  1.00  0.00    -0.274 OA
ENDBRANCH  38  42
ENDBRANCH   1  31
TORSDOF 12
ENDMDL
MODEL 3
REMARK VINA RESULT: -10.356574224      3.725     12.123
REMARK  12 active torsions:
REMARK  status: ('A' for Active; 'I' for Inactive)
REMARK    1  A    between atoms: C2_2  and  C3_3 
REMARK    2  A    between atoms: C3_3  and  C4_4 
REMARK    3  A    between atoms: C4_4  and  C5_5 
REMARK    4  A    between atoms: C5_5  and  N1_6 
REMARK    5  A    between atoms: C5_5  and  C21_31 
REMARK       I    between atoms: N1_6  and  C6_8 
REMARK       I    between atoms: C6_8  and  N2_10 
REMARK    6  A    between atoms: N2_10  and  C7_12 
REMARK    7  A    between atoms: C7_12  and  C13_18 
REMARK    8  A    between atoms: C8_13  and  C9_14 
REMARK       I    between atoms: C13_18  and  N3_20 
REMARK    9  A    between atoms: N3_20  and  C14_21 
REMARK   10  A    between atoms: C14_21  and  C15_22 
REMARK       I    between atoms: C15_22  and  N4_24 
REMARK       I    between atoms: C21_31  and  N6_33 
REMARK   11  A    between atoms: C24_37  and  O5_38 
REMARK   12  A    between atoms: C24_37  and  C25_40 
REMARK       I    between atoms: N8_44  and  C29_46 
ROOT
HETATM    1  C5  UNL     1      13.395 -22.751 -19.316  1.00  0.00     0.178 C 
ENDROOT
BRANCH   1   2
HETATM    2  C4  UNL     1      14.167 -23.109 -20.696  1.00  0.00     0.035 C 
BRANCH   2   3
HETATM    3  C3  UNL     1      14.712 -24.467 -20.652  1.00  0.00     0.002 C 
BRANCH   3   4
HETATM    4  C2  UNL     1      16.233 -24.411 -20.904  1.00  0.00    -0.004 C 
HETATM    5  C1  UNL     1      17.001 -24.796 -19.675  1.00  0.00     0.005 C 
ENDBRANCH   3   4
ENDBRANCH   2   3
ENDBRANCH   1   2
BRANCH   1   6
HETATM    6  N1  UNL     1      14.345 -21.788 -18.790  1.00  0.00    -0.330 N 
HETATM    7  C6  UNL     1      14.276 -21.578 -17.371  1.00  0.00     0.321 C 
HETATM    8  O1  UNL     1      13.310 -22.084 -16.787  1.00  0.00    -0.247 OA
HETATM    9  N2  UNL     1      15.318 -20.875 -16.754  1.00  0.00    -0.303 N 
ATOM     10  H2  UNL     1      15.884 -20.297 -17.375  1.00  0.00     0.171 HD
ATOM     11  H1  UNL     1      15.013 -21.296 -19.385  1.00  0.00     0.165 HD
BRANCH   9  12
HETATM   12  C7  UNL     1      15.705 -20.853 -15.356  1.00  0.00     0.115 C 
HETATM   13  C8  UNL     1      14.893 -20.226 -14.377  1.00  0.00     0.014 C 
BRANCH  13  14
HETATM   14  C9  UNL     1      13.484 -20.575 -14.097  1.00  0.00     0.010 C 
HETATM   15  C10 UNL     1      12.970 -20.684 -12.708  1.00  0.00     0.009 C 
HETATM   16  C11 UNL     1      12.459 -19.219 -12.845  1.00  0.00     0.001 C 
HETATM   17  C12 UNL     1      12.505 -19.422 -14.341  1.00  0.00     0.009 C 
ENDBRANCH  13  14
BRANCH  12  18
HETATM   18  C13 UNL     1      16.445 -22.150 -15.047  1.00  0.00     0.337 C 
HETATM   19  O2  UNL     1      17.337 -22.504 -15.889  1.00  0.00    -0.250 OA
HETATM   20  N3  UNL     1      16.234 -22.919 -13.938  1.00  0.00    -0.401 NA
BRANCH  20  21
HETATM   21  C14 UNL     1      16.023 -23.709 -12.804  1.00  0.00     0.326 C 
BRANCH  21  22
HETATM   22  C15 UNL     1      17.413 -24.137 -12.321  1.00  0.00     0.274 C 
HETATM   23  O3  UNL     1      18.330 -23.293 -12.434  1.00  0.00    -0.269 OA
HETATM   24  N4  UNL     1      17.699 -25.397 -11.777  1.00  0.00    -0.175 N 
HETATM   25  C16 UNL     1      16.651 -26.398 -11.508  1.00  0.00     0.161 C 
HETATM   26  N5  UNL     1      18.915 -25.929 -11.424  1.00  0.00     0.009 N 
HETATM   27  C17 UNL     1      17.181 -26.899 -10.147  1.00  0.00     0.052 C 
HETATM   28  C18 UNL     1      18.670 -27.054 -10.537  1.00  0.00     0.266 C 
HETATM   29  C19 UNL     1      19.866 -25.010 -10.830  1.00  0.00     0.302 C 
HETATM   30  C20 UNL     1      19.622 -26.501 -12.593  1.00  0.00     0.302 C 
ENDBRANCH  21  22
ENDBRANCH  20  21
ENDBRANCH  12  18
ENDBRANCH   9  12
ENDBRANCH   1   6
BRANCH   1  31
HETATM   31  C21 UNL     1      12.152 -22.182 -19.810  1.00  0.00     0.242 C 
HETATM   32  O4  UNL     1      11.550 -22.906 -20.702  1.00  0.00    -0.271 OA
HETATM   33  N6  UNL     1      11.499 -20.993 -19.464  1.00  0.00    -0.347 N 
HETATM   34  C22 UNL     1      10.123 -20.743 -19.965  1.00  0.00     0.145 C 
HETATM   35  C33 UNL     1      12.076 -19.933 -18.675  1.00  0.00     0.145 C 
HETATM   36  C23 UNL     1       9.296 -20.471 -18.723  1.00  0.00     0.144 C 
HETATM   37  N7  UNL     1       9.758 -19.221 -18.102  1.00  0.00    -0.362 N 
HETATM   38  C24 UNL     1       8.839 -18.279 -17.760  1.00  0.00     0.118 C 
HETATM   39  C32 UNL     1      11.171 -19.077 -17.879  1.00  0.00     0.144 C 
BRANCH  38  40
HETATM   40  O5  UNL     1       7.581 -18.631 -18.067  1.00  0.00    -0.349 OA
ATOM     41  H5  UNL     1       7.085 -17.932 -18.478  1.00  0.00     0.219 HD
ENDBRANCH  38  40
BRANCH  38  42
HETATM   42  C25 UNL     1       8.852 -16.959 -17.147  1.00  0.00     0.066 C 
HETATM   43  C26 UNL     1       8.887 -16.973 -15.654  1.00  0.00     0.019 C 
HETATM   44  C27 UNL     1       7.935 -15.932 -15.189  1.00  0.00     0.053 C 
HETATM   45  C28 UNL     1       7.290 -15.355 -16.381  1.00  0.00    -0.010 C 
HETATM   46  N8  UNL     1       6.457 -14.384 -16.357  1.00  0.00    -0.335 N 
HETATM   47  C31 UNL     1       7.746 -16.067 -17.558  1.00  0.00     0.065 C 
HETATM   48  C29 UNL     1       6.010 -13.705 -15.214  1.00  0.00     0.217 C 
ATOM     49  H8  UNL     1       6.083 -14.074 -17.254  1.00  0.00     0.168 HD
HETATM   50  C30 UNL     1       4.561 -13.695 -14.849  1.00  0.00     0.117 C 
HETATM   51  O6  UNL     1       6.778 -13.076 -14.440  1.00  0.00    -0.274 OA
ENDBRANCH  38  42
ENDBRANCH   1  31
TORSDOF 12
ENDMDL
MODEL 4
REMARK VINA RESULT: -10.326368581      3.661      5.780
REMARK  12 active torsions:
REMARK  status: ('A' for Active; 'I' for Inactive)
REMARK    1  A    between atoms: C2_2  and  C3_3 
REMARK    2  A    between atoms: C3_3  and  C4_4 
REMARK    3  A    between atoms: C4_4  and  C5_5 
REMARK    4  A    between atoms: C5_5  and  N1_6 
REMARK    5  A    between atoms: C5_5  and  C21_31 
REMARK       I    between atoms: N1_6  and  C6_8 
REMARK       I    between atoms: C6_8  and  N2_10 
REMARK    6  A    between atoms: N2_10  and  C7_12 
REMARK    7  A    between atoms: C7_12  and  C13_18 
REMARK    8  A    between atoms: C8_13  and  C9_14 
REMARK       I    between atoms: C13_18  and  N3_20 
REMARK    9  A    between atoms: N3_20  and  C14_21 
REMARK   10  A    between atoms: C14_21  and  C15_22 
REMARK       I    between atoms: C15_22  and  N4_24 
REMARK       I    between atoms: C21_31  and  N6_33 
REMARK   11  A    between atoms: C24_37  and  O5_38 
REMARK   12  A    between atoms: C24_37  and  C25_40 
REMARK       I    between atoms: N8_44  and  C29_46 
ROOT
HETATM    1  C5  UNL     1      11.431 -18.728 -15.626  1.00  0.00     0.178 C 
ENDROOT
BRANCH   1   2
HETATM    2  C4  UNL     1      12.132 -17.510 -14.816  1.00  0.00     0.035 C 
BRANCH   2   3
HETATM    3  C3  UNL     1      11.197 -16.912 -13.861  1.00  0.00     0.002 C 
BRANCH   3   4
HETATM    4  C2  UNL     1      10.597 -18.026 -12.977  1.00  0.00    -0.004 C 
HETATM    5  C1  UNL     1      11.408 -18.227 -11.732  1.00  0.00     0.005 C 
ENDBRANCH   3   4
ENDBRANCH   2   3
ENDBRANCH   1   2
BRANCH   1   6
HETATM    6  N1  UNL     1      10.633 -17.935 -16.542  1.00  0.00    -0.330 N 
HETATM    7  C6  UNL     1       9.212 -18.106 -16.413  1.00  0.00     0.321 C 
HETATM    8  O1  UNL     1       8.833 -19.029 -15.683  1.00  0.00    -0.247 OA
HETATM    9  N2  UNL     1       8.374 -17.194 -17.068  1.00  0.00    -0.303 N 
ATOM     10  H2  UNL     1       8.805 -16.673 -17.831  1.00  0.00     0.171 HD
ATOM     11  H1  UNL     1      11.049 -17.304 -17.227  1.00  0.00     0.165 HD
BRANCH   9  12
HETATM   12  C7  UNL     1       6.980 -16.887 -16.813  1.00  0.00     0.115 C 
HETATM   13  C8  UNL     1       6.594 -16.073 -15.716  1.00  0.00     0.014 C 
BRANCH  13  14
HETATM   14  C9  UNL     1       7.058 -14.688 -15.486  1.00  0.00     0.010 C 
HETATM   15  C10 UNL     1       6.388 -13.795 -14.508  1.00  0.00     0.009 C 
HETATM   16  C11 UNL     1       7.474 -14.210 -13.473  1.00  0.00     0.001 C 
HETATM   17  C12 UNL     1       8.338 -14.602 -14.648  1.00  0.00     0.009 C 
ENDBRANCH  13  14
BRANCH  12  18
HETATM   18  C13 UNL     1       6.262 -16.785 -18.155  1.00  0.00     0.337 C 
HETATM   19  O2  UNL     1       6.990 -16.929 -19.195  1.00  0.00    -0.250 OA
HETATM   20  N3  UNL     1       4.919 -16.584 -18.304  1.00  0.00    -0.401 NA
BRANCH  20  21
HETATM   21  C14 UNL     1       3.546 -16.378 -18.463  1.00  0.00     0.326 C 
BRANCH  21  22
HETATM   22  C15 UNL     1       3.126 -17.234 -19.663  1.00  0.00     0.274 C 
HETATM   23  O3  UNL     1       3.145 -16.678 -20.783  1.00  0.00    -0.269 OA
HETATM   24  N4  UNL     1       2.728 -18.575 -19.568  1.00  0.00    -0.175 N 
HETATM   25  C16 UNL     1       2.790 -19.330 -18.302  1.00  0.00     0.161 C 
HETATM   26  N5  UNL     1       2.224 -19.398 -20.544  1.00  0.00     0.009 N 
HETATM   27  C17 UNL     1       3.317 -20.663 -18.875  1.00  0.00     0.052 C 
HETATM   28  C18 UNL     1       2.361 -20.771 -20.087  1.00  0.00     0.266 C 
HETATM   29  C19 UNL     1       2.794 -19.243 -21.867  1.00  0.00     0.302 C 
HETATM   30  C20 UNL     1       0.769 -19.195 -20.733  1.00  0.00     0.302 C 
ENDBRANCH  21  22
ENDBRANCH  20  21
ENDBRANCH  12  18
ENDBRANCH   9  12
ENDBRANCH   1   6
BRANCH   1  31
HETATM   31  C21 UNL     1      12.581 -19.387 -16.223  1.00  0.00     0.242 C 
HETATM   32  O4  UNL     1      12.964 -18.877 -17.353  1.00  0.00    -0.271 OA
HETATM   33  N6  UNL     1      13.344 -20.468 -15.766  1.00  0.00    -0.347 N 
HETATM   34  C22 UNL     1      14.607 -20.818 -16.465  1.00  0.00     0.145 C 
HETATM   35  C33 UNL     1      12.982 -21.329 -14.668  1.00  0.00     0.145 C 
HETATM   36  C23 UNL     1      15.671 -20.807 -15.385  1.00  0.00     0.144 C 
HETATM   37  N7  UNL     1      15.397 -21.890 -14.428  1.00  0.00    -0.362 N 
HETATM   38  C24 UNL     1      16.409 -22.730 -14.082  1.00  0.00     0.118 C 
HETATM   39  C32 UNL     1      14.063 -21.985 -13.903  1.00  0.00     0.144 C 
BRANCH  38  40
HETATM   40  O5  UNL     1      17.566 -22.451 -14.702  1.00  0.00    -0.349 OA
ATOM     41  H5  UNL     1      18.329 -22.592 -14.154  1.00  0.00     0.219 HD
ENDBRANCH  38  40
BRANCH  38  42
HETATM   42  C25 UNL     1      16.577 -23.881 -13.207  1.00  0.00     0.066 C 
HETATM   43  C26 UNL     1      17.123 -23.555 -11.857  1.00  0.00     0.019 C 
HETATM   44  C27 UNL     1      18.135 -24.595 -11.536  1.00  0.00     0.053 C 
HETATM   45  C28 UNL     1      18.243 -25.485 -12.705  1.00  0.00    -0.010 C 
HETATM   46  N8  UNL     1      18.977 -26.532 -12.755  1.00  0.00    -0.335 N 
HETATM   47  C31 UNL     1      17.398 -24.977 -13.767  1.00  0.00     0.065 C 
HETATM   48  C29 UNL     1      19.802 -27.014 -11.728  1.00  0.00     0.217 C 
ATOM     49  H8  UNL     1      18.961 -27.066 -13.624  1.00  0.00     0.168 HD
HETATM   50  C30 UNL     1      21.277 -27.140 -11.928  1.00  0.00     0.117 C 
HETATM   51  O6  UNL     1      19.367 -27.363 -10.600  1.00  0.00    -0.274 OA
ENDBRANCH  38  42
ENDBRANCH   1  31
TORSDOF 12
ENDMDL
MODEL 5
REMARK VINA RESULT: -10.323902867      2.368      9.909
REMARK  12 active torsions:
REMARK  status: ('A' for Active; 'I' for Inactive)
REMARK    1  A    between atoms: C2_2  and  C3_3 
REMARK    2  A    between atoms: C3_3  and  C4_4 
REMARK    3  A    between atoms: C4_4  and  C5_5 
REMARK    4  A    between atoms: C5_5  and  N1_6 
REMARK    5  A    between atoms: C5_5  and  C21_31 
REMARK       I    between atoms: N1_6  and  C6_8 
REMARK       I    between atoms: C6_8  and  N2_10 
REMARK    6  A    between atoms: N2_10  and  C7_12 
REMARK    7  A    between atoms: C7_12  and  C13_18 
REMARK    8  A    between atoms: C8_13  and  C9_14 
REMARK       I    between atoms: C13_18  and  N3_20 
REMARK    9  A    between atoms: N3_20  and  C14_21 
REMARK   10  A    between atoms: C14_21  and  C15_22 
REMARK       I    between atoms: C15_22  and  N4_24 
REMARK       I    between atoms: C21_31  and  N6_33 
REMARK   11  A    between atoms: C24_37  and  O5_38 
REMARK   12  A    between atoms: C24_37  and  C25_40 
REMARK       I    between atoms: N8_44  and  C29_46 
ROOT
HETATM    1  C5  UNL     1      10.144 -17.497 -14.383  1.00  0.00     0.178 C 
ENDROOT
BRANCH   1   2
HETATM    2  C4  UNL     1      10.312 -18.107 -12.890  1.00  0.00     0.035 C 
BRANCH   2   3
HETATM    3  C3  UNL     1      11.723 -18.346 -12.580  1.00  0.00     0.002 C 
BRANCH   3   4
HETATM    4  C2  UNL     1      12.301 -19.352 -13.598  1.00  0.00    -0.004 C 
HETATM    5  C1  UNL     1      12.921 -20.528 -12.906  1.00  0.00     0.005 C 
ENDBRANCH   3   4
ENDBRANCH   2   3
ENDBRANCH   1   2
BRANCH   1   6
HETATM    6  N1  UNL     1       9.435 -18.611 -14.985  1.00  0.00    -0.330 N 
HETATM    7  C6  UNL     1       9.794 -18.896 -16.346  1.00  0.00     0.321 C 
HETATM    8  O1  UNL     1      10.514 -18.063 -16.911  1.00  0.00    -0.247 OA
HETATM    9  N2  UNL     1       9.357 -20.102 -16.907  1.00  0.00    -0.303 N 
ATOM     10  H2  UNL     1       8.568 -20.544 -16.435  1.00  0.00     0.171 HD
ATOM     11  H1  UNL     1       8.733 -19.151 -14.478  1.00  0.00     0.165 HD
BRANCH   9  12
HETATM   12  C7  UNL     1       9.868 -20.812 -18.064  1.00  0.00     0.115 C 
HETATM   13  C8  UNL     1       9.551 -20.395 -19.382  1.00  0.00     0.014 C 
BRANCH  13  14
HETATM   14  C9  UNL     1       9.836 -19.055 -19.938  1.00  0.00     0.010 C 
HETATM   15  C10 UNL     1       9.756 -18.783 -21.395  1.00  0.00     0.009 C 
HETATM   16  C11 UNL     1       8.312 -18.251 -21.157  1.00  0.00     0.001 C 
HETATM   17  C12 UNL     1       8.706 -18.045 -19.713  1.00  0.00     0.009 C 
ENDBRANCH  13  14
BRANCH  12  18
HETATM   18  C13 UNL     1      11.258 -21.340 -17.722  1.00  0.00     0.337 C 
HETATM   19  O2  UNL     1      11.343 -22.066 -16.675  1.00  0.00    -0.250 OA
HETATM   20  N3  UNL     1      12.380 -21.112 -18.467  1.00  0.00    -0.401 NA
BRANCH  20  21
HETATM   21  C14 UNL     1      13.532 -20.882 -19.226  1.00  0.00     0.326 C 
BRANCH  21  22
HETATM   22  C15 UNL     1      13.975 -22.254 -19.748  1.00  0.00     0.274 C 
HETATM   23  O3  UNL     1      13.529 -22.599 -20.865  1.00  0.00    -0.269 OA
HETATM   24  N4  UNL     1      14.831 -23.118 -19.052  1.00  0.00    -0.175 N 
HETATM   25  C16 UNL     1      15.485 -22.733 -17.788  1.00  0.00     0.161 C 
HETATM   26  N5  UNL     1      15.199 -24.404 -19.362  1.00  0.00     0.009 N 
HETATM   27  C17 UNL     1      16.872 -23.350 -18.071  1.00  0.00     0.052 C 
HETATM   28  C18 UNL     1      16.395 -24.723 -18.601  1.00  0.00     0.266 C 
HETATM   29  C19 UNL     1      15.399 -24.689 -20.769  1.00  0.00     0.302 C 
HETATM   30  C20 UNL     1      14.182 -25.386 -18.919  1.00  0.00     0.302 C 
ENDBRANCH  21  22
ENDBRANCH  20  21
ENDBRANCH  12  18
ENDBRANCH   9  12
ENDBRANCH   1   6
BRANCH   1  31
HETATM   31  C21 UNL     1       9.334 -16.315 -14.131  1.00  0.00     0.242 C 
HETATM   32  O4  UNL     1       9.982 -15.328 -13.594  1.00  0.00    -0.271 OA
HETATM   33  N6  UNL     1       7.981 -16.073 -14.392  1.00  0.00    -0.347 N 
HETATM   34  C22 UNL     1       7.442 -14.697 -14.232  1.00  0.00     0.145 C 
HETATM   35  C33 UNL     1       7.019 -17.077 -14.771  1.00  0.00     0.145 C 
HETATM   36  C23 UNL     1       6.801 -14.368 -15.567  1.00  0.00     0.144 C 
HETATM   37  N7  UNL     1       5.650 -15.258 -15.781  1.00  0.00    -0.362 N 
HETATM   38  C24 UNL     1       4.462 -14.713 -16.156  1.00  0.00     0.118 C 
HETATM   39  C32 UNL     1       5.858 -16.667 -15.589  1.00  0.00     0.144 C 
BRANCH  38  40
HETATM   40  O5  UNL     1       4.504 -13.376 -16.270  1.00  0.00    -0.349 OA
ATOM     41  H5  UNL     1       3.671 -12.958 -16.088  1.00  0.00     0.219 HD
ENDBRANCH  38  40
BRANCH  38  42
HETATM   42  C25 UNL     1       3.125 -15.198 -16.467  1.00  0.00     0.066 C 
HETATM   43  C26 UNL     1       2.604 -16.222 -15.513  1.00  0.00     0.019 C 
HETATM   44  C27 UNL     1       1.942 -17.274 -16.327  1.00  0.00     0.053 C 
HETATM   45  C28 UNL     1       2.127 -16.921 -17.745  1.00  0.00    -0.010 C 
HETATM   46  N8  UNL     1       1.631 -17.576 -18.727  1.00  0.00    -0.335 N 
HETATM   47  C31 UNL     1       2.957 -15.737 -17.834  1.00  0.00     0.065 C 
HETATM   48  C29 UNL     1       0.838 -18.728 -18.636  1.00  0.00     0.217 C 
ATOM     49  H8  UNL     1       1.832 -17.225 -19.664  1.00  0.00     0.168 HD
HETATM   50  C30 UNL     1       1.285 -20.014 -19.254  1.00  0.00     0.117 C 
HETATM   51  O6  UNL     1      -0.273 -18.758 -18.046  1.00  0.00    -0.274 OA
ENDBRANCH  38  42
ENDBRANCH   1  31
TORSDOF 12
ENDMDL
