MODEL 1
REMARK VINA RESULT: -9.546513251      0.000      0.000
REMARK  13 active torsions:
REMARK  status: ('A' for Active; 'I' for Inactive)
REMARK    1  A    between atoms: C2_2  and  N1_3 
REMARK       I    between atoms: N1_3  and  C3_5 
REMARK    2  A    between atoms: C3_5  and  C4_7 
REMARK    3  A    between atoms: N3_15  and  C9_16 
REMARK    4  A    between atoms: C9_16  and  O2_17 
REMARK    5  A    between atoms: C10_19  and  C11_20 
REMARK    6  A    between atoms: C10_19  and  N4_24 
REMARK    7  A    between atoms: C11_20  and  C12_21 
REMARK       I    between atoms: N4_24  and  C15_26 
REMARK    8  A    between atoms: C15_26  and  C16_28 
REMARK    9  A    between atoms: C21_33  and  C22_34 
REMARK   10  A    between atoms: C22_34  and  C23_35 
REMARK   11  A    between atoms: C23_35  and  C24_36 
REMARK   12  A    between atoms: C24_36  and  N5_37 
REMARK       I    between atoms: N6_40  and  C27_41 
REMARK   13  A    between atoms: C27_41  and  C28_43 
ROOT
HETATM    1  N4  UNL     1      12.594 -19.999 -16.245  1.00  0.00    -0.323 N 
ATOM      2  H4  UNL     1      12.405 -20.604 -15.446  1.00  0.00     0.169 HD
HETATM    3  C15 UNL     1      12.247 -18.634 -16.134  1.00  0.00     0.227 C 
HETATM    4  O3  UNL     1      12.511 -17.906 -17.154  1.00  0.00    -0.273 OA
ENDROOT
BRANCH   3   5
HETATM    5  C16 UNL     1      11.633 -17.955 -14.988  1.00  0.00     0.093 A 
HETATM    6  C17 UNL     1      10.512 -18.706 -14.308  1.00  0.00     0.018 A 
HETATM    7  C18 UNL     1       9.177 -18.628 -15.008  1.00  0.00    -0.034 A 
HETATM    8  C21 UNL     1      10.122 -17.524 -15.065  1.00  0.00    -0.015 A 
HETATM    9  C19 UNL     1       8.035 -18.778 -14.013  1.00  0.00     0.016 C 
HETATM   10  C20 UNL     1       8.927 -19.334 -16.299  1.00  0.00     0.016 C 
BRANCH   8  11
HETATM   11  C22 UNL     1       9.914 -16.210 -14.405  1.00  0.00     0.016 C 
BRANCH  11  12
HETATM   12  C23 UNL     1       8.514 -15.802 -14.102  1.00  0.00     0.045 C 
BRANCH  12  13
HETATM   13  C24 UNL     1       8.184 -14.689 -15.123  1.00  0.00     0.063 C 
BRANCH  13  14
HETATM   14  N5  UNL     1       7.273 -15.031 -16.106  1.00  0.00    -0.371 N 
HETATM   15  C25 UNL     1       5.989 -15.418 -15.670  1.00  0.00     0.147 C 
HETATM   16  C26 UNL     1       5.620 -16.815 -16.178  1.00  0.00     0.146 C 
HETATM   17  N6  UNL     1       5.940 -16.963 -17.571  1.00  0.00    -0.344 N 
HETATM   18  C27 UNL     1       5.010 -17.508 -18.532  1.00  0.00     0.251 C 
HETATM   19  C35 UNL     1       7.251 -16.574 -18.037  1.00  0.00     0.170 C 
HETATM   20  O4  UNL     1       5.350 -17.565 -19.734  1.00  0.00    -0.271 OA
HETATM   21  C36 UNL     1       7.609 -15.230 -17.447  1.00  0.00     0.083 C 
BRANCH  18  22
HETATM   22  C28 UNL     1       3.683 -17.995 -18.124  1.00  0.00     0.280 C 
HETATM   23  C29 UNL     1       3.459 -19.246 -19.018  1.00  0.00     0.043 C 
HETATM   24  C30 UNL     1       2.081 -19.783 -18.913  1.00  0.00     0.004 C 
HETATM   25  C31 UNL     1       1.044 -18.770 -19.291  1.00  0.00     0.028 C 
HETATM   26  C32 UNL     1       1.756 -17.440 -19.473  1.00  0.00     0.237 C 
HETATM   27  N7  UNL     1       2.582 -17.115 -18.320  1.00  0.00    -0.062 N 
HETATM   28  C33 UNL     1       1.646 -17.205 -17.164  1.00  0.00     0.273 C 
HETATM   29  C34 UNL     1       2.888 -15.705 -18.413  1.00  0.00     0.273 C 
ENDBRANCH  18  22
ENDBRANCH  13  14
ENDBRANCH  12  13
ENDBRANCH  11  12
ENDBRANCH   8  11
ENDBRANCH   3   5
BRANCH   1  30
HETATM   30  C10 UNL     1      13.212 -20.608 -17.438  1.00  0.00     0.082 C 
HETATM   31  C9  UNL     1      13.833 -21.881 -17.142  1.00  0.00     0.167 C 
BRANCH  31  32
HETATM   32  N3  UNL     1      14.280 -22.975 -17.861  1.00  0.00    -0.325 N 
HETATM   33  C4  UNL     1      15.686 -22.905 -18.342  1.00  0.00     0.380 C 
HETATM   34  N2  UNL     1      15.815 -23.190 -19.724  1.00  0.00    -0.045 N 
HETATM   35  C5  UNL     1      14.573 -23.049 -20.441  1.00  0.00     0.235 C 
ATOM     36  H22 UNL     1      16.548 -22.622 -20.149  1.00  0.00     0.280 HD
ATOM     37  H21 UNL     1      16.217 -24.116 -19.870  1.00  0.00     0.280 HD
HETATM   38  C6  UNL     1      13.888 -24.393 -20.504  1.00  0.00     0.029 C 
HETATM   39  C7  UNL     1      14.025 -25.070 -19.168  1.00  0.00     0.022 C 
HETATM   40  C8  UNL     1      13.456 -24.150 -18.100  1.00  0.00     0.128 C 
BRANCH  33  41
HETATM   41  C3  UNL     1      16.611 -23.692 -17.485  1.00  0.00     0.268 C 
HETATM   42  N1  UNL     1      17.051 -24.987 -17.785  1.00  0.00    -0.358 N 
ATOM     43  H1  UNL     1      16.737 -25.438 -18.644  1.00  0.00     0.162 HD
HETATM   44  O1  UNL     1      17.036 -23.159 -16.406  1.00  0.00    -0.269 OA
BRANCH  42  45
HETATM   45  C2  UNL     1      17.944 -25.695 -16.897  1.00  0.00     0.118 C 
HETATM   46  C1  UNL     1      18.537 -26.901 -17.563  1.00  0.00     0.026 C 
ENDBRANCH  42  45
ENDBRANCH  33  41
ENDBRANCH  31  32
BRANCH  31  47
HETATM   47  O2  UNL     1      14.016 -22.023 -15.828  1.00  0.00    -0.344 OA
ATOM     48  H2  UNL     1      13.791 -21.238 -15.342  1.00  0.00     0.219 HD
ENDBRANCH  31  47
BRANCH  30  49
HETATM   49  C11 UNL     1      12.511 -20.299 -18.677  1.00  0.00     0.012 C 
BRANCH  49  50
HETATM   50  C12 UNL     1      11.558 -21.233 -19.303  1.00  0.00     0.010 A 
HETATM   51  C13 UNL     1      10.330 -21.782 -18.744  1.00  0.00     0.009 A 
HETATM   52  C14 UNL     1      10.173 -20.604 -19.612  1.00  0.00     0.009 A 
ENDBRANCH  49  50
ENDBRANCH  30  49
ENDBRANCH   1  30
TORSDOF 13
ENDMDL
MODEL 2
REMARK VINA RESULT: -9.353129478      0.965      1.137
REMARK  13 active torsions:
REMARK  status: ('A' for Active; 'I' for Inactive)
REMARK    1  A    between atoms: C2_2  and  N1_3 
REMARK       I    between atoms: N1_3  and  C3_5 
REMARK    2  A    between atoms: C3_5  and  C4_7 
REMARK    3  A    between atoms: N3_15  and  C9_16 
REMARK    4  A    between atoms: C9_16  and  O2_17 
REMARK    5  A    between atoms: C10_19  and  C11_20 
REMARK    6  A    between atoms: C10_19  and  N4_24 
REMARK    7  A    between atoms: C11_20  and  C12_21 
REMARK       I    between atoms: N4_24  and  C15_26 
REMARK    8  A    between atoms: C15_26  and  C16_28 
REMARK    9  A    between atoms: C21_33  and  C22_34 
REMARK   10  A    between atoms: C22_34  and  C23_35 
REMARK   11  A    between atoms: C23_35  and  C24_36 
REMARK   12  A    between atoms: C24_36  and  N5_37 
REMARK       I    between atoms: N6_40  and  C27_41 
REMARK   13  A    between atoms: C27_41  and  C28_43 
ROOT
HETATM    1  N4  UNL     1      13.262 -19.470 -17.063  1.00  0.00    -0.323 N 
ATOM      2  H4  UNL     1      13.746 -19.621 -16.178  1.00  0.00     0.169 HD
HETATM    3  C15 UNL     1      12.428 -18.333 -17.173  1.00  0.00     0.227 C 
HETATM    4  O3  UNL     1      11.847 -18.173 -18.302  1.00  0.00    -0.273 OA
ENDROOT
BRANCH   3   5
HETATM    5  C16 UNL     1      12.163 -17.315 -16.151  1.00  0.00     0.093 A 
HETATM    6  C17 UNL     1      12.472 -17.720 -14.728  1.00  0.00     0.018 A 
HETATM    7  C18 UNL     1      11.424 -18.585 -14.071  1.00  0.00    -0.034 A 
HETATM    8  C21 UNL     1      11.060 -17.583 -15.062  1.00  0.00    -0.015 A 
HETATM    9  C19 UNL     1      11.431 -18.389 -12.562  1.00  0.00     0.016 C 
HETATM   10  C20 UNL     1      11.212 -20.005 -14.478  1.00  0.00     0.016 C 
BRANCH   8  11
HETATM   11  C22 UNL     1      10.305 -16.342 -14.757  1.00  0.00     0.016 C 
BRANCH  11  12
HETATM   12  C23 UNL     1       8.852 -16.472 -14.456  1.00  0.00     0.045 C 
BRANCH  12  13
HETATM   13  C24 UNL     1       8.212 -15.159 -14.963  1.00  0.00     0.063 C 
BRANCH  13  14
HETATM   14  N5  UNL     1       7.243 -15.305 -15.940  1.00  0.00    -0.371 N 
HETATM   15  C25 UNL     1       5.909 -15.423 -15.493  1.00  0.00     0.147 C 
HETATM   16  C26 UNL     1       5.259 -16.715 -16.000  1.00  0.00     0.146 C 
HETATM   17  N6  UNL     1       5.532 -16.920 -17.395  1.00  0.00    -0.344 N 
HETATM   18  C27 UNL     1       4.502 -17.261 -18.350  1.00  0.00     0.251 C 
HETATM   19  C35 UNL     1       6.890 -16.806 -17.872  1.00  0.00     0.170 C 
HETATM   20  O4  UNL     1       4.814 -17.384 -19.554  1.00  0.00    -0.271 OA
HETATM   21  C36 UNL     1       7.520 -15.565 -17.283  1.00  0.00     0.083 C 
BRANCH  18  22
HETATM   22  C28 UNL     1       3.107 -17.468 -17.931  1.00  0.00     0.280 C 
HETATM   23  C29 UNL     1       2.649 -18.693 -18.769  1.00  0.00     0.043 C 
HETATM   24  C30 UNL     1       1.194 -18.954 -18.652  1.00  0.00     0.004 C 
HETATM   25  C31 UNL     1       0.369 -17.781 -19.084  1.00  0.00     0.028 C 
HETATM   26  C32 UNL     1       1.320 -16.620 -19.320  1.00  0.00     0.237 C 
HETATM   27  N7  UNL     1       2.193 -16.405 -18.175  1.00  0.00    -0.062 N 
HETATM   28  C33 UNL     1       1.257 -16.263 -17.024  1.00  0.00     0.273 C 
HETATM   29  C34 UNL     1       2.762 -15.085 -18.330  1.00  0.00     0.273 C 
ENDBRANCH  18  22
ENDBRANCH  13  14
ENDBRANCH  12  13
ENDBRANCH  11  12
ENDBRANCH   8  11
ENDBRANCH   3   5
BRANCH   1  30
HETATM   30  C10 UNL     1      13.478 -20.452 -18.143  1.00  0.00     0.082 C 
HETATM   31  C9  UNL     1      14.326 -21.546 -17.723  1.00  0.00     0.167 C 
BRANCH  31  32
HETATM   32  N3  UNL     1      14.622 -22.820 -18.171  1.00  0.00    -0.325 N 
HETATM   33  C4  UNL     1      16.020 -23.039 -18.631  1.00  0.00     0.380 C 
HETATM   34  N2  UNL     1      16.095 -23.641 -19.913  1.00  0.00    -0.045 N 
HETATM   35  C5  UNL     1      14.873 -23.506 -20.665  1.00  0.00     0.235 C 
ATOM     36  H22 UNL     1      16.889 -23.280 -20.441  1.00  0.00     0.280 HD
ATOM     37  H21 UNL     1      16.374 -24.619 -19.841  1.00  0.00     0.280 HD
HETATM   38  C6  UNL     1      14.021 -24.732 -20.439  1.00  0.00     0.029 C 
HETATM   39  C7  UNL     1      14.085 -25.105 -18.984  1.00  0.00     0.022 C 
HETATM   40  C8  UNL     1      13.651 -23.905 -18.158  1.00  0.00     0.128 C 
BRANCH  33  41
HETATM   41  C3  UNL     1      16.846 -23.726 -17.604  1.00  0.00     0.268 C 
HETATM   42  N1  UNL     1      17.214 -25.077 -17.665  1.00  0.00    -0.358 N 
ATOM     43  H1  UNL     1      16.914 -25.643 -18.458  1.00  0.00     0.162 HD
HETATM   44  O1  UNL     1      17.249 -23.049 -16.601  1.00  0.00    -0.269 OA
BRANCH  42  45
HETATM   45  C2  UNL     1      18.011 -25.678 -16.621  1.00  0.00     0.118 C 
HETATM   46  C1  UNL     1      18.517 -27.031 -17.030  1.00  0.00     0.026 C 
ENDBRANCH  42  45
ENDBRANCH  33  41
ENDBRANCH  31  32
BRANCH  31  47
HETATM   47  O2  UNL     1      14.992 -21.228 -16.610  1.00  0.00    -0.344 OA
ATOM     48  H2  UNL     1      15.630 -20.539 -16.752  1.00  0.00     0.219 HD
ENDBRANCH  31  47
BRANCH  30  49
HETATM   49  C11 UNL     1      12.340 -20.587 -19.042  1.00  0.00     0.012 C 
BRANCH  49  50
HETATM   50  C12 UNL     1      11.266 -21.572 -18.821  1.00  0.00     0.010 A 
HETATM   51  C13 UNL     1      10.588 -21.906 -17.575  1.00  0.00     0.009 A 
HETATM   52  C14 UNL     1       9.900 -20.939 -18.445  1.00  0.00     0.009 A 
ENDBRANCH  49  50
ENDBRANCH  30  49
ENDBRANCH   1  30
TORSDOF 13
ENDMDL
MODEL 3
REMARK VINA RESULT: -9.207103289      1.575      1.959
REMARK  13 active torsions:
REMARK  status: ('A' for Active; 'I' for Inactive)
REMARK    1  A    between atoms: C2_2  and  N1_3 
REMARK       I    between atoms: N1_3  and  C3_5 
REMARK    2  A    between atoms: C3_5  and  C4_7 
REMARK    3  A    between atoms: N3_15  and  C9_16 
REMARK    4  A    between atoms: C9_16  and  O2_17 
REMARK    5  A    between atoms: C10_19  and  C11_20 
REMARK    6  A    between atoms: C10_19  and  N4_24 
REMARK    7  A    between atoms: C11_20  and  C12_21 
REMARK       I    between atoms: N4_24  and  C15_26 
REMARK    8  A    between atoms: C15_26  and  C16_28 
REMARK    9  A    between atoms: C21_33  and  C22_34 
REMARK   10  A    between atoms: C22_34  and  C23_35 
REMARK   11  A    between atoms: C23_35  and  C24_36 
REMARK   12  A    between atoms: C24_36  and  N5_37 
REMARK       I    between atoms: N6_40  and  C27_41 
REMARK   13  A    between atoms: C27_41  and  C28_43 
ROOT
HETATM    1  N4  UNL     1      10.976 -19.163 -17.132  1.00  0.00    -0.323 N 
ATOM      2  H4  UNL     1      10.253 -19.602 -16.563  1.00  0.00     0.169 HD
HETATM    3  C15 UNL     1      11.268 -17.801 -16.891  1.00  0.00     0.227 C 
HETATM    4  O3  UNL     1      12.188 -17.290 -17.619  1.00  0.00    -0.273 OA
ENDROOT
BRANCH   3   5
HETATM    5  C16 UNL     1      10.649 -16.914 -15.901  1.00  0.00     0.093 A 
HETATM    6  C17 UNL     1      11.259 -16.949 -14.519  1.00  0.00     0.018 A 
HETATM    7  C18 UNL     1      10.834 -18.119 -13.665  1.00  0.00    -0.034 A 
HETATM    8  C21 UNL     1       9.932 -17.536 -14.647  1.00  0.00    -0.015 A 
HETATM    9  C19 UNL     1      10.900 -17.762 -12.187  1.00  0.00     0.016 C 
HETATM   10  C20 UNL     1      11.295 -19.509 -13.955  1.00  0.00     0.016 C 
BRANCH   8  11
HETATM   11  C22 UNL     1       8.706 -16.771 -14.306  1.00  0.00     0.016 C 
BRANCH  11  12
HETATM   12  C23 UNL     1       8.762 -15.287 -14.420  1.00  0.00     0.045 C 
BRANCH  12  13
HETATM   13  C24 UNL     1       7.287 -14.824 -14.441  1.00  0.00     0.063 C 
BRANCH  13  14
HETATM   14  N5  UNL     1       6.584 -15.123 -15.595  1.00  0.00    -0.371 N 
HETATM   15  C25 UNL     1       5.258 -15.574 -15.426  1.00  0.00     0.147 C 
HETATM   16  C26 UNL     1       5.042 -16.943 -16.079  1.00  0.00     0.146 C 
HETATM   17  N6  UNL     1       5.615 -16.986 -17.396  1.00  0.00    -0.344 N 
HETATM   18  C27 UNL     1       4.896 -17.489 -18.543  1.00  0.00     0.251 C 
HETATM   19  C35 UNL     1       6.972 -16.531 -17.588  1.00  0.00     0.170 C 
HETATM   20  O4  UNL     1       5.451 -17.456 -19.663  1.00  0.00    -0.271 OA
HETATM   21  C36 UNL     1       7.164 -15.221 -16.861  1.00  0.00     0.083 C 
BRANCH  18  22
HETATM   22  C28 UNL     1       3.537 -18.039 -18.417  1.00  0.00     0.280 C 
HETATM   23  C29 UNL     1       3.547 -19.268 -19.366  1.00  0.00     0.043 C 
HETATM   24  C30 UNL     1       2.199 -19.861 -19.548  1.00  0.00     0.004 C 
HETATM   25  C31 UNL     1       1.214 -18.876 -20.099  1.00  0.00     0.028 C 
HETATM   26  C32 UNL     1       1.890 -17.514 -20.106  1.00  0.00     0.237 C 
HETATM   27  N7  UNL     1       2.459 -17.195 -18.805  1.00  0.00    -0.062 N 
HETATM   28  C33 UNL     1       1.319 -17.357 -17.859  1.00  0.00     0.273 C 
HETATM   29  C34 UNL     1       2.716 -15.773 -18.803  1.00  0.00     0.273 C 
ENDBRANCH  18  22
ENDBRANCH  13  14
ENDBRANCH  12  13
ENDBRANCH  11  12
ENDBRANCH   8  11
ENDBRANCH   3   5
BRANCH   1  30
HETATM   30  C10 UNL     1      11.647 -19.991 -18.152  1.00  0.00     0.082 C 
HETATM   31  C9  UNL     1      12.577 -20.931 -17.565  1.00  0.00     0.167 C 
BRANCH  31  32
HETATM   32  N3  UNL     1      13.232 -22.082 -17.964  1.00  0.00    -0.325 N 
HETATM   33  C4  UNL     1      14.659 -21.917 -18.352  1.00  0.00     0.380 C 
HETATM   34  N2  UNL     1      14.963 -22.492 -19.611  1.00  0.00    -0.045 N 
HETATM   35  C5  UNL     1      13.792 -22.707 -20.423  1.00  0.00     0.235 C 
ATOM     36  H22 UNL     1      15.656 -21.935 -20.110  1.00  0.00     0.280 HD
ATOM     37  H21 UNL     1      15.494 -23.356 -19.499  1.00  0.00     0.280 HD
HETATM   38  C6  UNL     1      13.296 -24.115 -20.205  1.00  0.00     0.029 C 
HETATM   39  C7  UNL     1      13.382 -24.437 -18.738  1.00  0.00     0.022 C 
HETATM   40  C8  UNL     1      12.594 -23.390 -17.967  1.00  0.00     0.128 C 
BRANCH  33  41
HETATM   41  C3  UNL     1      15.585 -22.338 -17.268  1.00  0.00     0.268 C 
HETATM   42  N1  UNL     1      15.473 -21.927 -15.933  1.00  0.00    -0.358 N 
ATOM     43  H1  UNL     1      14.712 -21.305 -15.662  1.00  0.00     0.162 HD
HETATM   44  O1  UNL     1      16.545 -23.125 -17.564  1.00  0.00    -0.269 OA
BRANCH  42  45
HETATM   45  C2  UNL     1      16.419 -22.371 -14.936  1.00  0.00     0.118 C 
HETATM   46  C1  UNL     1      17.393 -21.285 -14.583  1.00  0.00     0.026 C 
ENDBRANCH  42  45
ENDBRANCH  33  41
ENDBRANCH  31  32
BRANCH  31  47
HETATM   47  O2  UNL     1      12.872 -20.585 -16.310  1.00  0.00    -0.344 OA
ATOM     48  H2  UNL     1      12.116 -20.261 -15.835  1.00  0.00     0.219 HD
ENDBRANCH  31  47
BRANCH  30  49
HETATM   49  C11 UNL     1      10.816 -20.268 -19.315  1.00  0.00     0.012 C 
BRANCH  49  50
HETATM   50  C12 UNL     1       9.665 -19.425 -19.687  1.00  0.00     0.010 A 
HETATM   51  C13 UNL     1       9.667 -18.043 -20.146  1.00  0.00     0.009 A 
HETATM   52  C14 UNL     1       9.607 -19.072 -21.196  1.00  0.00     0.009 A 
ENDBRANCH  49  50
ENDBRANCH  30  49
ENDBRANCH   1  30
TORSDOF 13
ENDMDL
MODEL 4
REMARK VINA RESULT: -9.162779101      2.227      3.082
REMARK  13 active torsions:
REMARK  status: ('A' for Active; 'I' for Inactive)
REMARK    1  A    between atoms: C2_2  and  N1_3 
REMARK       I    between atoms: N1_3  and  C3_5 
REMARK    2  A    between atoms: C3_5  and  C4_7 
REMARK    3  A    between atoms: N3_15  and  C9_16 
REMARK    4  A    between atoms: C9_16  and  O2_17 
REMARK    5  A    between atoms: C10_19  and  C11_20 
REMARK    6  A    between atoms: C10_19  and  N4_24 
REMARK    7  A    between atoms: C11_20  and  C12_21 
REMARK       I    between atoms: N4_24  and  C15_26 
REMARK    8  A    between atoms: C15_26  and  C16_28 
REMARK    9  A    between atoms: C21_33  and  C22_34 
REMARK   10  A    between atoms: C22_34  and  C23_35 
REMARK   11  A    between atoms: C23_35  and  C24_36 
REMARK   12  A    between atoms: C24_36  and  N5_37 
REMARK       I    between atoms: N6_40  and  C27_41 
REMARK   13  A    between atoms: C27_41  and  C28_43 
ROOT
HETATM    1  N4  UNL     1      13.378 -19.702 -17.344  1.00  0.00    -0.323 N 
ATOM      2  H4  UNL     1      13.908 -19.766 -16.476  1.00  0.00     0.169 HD
HETATM    3  C15 UNL     1      12.446 -18.646 -17.472  1.00  0.00     0.227 C 
HETATM    4  O3  UNL     1      11.808 -18.595 -18.579  1.00  0.00    -0.273 OA
ENDROOT
BRANCH   3   5
HETATM    5  C16 UNL     1      12.137 -17.601 -16.490  1.00  0.00     0.093 A 
HETATM    6  C17 UNL     1      12.585 -17.881 -15.074  1.00  0.00     0.018 A 
HETATM    7  C18 UNL     1      11.688 -18.812 -14.295  1.00  0.00    -0.034 A 
HETATM    8  C21 UNL     1      11.148 -17.920 -15.309  1.00  0.00    -0.015 A 
HETATM    9  C19 UNL     1      11.774 -18.523 -12.803  1.00  0.00     0.016 C 
HETATM   10  C20 UNL     1      11.610 -20.269 -14.607  1.00  0.00     0.016 C 
BRANCH   8  11
HETATM   11  C22 UNL     1      10.279 -16.751 -15.018  1.00  0.00     0.016 C 
BRANCH  11  12
HETATM   12  C23 UNL     1       8.983 -17.006 -14.330  1.00  0.00     0.045 C 
BRANCH  12  13
HETATM   13  C24 UNL     1       7.918 -16.996 -15.450  1.00  0.00     0.063 C 
BRANCH  13  14
HETATM   14  N5  UNL     1       6.790 -16.237 -15.195  1.00  0.00    -0.371 N 
HETATM   15  C25 UNL     1       5.630 -16.564 -15.930  1.00  0.00     0.147 C 
HETATM   16  C26 UNL     1       5.101 -15.357 -16.711  1.00  0.00     0.146 C 
HETATM   17  N6  UNL     1       5.079 -14.177 -15.891  1.00  0.00    -0.344 N 
HETATM   18  C27 UNL     1       3.930 -13.307 -15.806  1.00  0.00     0.251 C 
HETATM   19  C35 UNL     1       6.257 -13.825 -15.133  1.00  0.00     0.170 C 
HETATM   20  O4  UNL     1       3.975 -12.321 -15.038  1.00  0.00    -0.271 OA
HETATM   21  C36 UNL     1       6.792 -15.059 -14.446  1.00  0.00     0.083 C 
BRANCH  18  22
HETATM   22  C28 UNL     1       2.719 -13.556 -16.604  1.00  0.00     0.280 C 
HETATM   23  C29 UNL     1       2.219 -12.131 -16.969  1.00  0.00     0.043 C 
HETATM   24  C30 UNL     1       0.882 -12.141 -17.611  1.00  0.00     0.004 C 
HETATM   25  C31 UNL     1      -0.162 -12.775 -16.742  1.00  0.00     0.028 C 
HETATM   26  C32 UNL     1       0.552 -13.383 -15.547  1.00  0.00     0.237 C 
HETATM   27  N7  UNL     1       1.651 -14.243 -15.963  1.00  0.00    -0.062 N 
HETATM   28  C33 UNL     1       1.022 -15.205 -16.911  1.00  0.00     0.273 C 
HETATM   29  C34 UNL     1       1.998 -15.055 -14.818  1.00  0.00     0.273 C 
ENDBRANCH  18  22
ENDBRANCH  13  14
ENDBRANCH  12  13
ENDBRANCH  11  12
ENDBRANCH   8  11
ENDBRANCH   3   5
BRANCH   1  30
HETATM   30  C10 UNL     1      13.632 -20.718 -18.383  1.00  0.00     0.082 C 
HETATM   31  C9  UNL     1      14.531 -21.754 -17.923  1.00  0.00     0.167 C 
BRANCH  31  32
HETATM   32  N3  UNL     1      14.882 -23.032 -18.320  1.00  0.00    -0.325 N 
HETATM   33  C4  UNL     1      16.317 -23.238 -18.654  1.00  0.00     0.380 C 
HETATM   34  N2  UNL     1      16.511 -23.861 -19.913  1.00  0.00    -0.045 N 
HETATM   35  C5  UNL     1      15.356 -23.759 -20.769  1.00  0.00     0.235 C 
ATOM     36  H22 UNL     1      17.343 -23.498 -20.377  1.00  0.00     0.280 HD
ATOM     37  H21 UNL     1      16.796 -24.834 -19.798  1.00  0.00     0.280 HD
HETATM   38  C6  UNL     1      14.506 -24.993 -20.593  1.00  0.00     0.029 C 
HETATM   39  C7  UNL     1      14.449 -25.339 -19.131  1.00  0.00     0.022 C 
HETATM   40  C8  UNL     1      13.929 -24.131 -18.369  1.00  0.00     0.128 C 
BRANCH  33  41
HETATM   41  C3  UNL     1      17.061 -23.893 -17.547  1.00  0.00     0.268 C 
HETATM   42  N1  UNL     1      17.413 -25.249 -17.529  1.00  0.00    -0.358 N 
ATOM     43  H1  UNL     1      17.159 -25.843 -18.318  1.00  0.00     0.162 HD
HETATM   44  O1  UNL     1      17.406 -23.181 -16.546  1.00  0.00    -0.269 OA
BRANCH  42  45
HETATM   45  C2  UNL     1      18.129 -25.818 -16.411  1.00  0.00     0.118 C 
HETATM   46  C1  UNL     1      18.779 -27.118 -16.782  1.00  0.00     0.026 C 
ENDBRANCH  42  45
ENDBRANCH  33  41
ENDBRANCH  31  32
BRANCH  31  47
HETATM   47  O2  UNL     1      15.188 -21.360 -16.830  1.00  0.00    -0.344 OA
ATOM     48  H2  UNL     1      16.077 -21.694 -16.799  1.00  0.00     0.219 HD
ENDBRANCH  31  47
BRANCH  30  49
HETATM   49  C11 UNL     1      12.497 -20.942 -19.268  1.00  0.00     0.012 C 
BRANCH  49  50
HETATM   50  C12 UNL     1      11.477 -21.974 -19.004  1.00  0.00     0.010 A 
HETATM   51  C13 UNL     1      10.700 -22.188 -17.790  1.00  0.00     0.009 A 
HETATM   52  C14 UNL     1      10.039 -21.410 -18.851  1.00  0.00     0.009 A 
ENDBRANCH  49  50
ENDBRANCH  30  49
ENDBRANCH   1  30
TORSDOF 13
ENDMDL
MODEL 5
REMARK VINA RESULT: -9.146077772      2.456      3.409
REMARK  13 active torsions:
REMARK  status: ('A' for Active; 'I' for Inactive)
REMARK    1  A    between atoms: C2_2  and  N1_3 
REMARK       I    between atoms: N1_3  and  C3_5 
REMARK    2  A    between atoms: C3_5  and  C4_7 
REMARK    3  A    between atoms: N3_15  and  C9_16 
REMARK    4  A    between atoms: C9_16  and  O2_17 
REMARK    5  A    between atoms: C10_19  and  C11_20 
REMARK    6  A    between atoms: C10_19  and  N4_24 
REMARK    7  A    between atoms: C11_20  and  C12_21 
REMARK       I    between atoms: N4_24  and  C15_26 
REMARK    8  A    between atoms: C15_26  and  C16_28 
REMARK    9  A    between atoms: C21_33  and  C22_34 
REMARK   10  A    between atoms: C22_34  and  C23_35 
REMARK   11  A    between atoms: C23_35  and  C24_36 
REMARK   12  A    between atoms: C24_36  and  N5_37 
REMARK       I    between atoms: N6_40  and  C27_41 
REMARK   13  A    between atoms: C27_41  and  C28_43 
ROOT
HETATM    1  N4  UNL     1      11.230 -19.521 -17.080  1.00  0.00    -0.323 N 
ATOM      2  H4  UNL     1      10.440 -19.985 -16.631  1.00  0.00     0.169 HD
HETATM    3  C15 UNL     1      11.528 -18.197 -16.685  1.00  0.00     0.227 C 
HETATM    4  O3  UNL     1      12.532 -17.654 -17.264  1.00  0.00    -0.273 OA
ENDROOT
BRANCH   3   5
HETATM    5  C16 UNL     1      10.829 -17.381 -15.687  1.00  0.00     0.093 A 
HETATM    6  C17 UNL     1      11.529 -17.236 -14.355  1.00  0.00     0.018 A 
HETATM    7  C18 UNL     1      11.378 -18.416 -13.426  1.00  0.00    -0.034 A 
HETATM    8  C21 UNL     1      10.322 -18.052 -14.358  1.00  0.00    -0.015 A 
HETATM    9  C19 UNL     1      11.480 -17.975 -11.973  1.00  0.00     0.016 C 
HETATM   10  C20 UNL     1      12.060 -19.716 -13.694  1.00  0.00     0.016 C 
BRANCH   8  11
HETATM   11  C22 UNL     1       9.006 -17.497 -13.954  1.00  0.00     0.016 C 
BRANCH  11  12
HETATM   12  C23 UNL     1       7.786 -18.085 -14.576  1.00  0.00     0.045 C 
BRANCH  12  13
HETATM   13  C24 UNL     1       7.378 -17.093 -15.690  1.00  0.00     0.063 C 
BRANCH  13  14
HETATM   14  N5  UNL     1       6.279 -16.301 -15.410  1.00  0.00    -0.371 N 
HETATM   15  C25 UNL     1       5.069 -16.653 -16.044  1.00  0.00     0.147 C 
HETATM   16  C26 UNL     1       4.504 -15.490 -16.864  1.00  0.00     0.146 C 
HETATM   17  N6  UNL     1       4.552 -14.260 -16.123  1.00  0.00    -0.344 N 
HETATM   18  C27 UNL     1       3.422 -13.367 -16.018  1.00  0.00     0.251 C 
HETATM   19  C35 UNL     1       5.782 -13.880 -15.468  1.00  0.00     0.170 C 
HETATM   20  O4  UNL     1       3.532 -12.335 -15.320  1.00  0.00    -0.271 OA
HETATM   21  C36 UNL     1       6.347 -15.078 -14.740  1.00  0.00     0.083 C 
BRANCH  18  22
HETATM   22  C28 UNL     1       2.157 -13.645 -16.716  1.00  0.00     0.280 C 
HETATM   23  C29 UNL     1       1.687 -12.246 -17.200  1.00  0.00     0.043 C 
HETATM   24  C30 UNL     1       0.315 -12.266 -17.762  1.00  0.00     0.004 C 
HETATM   25  C31 UNL     1      -0.696 -12.762 -16.774  1.00  0.00     0.028 C 
HETATM   26  C32 UNL     1       0.066 -13.274 -15.563  1.00  0.00     0.237 C 
HETATM   27  N7  UNL     1       1.105 -14.217 -15.947  1.00  0.00    -0.062 N 
HETATM   28  C33 UNL     1       0.386 -15.245 -16.752  1.00  0.00     0.273 C 
HETATM   29  C34 UNL     1       1.491 -14.921 -14.745  1.00  0.00     0.273 C 
ENDBRANCH  18  22
ENDBRANCH  13  14
ENDBRANCH  12  13
ENDBRANCH  11  12
ENDBRANCH   8  11
ENDBRANCH   3   5
BRANCH   1  30
HETATM   30  C10 UNL     1      11.985 -20.277 -18.097  1.00  0.00     0.082 C 
HETATM   31  C9  UNL     1      12.835 -21.288 -17.505  1.00  0.00     0.167 C 
BRANCH  31  32
HETATM   32  N3  UNL     1      13.505 -22.418 -17.937  1.00  0.00    -0.325 N 
HETATM   33  C4  UNL     1      14.934 -22.225 -18.306  1.00  0.00     0.380 C 
HETATM   34  N2  UNL     1      15.255 -22.754 -19.581  1.00  0.00    -0.045 N 
HETATM   35  C5  UNL     1      14.094 -22.954 -20.410  1.00  0.00     0.235 C 
ATOM     36  H22 UNL     1      15.946 -22.173 -20.055  1.00  0.00     0.280 HD
ATOM     37  H21 UNL     1      15.794 -23.615 -19.493  1.00  0.00     0.280 HD
HETATM   38  C6  UNL     1      13.611 -24.374 -20.243  1.00  0.00     0.029 C 
HETATM   39  C7  UNL     1      13.688 -24.744 -18.788  1.00  0.00     0.022 C 
HETATM   40  C8  UNL     1      12.882 -23.732 -17.989  1.00  0.00     0.128 C 
BRANCH  33  41
HETATM   41  C3  UNL     1      15.855 -22.672 -17.228  1.00  0.00     0.268 C 
HETATM   42  N1  UNL     1      15.728 -22.305 -15.882  1.00  0.00    -0.358 N 
ATOM     43  H1  UNL     1      14.959 -21.699 -15.597  1.00  0.00     0.162 HD
HETATM   44  O1  UNL     1      16.825 -23.440 -17.542  1.00  0.00    -0.269 OA
BRANCH  42  45
HETATM   45  C2  UNL     1      16.670 -22.772 -14.891  1.00  0.00     0.118 C 
HETATM   46  C1  UNL     1      15.991 -23.059 -13.584  1.00  0.00     0.026 C 
ENDBRANCH  42  45
ENDBRANCH  33  41
ENDBRANCH  31  32
BRANCH  31  47
HETATM   47  O2  UNL     1      13.008 -21.057 -16.203  1.00  0.00    -0.344 OA
ATOM     48  H2  UNL     1      12.186 -20.965 -15.736  1.00  0.00     0.219 HD
ENDBRANCH  31  47
BRANCH  30  49
HETATM   49  C11 UNL     1      11.269 -20.433 -19.356  1.00  0.00     0.012 C 
BRANCH  49  50
HETATM   50  C12 UNL     1       9.984 -19.763 -19.626  1.00  0.00     0.010 A 
HETATM   51  C13 UNL     1       9.725 -18.341 -19.801  1.00  0.00     0.009 A 
HETATM   52  C14 UNL     1       9.894 -19.123 -21.036  1.00  0.00     0.009 A 
ENDBRANCH  49  50
ENDBRANCH  30  49
ENDBRANCH   1  30
TORSDOF 13
ENDMDL
