MODEL 1
REMARK VINA RESULT: -8.069899535      0.000      0.000
REMARK  3 active torsions:
REMARK  status: ('A' for Active; 'I' for Inactive)
REMARK    1  A    between atoms: C5_5  and  C6_6 
REMARK    2  A    between atoms: N1_9  and  C9_11 
REMARK    3  A    between atoms: C9_11  and  C10_12 
ROOT
HETATM    1  C6  UNL     1      21.061 -10.364  -3.913  1.00  0.00     0.078 A 
HETATM    2  C7  UNL     1      19.706 -10.190  -4.141  1.00  0.00     0.082 A 
HETATM    3  C8  UNL     1      19.074  -9.952  -2.942  1.00  0.00     0.118 A 
HETATM    4  N1  UNL     1      17.837  -9.749  -2.782  1.00  0.00    -0.370 N 
ATOM      5  H1  UNL     1      17.258  -9.763  -3.621  1.00  0.00     0.161 HD
HETATM    6  N3  UNL     1      20.034  -9.981  -2.006  1.00  0.00    -0.285 N 
ATOM      7  H3  UNL     1      19.888  -9.838  -1.006  1.00  0.00     0.188 HD
HETATM    8  N4  UNL     1      21.216 -10.227  -2.590  1.00  0.00    -0.297 N 
ATOM      9  H4  UNL     1      22.106 -10.300  -2.096  1.00  0.00     0.187 HD
ENDROOT
BRANCH   4  10
HETATM   10  C9  UNL     1      17.168  -9.500  -1.545  1.00  0.00     0.178 C 
BRANCH  10  11
HETATM   11  C10 UNL     1      15.806  -8.931  -1.746  1.00  0.00     0.026 A 
HETATM   12  C11 UNL     1      14.905  -8.821  -0.705  1.00  0.00     0.027 A 
HETATM   13  C12 UNL     1      13.641  -8.293  -0.893  1.00  0.00     0.003 A 
HETATM   14  C13 UNL     1      13.293  -7.871  -2.157  1.00  0.00     0.017 A 
HETATM   15  C14 UNL     1      14.197  -7.981  -3.200  1.00  0.00     0.088 A 
HETATM   16  N2  UNL     1      15.410  -8.502  -2.958  1.00  0.00    -0.368 N 
ATOM     17  H2  UNL     1      16.066  -8.577  -3.735  1.00  0.00     0.165 HD
ENDBRANCH  10  11
ENDBRANCH   4  10
BRANCH   1  18
HETATM   18  C5  UNL     1      22.090 -10.636  -4.905  1.00  0.00     0.060 A 
HETATM   19  C4  UNL     1      21.995 -10.182  -6.207  1.00  0.00     0.032 A 
HETATM   20  C3  UNL     1      22.962 -10.434  -7.151  1.00  0.00     0.010 A 
HETATM   21  C2  UNL     1      24.073 -11.167  -6.794  1.00  0.00    -0.047 A 
HETATM   22  C1  UNL     1      25.125 -11.448  -7.788  1.00  0.00     0.049 C 
HETATM   23  C15 UNL     1      24.166 -11.618  -5.489  1.00  0.00     0.095 A 
HETATM   24  N5  UNL     1      23.184 -11.346  -4.585  1.00  0.00    -0.364 N 
ATOM     25  H5  UNL     1      23.282 -11.695  -3.631  1.00  0.00     0.165 HD
ENDBRANCH   1  18
TORSDOF 3
ENDMDL
MODEL 2
REMARK VINA RESULT: -8.038179561      0.600      1.050
REMARK  3 active torsions:
REMARK  status: ('A' for Active; 'I' for Inactive)
REMARK    1  A    between atoms: C5_5  and  C6_6 
REMARK    2  A    between atoms: N1_9  and  C9_11 
REMARK    3  A    between atoms: C9_11  and  C10_12 
ROOT
HETATM    1  C6  UNL     1      21.063 -10.317  -3.897  1.00  0.00     0.078 A 
HETATM    2  C7  UNL     1      19.702 -10.189  -4.118  1.00  0.00     0.082 A 
HETATM    3  C8  UNL     1      19.072  -9.928  -2.921  1.00  0.00     0.118 A 
HETATM    4  N1  UNL     1      17.832  -9.754  -2.757  1.00  0.00    -0.370 N 
ATOM      5  H1  UNL     1      17.246  -9.815  -3.590  1.00  0.00     0.161 HD
HETATM    6  N3  UNL     1      20.041  -9.897  -1.994  1.00  0.00    -0.285 N 
ATOM      7  H3  UNL     1      19.900  -9.723  -0.998  1.00  0.00     0.188 HD
HETATM    8  N4  UNL     1      21.225 -10.130  -2.580  1.00  0.00    -0.297 N 
ATOM      9  H4  UNL     1      22.120 -10.160  -2.093  1.00  0.00     0.187 HD
ENDROOT
BRANCH   4  10
HETATM   10  C9  UNL     1      17.166  -9.482  -1.523  1.00  0.00     0.178 C 
BRANCH  10  11
HETATM   11  C10 UNL     1      15.802  -8.924  -1.731  1.00  0.00     0.026 A 
HETATM   12  C11 UNL     1      14.896  -8.816  -0.694  1.00  0.00     0.027 A 
HETATM   13  C12 UNL     1      13.629  -8.297  -0.888  1.00  0.00     0.003 A 
HETATM   14  C13 UNL     1      13.282  -7.883  -2.156  1.00  0.00     0.017 A 
HETATM   15  C14 UNL     1      14.190  -7.990  -3.195  1.00  0.00     0.088 A 
HETATM   16  N2  UNL     1      15.406  -8.502  -2.946  1.00  0.00    -0.368 N 
ATOM     17  H2  UNL     1      16.066  -8.575  -3.721  1.00  0.00     0.165 HD
ENDBRANCH  10  11
ENDBRANCH   4  10
BRANCH   1  18
HETATM   18  C5  UNL     1      22.090 -10.593  -4.888  1.00  0.00     0.060 A 
HETATM   19  C4  UNL     1      23.195 -11.375  -4.606  1.00  0.00     0.032 A 
HETATM   20  C3  UNL     1      24.171 -11.642  -5.537  1.00  0.00     0.010 A 
HETATM   21  C2  UNL     1      24.051 -11.114  -6.804  1.00  0.00    -0.047 A 
HETATM   22  C1  UNL     1      25.084 -11.387  -7.820  1.00  0.00     0.049 C 
HETATM   23  C15 UNL     1      22.943 -10.332  -7.084  1.00  0.00     0.095 A 
HETATM   24  N5  UNL     1      21.999 -10.092  -6.131  1.00  0.00    -0.364 N 
ATOM     25  H5  UNL     1      21.195  -9.512  -6.370  1.00  0.00     0.165 HD
ENDBRANCH   1  18
TORSDOF 3
ENDMDL
MODEL 3
REMARK VINA RESULT: -7.966210788      1.055      1.189
REMARK  3 active torsions:
REMARK  status: ('A' for Active; 'I' for Inactive)
REMARK    1  A    between atoms: C5_5  and  C6_6 
REMARK    2  A    between atoms: N1_9  and  C9_11 
REMARK    3  A    between atoms: C9_11  and  C10_12 
ROOT
HETATM    1  C6  UNL     1      20.281 -10.222  -3.262  1.00  0.00     0.078 A 
HETATM    2  C7  UNL     1      18.976  -9.883  -3.578  1.00  0.00     0.082 A 
HETATM    3  C8  UNL     1      18.276  -9.651  -2.415  1.00  0.00     0.118 A 
HETATM    4  N1  UNL     1      17.059  -9.320  -2.334  1.00  0.00    -0.370 N 
ATOM      5  H1  UNL     1      16.553  -9.216  -3.213  1.00  0.00     0.161 HD
HETATM    6  N3  UNL     1      19.147  -9.846  -1.414  1.00  0.00    -0.285 N 
ATOM      7  H3  UNL     1      18.935  -9.751  -0.420  1.00  0.00     0.188 HD
HETATM    8  N4  UNL     1      20.340 -10.187  -1.924  1.00  0.00    -0.297 N 
ATOM      9  H4  UNL     1      21.173 -10.390  -1.372  1.00  0.00     0.187 HD
ENDROOT
BRANCH   4  10
HETATM   10  C9  UNL     1      16.321  -9.076  -1.137  1.00  0.00     0.178 C 
BRANCH  10  11
HETATM   11  C10 UNL     1      14.850  -9.105  -1.366  1.00  0.00     0.026 A 
HETATM   12  C11 UNL     1      13.956  -8.695  -0.396  1.00  0.00     0.027 A 
HETATM   13  C12 UNL     1      12.590  -8.722  -0.611  1.00  0.00     0.003 A 
HETATM   14  C13 UNL     1      12.131  -9.173  -1.829  1.00  0.00     0.017 A 
HETATM   15  C14 UNL     1      13.027  -9.583  -2.801  1.00  0.00     0.088 A 
HETATM   16  N2  UNL     1      14.342  -9.534  -2.536  1.00  0.00    -0.368 N 
ATOM     17  H2  UNL     1      14.992  -9.838  -3.261  1.00  0.00     0.165 HD
ENDBRANCH  10  11
ENDBRANCH   4  10
BRANCH   1  18
HETATM   18  C5  UNL     1      21.352 -10.545  -4.191  1.00  0.00     0.060 A 
HETATM   19  C4  UNL     1      21.312 -10.169  -5.520  1.00  0.00     0.032 A 
HETATM   20  C3  UNL     1      22.320 -10.470  -6.405  1.00  0.00     0.010 A 
HETATM   21  C2  UNL     1      23.418 -11.173  -5.958  1.00  0.00    -0.047 A 
HETATM   22  C1  UNL     1      24.513 -11.506  -6.888  1.00  0.00     0.049 C 
HETATM   23  C15 UNL     1      23.456 -11.547  -4.626  1.00  0.00     0.095 A 
HETATM   24  N5  UNL     1      22.434 -11.228  -3.782  1.00  0.00    -0.364 N 
ATOM     25  H5  UNL     1      22.492 -11.519  -2.806  1.00  0.00     0.165 HD
ENDBRANCH   1  18
TORSDOF 3
ENDMDL
MODEL 4
REMARK VINA RESULT: -7.921480036      1.169      1.586
REMARK  3 active torsions:
REMARK  status: ('A' for Active; 'I' for Inactive)
REMARK    1  A    between atoms: C5_5  and  C6_6 
REMARK    2  A    between atoms: N1_9  and  C9_11 
REMARK    3  A    between atoms: C9_11  and  C10_12 
ROOT
HETATM    1  C6  UNL     1      20.282 -10.205  -3.275  1.00  0.00     0.078 A 
HETATM    2  C7  UNL     1      18.971  -9.889  -3.586  1.00  0.00     0.082 A 
HETATM    3  C8  UNL     1      18.278  -9.638  -2.422  1.00  0.00     0.118 A 
HETATM    4  N1  UNL     1      17.059  -9.319  -2.338  1.00  0.00    -0.370 N 
ATOM      5  H1  UNL     1      16.543  -9.243  -3.214  1.00  0.00     0.161 HD
HETATM    6  N3  UNL     1      19.161  -9.799  -1.426  1.00  0.00    -0.285 N 
ATOM      7  H3  UNL     1      18.958  -9.683  -0.432  1.00  0.00     0.188 HD
HETATM    8  N4  UNL     1      20.353 -10.138  -1.939  1.00  0.00    -0.297 N 
ATOM      9  H4  UNL     1      21.194 -10.319  -1.390  1.00  0.00     0.187 HD
ENDROOT
BRANCH   4  10
HETATM   10  C9  UNL     1      16.329  -9.055  -1.139  1.00  0.00     0.178 C 
BRANCH  10  11
HETATM   11  C10 UNL     1      14.856  -9.099  -1.356  1.00  0.00     0.026 A 
HETATM   12  C11 UNL     1      13.968  -8.673  -0.388  1.00  0.00     0.027 A 
HETATM   13  C12 UNL     1      12.600  -8.713  -0.590  1.00  0.00     0.003 A 
HETATM   14  C13 UNL     1      12.135  -9.193  -1.795  1.00  0.00     0.017 A 
HETATM   15  C14 UNL     1      13.025  -9.619  -2.765  1.00  0.00     0.088 A 
HETATM   16  N2  UNL     1      14.342  -9.556  -2.512  1.00  0.00    -0.368 N 
ATOM     17  H2  UNL     1      14.988  -9.873  -3.236  1.00  0.00     0.165 HD
ENDBRANCH  10  11
ENDBRANCH   4  10
BRANCH   1  18
HETATM   18  C5  UNL     1      21.349 -10.537  -4.206  1.00  0.00     0.060 A 
HETATM   19  C4  UNL     1      22.425 -11.326  -3.842  1.00  0.00     0.032 A 
HETATM   20  C3  UNL     1      23.438 -11.645  -4.716  1.00  0.00     0.010 A 
HETATM   21  C2  UNL     1      23.386 -11.164  -6.007  1.00  0.00    -0.047 A 
HETATM   22  C1  UNL     1      24.459 -11.494  -6.962  1.00  0.00     0.049 C 
HETATM   23  C15 UNL     1      22.307 -10.376  -6.368  1.00  0.00     0.095 A 
HETATM   24  N5  UNL     1      21.325 -10.084  -5.470  1.00  0.00    -0.364 N 
ATOM     25  H5  UNL     1      20.543  -9.500  -5.768  1.00  0.00     0.165 HD
ENDBRANCH   1  18
TORSDOF 3
ENDMDL
MODEL 5
REMARK VINA RESULT: -7.733605606      1.404      1.693
REMARK  3 active torsions:
REMARK  status: ('A' for Active; 'I' for Inactive)
REMARK    1  A    between atoms: C5_5  and  C6_6 
REMARK    2  A    between atoms: N1_9  and  C9_11 
REMARK    3  A    between atoms: C9_11  and  C10_12 
ROOT
HETATM    1  C6  UNL     1      21.114 -10.178  -3.910  1.00  0.00     0.078 A 
HETATM    2  C7  UNL     1      19.741 -10.202  -4.085  1.00  0.00     0.082 A 
HETATM    3  C8  UNL     1      19.129  -9.831  -2.909  1.00  0.00     0.118 A 
HETATM    4  N1  UNL     1      17.884  -9.745  -2.714  1.00  0.00    -0.370 N 
ATOM      5  H1  UNL     1      17.280  -9.973  -3.504  1.00  0.00     0.161 HD
HETATM    6  N3  UNL     1      20.120  -9.585  -2.039  1.00  0.00    -0.285 N 
ATOM      7  H3  UNL     1      19.995  -9.286  -1.071  1.00  0.00     0.188 HD
HETATM    8  N4  UNL     1      21.301  -9.793  -2.640  1.00  0.00    -0.297 N 
ATOM      9  H4  UNL     1      22.211  -9.676  -2.194  1.00  0.00     0.187 HD
ENDROOT
BRANCH   4  10
HETATM   10  C9  UNL     1      17.236  -9.361  -1.501  1.00  0.00     0.178 C 
BRANCH  10  11
HETATM   11  C10 UNL     1      16.515  -8.066  -1.634  1.00  0.00     0.026 A 
HETATM   12  C11 UNL     1      15.135  -7.997  -1.608  1.00  0.00     0.027 A 
HETATM   13  C12 UNL     1      14.466  -6.793  -1.731  1.00  0.00     0.003 A 
HETATM   14  C13 UNL     1      15.214  -5.646  -1.881  1.00  0.00     0.017 A 
HETATM   15  C14 UNL     1      16.596  -5.714  -1.907  1.00  0.00     0.088 A 
HETATM   16  N2  UNL     1      17.190  -6.912  -1.782  1.00  0.00    -0.368 N 
ATOM     17  H2  UNL     1      18.210  -6.948  -1.802  1.00  0.00     0.165 HD
ENDBRANCH  10  11
ENDBRANCH   4  10
BRANCH   1  18
HETATM   18  C5  UNL     1      22.131 -10.500  -4.899  1.00  0.00     0.060 A 
HETATM   19  C4  UNL     1      23.190 -11.343  -4.619  1.00  0.00     0.032 A 
HETATM   20  C3  UNL     1      24.155 -11.653  -5.548  1.00  0.00     0.010 A 
HETATM   21  C2  UNL     1      24.070 -11.108  -6.811  1.00  0.00    -0.047 A 
HETATM   22  C1  UNL     1      25.092 -11.427  -7.825  1.00  0.00     0.049 C 
HETATM   23  C15 UNL     1      23.008 -10.265  -7.089  1.00  0.00     0.095 A 
HETATM   24  N5  UNL     1      22.073  -9.984  -6.138  1.00  0.00    -0.364 N 
ATOM     25  H5  UNL     1      21.303  -9.358  -6.375  1.00  0.00     0.165 HD
ENDBRANCH   1  18
TORSDOF 3
ENDMDL
