MODEL 1
REMARK VINA RESULT: -5.922739127      0.000      0.000
REMARK  4 active torsions:
REMARK  status: ('A' for Active; 'I' for Inactive)
REMARK    1  A    between atoms: N1_2  and  C3_4 
REMARK    2  A    between atoms: C3_4  and  C4_5 
REMARK    3  A    between atoms: C4_5  and  O1_6 
REMARK       I    between atoms: N2_8  and  C5_10 
REMARK    4  A    between atoms: C5_10  and  C6_12 
ROOT
HETATM    1  C3  UNL     1      -3.783   6.199  13.256  1.00  0.00     0.105 C 
HETATM    2  N2  UNL     1      -4.078   5.755  14.420  1.00  0.00    -0.315 N 
ATOM      3  H2  UNL     1      -3.572   6.078  15.244  1.00  0.00     0.170 HD
HETATM    4  C5  UNL     1      -5.127   4.805  14.537  1.00  0.00     0.228 C 
HETATM    5  O2  UNL     1      -6.119   4.935  13.777  1.00  0.00    -0.273 OA
ENDROOT
BRANCH   4   6
HETATM    6  C6  UNL     1      -5.101   3.694  15.495  1.00  0.00     0.100 C 
HETATM    7  C7  UNL     1      -6.456   3.027  15.636  1.00  0.00     0.038 C 
HETATM    8  C8  UNL     1      -6.272   2.041  16.771  1.00  0.00     0.032 C 
HETATM    9  C9  UNL     1      -6.147   2.696  18.105  1.00  0.00     0.029 C 
HETATM   10  C10 UNL     1      -7.333   0.990  16.808  1.00  0.00     0.029 C 
HETATM   11  S1  UNL     1      -4.719   1.289  16.253  1.00  0.00     0.032 S 
HETATM   12  O3  UNL     1      -5.076  -0.061  15.343  1.00  0.00    -0.256 OA
HETATM   13  C11 UNL     1      -4.149   2.595  15.150  1.00  0.00     0.043 C 
HETATM   14  C12 UNL     1      -2.717   2.978  15.475  1.00  0.00     0.030 C 
HETATM   15  C13 UNL     1      -4.190   2.156  13.724  1.00  0.00     0.030 C 
ENDBRANCH   4   6
BRANCH   1  16
HETATM   16  N1  UNL     1      -4.409   5.826  12.056  1.00  0.00    -0.378 N 
HETATM   17  C1  UNL     1      -5.425   6.695  11.498  1.00  0.00     0.150 C 
HETATM   18  C2  UNL     1      -4.099   4.597  11.330  1.00  0.00     0.150 C 
ENDBRANCH   1  16
BRANCH   1  19
HETATM   19  C4  UNL     1      -2.676   7.200  13.159  1.00  0.00     0.240 C 
BRANCH  19  20
HETATM   20  O1  UNL     1      -2.299   7.538  14.457  1.00  0.00    -0.393 OA
ATOM     21  H1  UNL     1      -1.633   8.212  14.397  1.00  0.00     0.209 HD
ENDBRANCH  19  20
ENDBRANCH   1  19
TORSDOF 4
ENDMDL
MODEL 2
REMARK VINA RESULT: -5.562216145      3.046      6.163
REMARK  4 active torsions:
REMARK  status: ('A' for Active; 'I' for Inactive)
REMARK    1  A    between atoms: N1_2  and  C3_4 
REMARK    2  A    between atoms: C3_4  and  C4_5 
REMARK    3  A    between atoms: C4_5  and  O1_6 
REMARK       I    between atoms: N2_8  and  C5_10 
REMARK    4  A    between atoms: C5_10  and  C6_12 
ROOT
HETATM    1  C3  UNL     1      -4.072   2.056  14.046  1.00  0.00     0.105 C 
HETATM    2  N2  UNL     1      -3.422   3.123  14.325  1.00  0.00    -0.315 N 
ATOM      3  H2  UNL     1      -3.315   3.430  15.292  1.00  0.00     0.170 HD
HETATM    4  C5  UNL     1      -2.854   3.869  13.259  1.00  0.00     0.228 C 
HETATM    5  O2  UNL     1      -2.383   3.229  12.285  1.00  0.00    -0.273 OA
ENDROOT
BRANCH   4   6
HETATM    6  C6  UNL     1      -2.793   5.335  13.246  1.00  0.00     0.100 C 
HETATM    7  C7  UNL     1      -1.380   5.848  13.042  1.00  0.00     0.038 C 
HETATM    8  C8  UNL     1      -1.496   7.348  13.229  1.00  0.00     0.032 C 
HETATM    9  C9  UNL     1      -1.733   7.746  14.646  1.00  0.00     0.029 C 
HETATM   10  C10 UNL     1      -0.332   8.096  12.666  1.00  0.00     0.029 C 
HETATM   11  S1  UNL     1      -2.943   7.657  12.202  1.00  0.00     0.032 S 
HETATM   12  O3  UNL     1      -2.416   8.043  10.668  1.00  0.00    -0.256 OA
HETATM   13  C11 UNL     1      -3.612   5.984  12.178  1.00  0.00     0.043 C 
HETATM   14  C12 UNL     1      -5.086   5.996  12.538  1.00  0.00     0.030 C 
HETATM   15  C13 UNL     1      -3.479   5.366  10.825  1.00  0.00     0.030 C 
ENDBRANCH   4   6
BRANCH   1  16
HETATM   16  N1  UNL     1      -4.283   1.541  12.757  1.00  0.00    -0.378 N 
HETATM   17  C1  UNL     1      -3.606   0.321  12.372  1.00  0.00     0.150 C 
HETATM   18  C2  UNL     1      -5.151   2.173  11.767  1.00  0.00     0.150 C 
ENDBRANCH   1  16
BRANCH   1  19
HETATM   19  C4  UNL     1      -4.659   1.288  15.187  1.00  0.00     0.240 C 
BRANCH  19  20
HETATM   20  O1  UNL     1      -3.621   0.972  16.061  1.00  0.00    -0.393 OA
ATOM     21  H1  UNL     1      -3.064   0.336  15.627  1.00  0.00     0.209 HD
ENDBRANCH  19  20
ENDBRANCH   1  19
TORSDOF 4
ENDMDL
MODEL 3
REMARK VINA RESULT: -5.500104401      3.091      6.278
REMARK  4 active torsions:
REMARK  status: ('A' for Active; 'I' for Inactive)
REMARK    1  A    between atoms: N1_2  and  C3_4 
REMARK    2  A    between atoms: C3_4  and  C4_5 
REMARK    3  A    between atoms: C4_5  and  O1_6 
REMARK       I    between atoms: N2_8  and  C5_10 
REMARK    4  A    between atoms: C5_10  and  C6_12 
ROOT
HETATM    1  C3  UNL     1      -4.045   1.960  13.834  1.00  0.00     0.105 C 
HETATM    2  N2  UNL     1      -3.205   2.914  13.990  1.00  0.00    -0.315 N 
ATOM      3  H2  UNL     1      -2.981   3.263  14.922  1.00  0.00     0.170 HD
HETATM    4  C5  UNL     1      -2.593   3.473  12.838  1.00  0.00     0.228 C 
HETATM    5  O2  UNL     1      -2.306   2.693  11.894  1.00  0.00    -0.273 OA
ENDROOT
BRANCH   4   6
HETATM    6  C6  UNL     1      -2.284   4.901  12.704  1.00  0.00     0.100 C 
HETATM    7  C7  UNL     1      -1.840   5.262  11.299  1.00  0.00     0.038 C 
HETATM    8  C8  UNL     1      -1.410   6.711  11.404  1.00  0.00     0.032 C 
HETATM    9  C9  UNL     1      -0.133   6.892  12.152  1.00  0.00     0.029 C 
HETATM   10  C10 UNL     1      -1.335   7.394  10.077  1.00  0.00     0.029 C 
HETATM   11  S1  UNL     1      -2.815   7.366  12.322  1.00  0.00     0.032 S 
HETATM   12  O3  UNL     1      -3.930   7.937  11.223  1.00  0.00    -0.256 OA
HETATM   13  C11 UNL     1      -3.424   5.816  13.011  1.00  0.00     0.043 C 
HETATM   14  C12 UNL     1      -3.643   5.950  14.507  1.00  0.00     0.030 C 
HETATM   15  C13 UNL     1      -4.726   5.424  12.394  1.00  0.00     0.030 C 
ENDBRANCH   4   6
BRANCH   1  16
HETATM   16  N1  UNL     1      -4.429   1.401  12.605  1.00  0.00    -0.378 N 
HETATM   17  C1  UNL     1      -3.998   0.057  12.283  1.00  0.00     0.150 C 
HETATM   18  C2  UNL     1      -5.242   2.106  11.616  1.00  0.00     0.150 C 
ENDBRANCH   1  16
BRANCH   1  19
HETATM   19  C4  UNL     1      -4.675   1.387  15.064  1.00  0.00     0.240 C 
BRANCH  19  20
HETATM   20  O1  UNL     1      -3.648   1.008  15.926  1.00  0.00    -0.393 OA
ATOM     21  H1  UNL     1      -3.672   1.592  16.675  1.00  0.00     0.209 HD
ENDBRANCH  19  20
ENDBRANCH   1  19
TORSDOF 4
ENDMDL
MODEL 4
REMARK VINA RESULT: -5.467615747      3.320      6.241
REMARK  4 active torsions:
REMARK  status: ('A' for Active; 'I' for Inactive)
REMARK    1  A    between atoms: N1_2  and  C3_4 
REMARK    2  A    between atoms: C3_4  and  C4_5 
REMARK    3  A    between atoms: C4_5  and  O1_6 
REMARK       I    between atoms: N2_8  and  C5_10 
REMARK    4  A    between atoms: C5_10  and  C6_12 
ROOT
HETATM    1  C3  UNL     1      -4.904   3.720  14.458  1.00  0.00     0.105 C 
HETATM    2  N2  UNL     1      -4.307   4.705  13.899  1.00  0.00    -0.315 N 
ATOM      3  H2  UNL     1      -4.769   5.609  13.805  1.00  0.00     0.170 HD
HETATM    4  C5  UNL     1      -2.986   4.510  13.415  1.00  0.00     0.228 C 
HETATM    5  O2  UNL     1      -2.224   3.768  14.084  1.00  0.00    -0.273 OA
ENDROOT
BRANCH   4   6
HETATM    6  C6  UNL     1      -2.481   5.131  12.185  1.00  0.00     0.100 C 
HETATM    7  C7  UNL     1      -1.082   4.659  11.837  1.00  0.00     0.038 C 
HETATM    8  C8  UNL     1      -0.678   5.523  10.660  1.00  0.00     0.032 C 
HETATM    9  C9  UNL     1      -0.404   6.939  11.039  1.00  0.00     0.029 C 
HETATM   10  C10 UNL     1       0.474   4.960   9.893  1.00  0.00     0.029 C 
HETATM   11  S1  UNL     1      -2.173   5.378   9.666  1.00  0.00     0.032 S 
HETATM   12  O3  UNL     1      -1.968   4.108   8.606  1.00  0.00    -0.256 OA
HETATM   13  C11 UNL     1      -3.307   4.866  10.969  1.00  0.00     0.043 C 
HETATM   14  C12 UNL     1      -4.560   5.723  10.949  1.00  0.00     0.030 C 
HETATM   15  C13 UNL     1      -3.726   3.444  10.794  1.00  0.00     0.030 C 
ENDBRANCH   4   6
BRANCH   1  16
HETATM   16  N1  UNL     1      -4.368   2.436  14.641  1.00  0.00    -0.378 N 
HETATM   17  C1  UNL     1      -3.860   2.070  15.947  1.00  0.00     0.150 C 
HETATM   18  C2  UNL     1      -4.284   1.437  13.579  1.00  0.00     0.150 C 
ENDBRANCH   1  16
BRANCH   1  19
HETATM   19  C4  UNL     1      -6.294   3.952  14.961  1.00  0.00     0.240 C 
BRANCH  19  20
HETATM   20  O1  UNL     1      -6.843   4.993  14.216  1.00  0.00    -0.393 OA
ATOM     21  H1  UNL     1      -6.907   5.751  14.785  1.00  0.00     0.209 HD
ENDBRANCH  19  20
ENDBRANCH   1  19
TORSDOF 4
ENDMDL
MODEL 5
REMARK VINA RESULT: -5.378348102      3.438      4.682
REMARK  4 active torsions:
REMARK  status: ('A' for Active; 'I' for Inactive)
REMARK    1  A    between atoms: N1_2  and  C3_4 
REMARK    2  A    between atoms: C3_4  and  C4_5 
REMARK    3  A    between atoms: C4_5  and  O1_6 
REMARK       I    between atoms: N2_8  and  C5_10 
REMARK    4  A    between atoms: C5_10  and  C6_12 
ROOT
HETATM    1  C3  UNL     1       0.254   4.582  10.837  1.00  0.00     0.105 C 
HETATM    2  N2  UNL     1      -0.507   4.182  11.786  1.00  0.00    -0.315 N 
ATOM      3  H2  UNL     1      -0.181   3.486  12.457  1.00  0.00     0.170 HD
HETATM    4  C5  UNL     1      -1.813   4.729  11.884  1.00  0.00     0.228 C 
HETATM    5  O2  UNL     1      -1.959   5.944  11.594  1.00  0.00    -0.273 OA
ENDROOT
BRANCH   4   6
HETATM    6  C6  UNL     1      -2.983   3.950  12.305  1.00  0.00     0.100 C 
HETATM    7  C7  UNL     1      -2.772   2.458  12.124  1.00  0.00     0.038 C 
HETATM    8  C8  UNL     1      -4.122   1.849  12.442  1.00  0.00     0.032 C 
HETATM    9  C9  UNL     1      -5.147   2.112  11.392  1.00  0.00     0.029 C 
HETATM   10  C10 UNL     1      -4.046   0.386  12.738  1.00  0.00     0.029 C 
HETATM   11  S1  UNL     1      -4.490   2.737  13.966  1.00  0.00     0.032 S 
HETATM   12  O3  UNL     1      -3.946   1.817  15.244  1.00  0.00    -0.256 OA
HETATM   13  C11 UNL     1      -3.369   4.128  13.737  1.00  0.00     0.043 C 
HETATM   14  C12 UNL     1      -4.099   5.441  13.956  1.00  0.00     0.030 C 
HETATM   15  C13 UNL     1      -2.232   4.073  14.703  1.00  0.00     0.030 C 
ENDBRANCH   4   6
BRANCH   1  16
HETATM   16  N1  UNL     1      -0.087   5.530   9.860  1.00  0.00    -0.378 N 
HETATM   17  C1  UNL     1      -0.848   5.101   8.705  1.00  0.00     0.150 C 
HETATM   18  C2  UNL     1       0.288   6.940   9.936  1.00  0.00     0.150 C 
ENDBRANCH   1  16
BRANCH   1  19
HETATM   19  C4  UNL     1       1.626   3.990  10.757  1.00  0.00     0.240 C 
BRANCH  19  20
HETATM   20  O1  UNL     1       2.314   4.364  11.910  1.00  0.00    -0.393 OA
ATOM     21  H1  UNL     1       3.101   3.835  11.958  1.00  0.00     0.209 HD
ENDBRANCH  19  20
ENDBRANCH   1  19
TORSDOF 4
ENDMDL
