MODEL 1
REMARK VINA RESULT: -5.616481498      0.000      0.000
REMARK  1 active torsions:
REMARK  status: ('A' for Active; 'I' for Inactive)
REMARK    1  A    between atoms: O1_1  and  C1_3 
ROOT
HETATM    1  C1  UNL     1      16.441   3.990  12.813  1.00  0.00     0.364 C 
HETATM    2  C2  UNL     1      17.758   4.741  12.772  1.00  0.00     0.055 C 
HETATM    3  C3  UNL     1      17.380   6.230  12.852  1.00  0.00     0.036 C 
HETATM    4  C4  UNL     1      16.390   6.508  11.783  1.00  0.00     0.171 C 
HETATM    5  O2  UNL     1      16.388   5.791  10.664  1.00  0.00    -0.357 OA
HETATM    6  C5  UNL     1      16.958   4.544  10.643  1.00  0.00     0.366 C 
HETATM    7  C6  UNL     1      18.269   4.621  11.356  1.00  0.00     0.053 C 
HETATM    8  C7  UNL     1      19.221   3.535  11.116  1.00  0.00     0.010 C 
HETATM    9  C8  UNL     1      18.758   2.137  11.214  1.00  0.00     0.002 C 
HETATM   10  C9  UNL     1      17.508   1.809  10.471  1.00  0.00     0.030 C 
HETATM   11  C10 UNL     1      16.251   2.284  11.122  1.00  0.00     0.279 C 
HETATM   12  N1  UNL     1      16.195   3.649  11.463  1.00  0.00     0.146 N 
ENDROOT
BRANCH   1  13
HETATM   13  O1  UNL     1      16.457   2.927  13.699  1.00  0.00    -0.367 OA
ATOM     14  H1  UNL     1      15.589   2.581  13.876  1.00  0.00     0.212 HD
ENDBRANCH   1  13
TORSDOF 1
ENDMDL
MODEL 2
REMARK VINA RESULT: -5.193308273      2.145      3.961
REMARK  1 active torsions:
REMARK  status: ('A' for Active; 'I' for Inactive)
REMARK    1  A    between atoms: O1_1  and  C1_3 
ROOT
HETATM    1  C1  UNL     1      16.430   4.658  12.215  1.00  0.00     0.364 C 
HETATM    2  C2  UNL     1      16.669   6.028  11.612  1.00  0.00     0.055 C 
HETATM    3  C3  UNL     1      17.987   5.904  10.828  1.00  0.00     0.036 C 
HETATM    4  C4  UNL     1      19.016   5.363  11.750  1.00  0.00     0.171 C 
HETATM    5  O2  UNL     1      18.937   5.590  13.056  1.00  0.00    -0.357 OA
HETATM    6  C5  UNL     1      17.734   5.916  13.628  1.00  0.00     0.366 C 
HETATM    7  C6  UNL     1      17.066   6.930  12.757  1.00  0.00     0.053 C 
HETATM    8  C7  UNL     1      15.980   7.709  13.355  1.00  0.00     0.010 C 
HETATM    9  C8  UNL     1      14.915   7.008  14.097  1.00  0.00     0.002 C 
HETATM   10  C9  UNL     1      15.369   6.018  15.114  1.00  0.00     0.030 C 
HETATM   11  C10 UNL     1      15.849   4.720  14.553  1.00  0.00     0.279 C 
HETATM   12  N1  UNL     1      16.845   4.794  13.559  1.00  0.00     0.146 N 
ENDROOT
BRANCH   1  13
HETATM   13  O1  UNL     1      15.131   4.212  12.038  1.00  0.00    -0.367 OA
ATOM     14  H1  UNL     1      14.994   3.800  11.193  1.00  0.00     0.212 HD
ENDBRANCH   1  13
TORSDOF 1
ENDMDL
MODEL 3
REMARK VINA RESULT: -5.166954796      1.618      3.796
REMARK  1 active torsions:
REMARK  status: ('A' for Active; 'I' for Inactive)
REMARK    1  A    between atoms: O1_1  and  C1_3 
ROOT
HETATM    1  C1  UNL     1      16.458   1.981  10.317  1.00  0.00     0.364 C 
HETATM    2  C2  UNL     1      17.934   1.726  10.553  1.00  0.00     0.055 C 
HETATM    3  C3  UNL     1      18.014   0.307  11.141  1.00  0.00     0.036 C 
HETATM    4  C4  UNL     1      17.104   0.246  12.311  1.00  0.00     0.171 C 
HETATM    5  O2  UNL     1      16.843   1.338  13.019  1.00  0.00    -0.357 OA
HETATM    6  C5  UNL     1      17.020   2.579  12.464  1.00  0.00     0.366 C 
HETATM    7  C6  UNL     1      18.326   2.580  11.736  1.00  0.00     0.053 C 
HETATM    8  C7  UNL     1      18.905   3.885  11.412  1.00  0.00     0.010 C 
HETATM    9  C8  UNL     1      18.057   4.911  10.777  1.00  0.00     0.002 C 
HETATM   10  C9  UNL     1      16.735   5.156  11.420  1.00  0.00     0.030 C 
HETATM   11  C10 UNL     1      15.702   4.114  11.143  1.00  0.00     0.279 C 
HETATM   12  N1  UNL     1      16.065   2.781  11.414  1.00  0.00     0.146 N 
ENDROOT
BRANCH   1  13
HETATM   13  O1  UNL     1      16.199   2.519   9.068  1.00  0.00    -0.367 OA
ATOM     14  H1  UNL     1      16.094   1.856   8.395  1.00  0.00     0.212 HD
ENDBRANCH   1  13
TORSDOF 1
ENDMDL
MODEL 4
REMARK VINA RESULT: -4.931925832      1.593      3.643
REMARK  1 active torsions:
REMARK  status: ('A' for Active; 'I' for Inactive)
REMARK    1  A    between atoms: O1_1  and  C1_3 
ROOT
HETATM    1  C1  UNL     1      16.057   4.365  12.896  1.00  0.00     0.364 C 
HETATM    2  C2  UNL     1      15.954   4.210  11.391  1.00  0.00     0.055 C 
HETATM    3  C3  UNL     1      16.282   2.734  11.110  1.00  0.00     0.036 C 
HETATM    4  C4  UNL     1      17.584   2.426  11.752  1.00  0.00     0.171 C 
HETATM    5  O2  UNL     1      18.493   3.378  11.922  1.00  0.00    -0.357 OA
HETATM    6  C5  UNL     1      18.118   4.697  11.935  1.00  0.00     0.366 C 
HETATM    7  C6  UNL     1      17.157   4.916  10.811  1.00  0.00     0.053 C 
HETATM    8  C7  UNL     1      16.935   6.300  10.387  1.00  0.00     0.010 C 
HETATM    9  C8  UNL     1      16.651   7.329  11.405  1.00  0.00     0.002 C 
HETATM   10  C9  UNL     1      17.572   7.362  12.576  1.00  0.00     0.030 C 
HETATM   11  C10 UNL     1      17.342   6.284  13.584  1.00  0.00     0.279 C 
HETATM   12  N1  UNL     1      17.322   4.962  13.097  1.00  0.00     0.146 N 
ENDROOT
BRANCH   1  13
HETATM   13  O1  UNL     1      14.984   5.052  13.439  1.00  0.00    -0.367 OA
ATOM     14  H1  UNL     1      14.538   4.561  14.120  1.00  0.00     0.212 HD
ENDBRANCH   1  13
TORSDOF 1
ENDMDL
MODEL 5
REMARK VINA RESULT: -4.920806194      2.468      3.983
REMARK  1 active torsions:
REMARK  status: ('A' for Active; 'I' for Inactive)
REMARK    1  A    between atoms: O1_1  and  C1_3 
ROOT
HETATM    1  C1  UNL     1      17.010   5.670  11.475  1.00  0.00     0.364 C 
HETATM    2  C2  UNL     1      17.485   7.084  11.749  1.00  0.00     0.055 C 
HETATM    3  C3  UNL     1      18.942   7.127  11.257  1.00  0.00     0.036 C 
HETATM    4  C4  UNL     1      19.675   6.011  11.904  1.00  0.00     0.171 C 
HETATM    5  O2  UNL     1      19.297   5.557  13.093  1.00  0.00    -0.357 OA
HETATM    6  C5  UNL     1      18.018   5.770  13.538  1.00  0.00     0.366 C 
HETATM    7  C6  UNL     1      17.655   7.190  13.246  1.00  0.00     0.053 C 
HETATM    8  C7  UNL     1      16.514   7.748  13.975  1.00  0.00     0.010 C 
HETATM    9  C8  UNL     1      15.254   6.984  14.033  1.00  0.00     0.002 C 
HETATM   10  C9  UNL     1      15.375   5.550  14.423  1.00  0.00     0.030 C 
HETATM   11  C10 UNL     1      15.885   4.650  13.345  1.00  0.00     0.279 C 
HETATM   12  N1  UNL     1      17.095   5.027  12.731  1.00  0.00     0.146 N 
ENDROOT
BRANCH   1  13
HETATM   13  O1  UNL     1      15.765   5.630  10.871  1.00  0.00    -0.367 OA
ATOM     14  H1  UNL     1      15.109   6.129  11.344  1.00  0.00     0.212 HD
ENDBRANCH   1  13
TORSDOF 1
ENDMDL
