MODEL 1
REMARK VINA RESULT: -8.413037598      0.000      0.000
REMARK  18 active torsions:
REMARK  status: ('A' for Active; 'I' for Inactive)
REMARK    1  A    between atoms: C2_2  and  C3_3 
REMARK    2  A    between atoms: C3_3  and  N1_4 
REMARK    3  A    between atoms: N1_4  and  C4_5 
REMARK    4  A    between atoms: N1_4  and  S1_42 
REMARK    5  A    between atoms: C4_5  and  C5_6 
REMARK    6  A    between atoms: C8_9  and  N2_10 
REMARK       I    between atoms: N2_10  and  C9_11 
REMARK    7  A    between atoms: C9_11  and  C10_13 
REMARK    8  A    between atoms: C10_13  and  N3_14 
REMARK    9  A    between atoms: C10_13  and  C23_36 
REMARK   10  A    between atoms: N3_14  and  C11_15 
REMARK   11  A    between atoms: C11_15  and  O2_16 
REMARK   12  A    between atoms: C11_15  and  O3_18 
REMARK   13  A    between atoms: O3_18  and  C12_19 
REMARK   14  A    between atoms: C12_19  and  C13_20 
REMARK   15  A    between atoms: C13_20  and  C14_21 
REMARK   16  A    between atoms: C17_26  and  N4_27 
REMARK       I    between atoms: N4_27  and  C18_29 
REMARK       I    between atoms: C18_29  and  N5_31 
REMARK   17  A    between atoms: S1_42  and  C29_45 
REMARK   18  A    between atoms: C29_45  and  C30_46 
ROOT
HETATM    1  C10 UNL     1      17.911  -6.694  13.644  1.00  0.00     0.281 C 
ENDROOT
BRANCH   1   2
HETATM    2  C9  UNL     1      18.327  -5.413  12.899  1.00  0.00     0.323 C 
HETATM    3  N2  UNL     1      18.554  -4.288  13.685  1.00  0.00    -0.407 NA
HETATM    4  O1  UNL     1      18.433  -5.448  11.680  1.00  0.00    -0.254 OA
BRANCH   3   5
HETATM    5  C8  UNL     1      18.782  -3.161  14.439  1.00  0.00     0.167 C 
HETATM    6  C7  UNL     1      19.423  -3.648  15.761  1.00  0.00     0.040 C 
HETATM    7  C6  UNL     1      19.287  -2.816  16.937  1.00  0.00     0.009 C 
HETATM    8  C5  UNL     1      18.435  -1.621  16.998  1.00  0.00    -0.000 C 
HETATM    9  C28 UNL     1      17.743  -1.277  15.697  1.00  0.00     0.009 C 
HETATM   10  C27 UNL     1      17.479  -2.457  14.840  1.00  0.00     0.040 C 
BRANCH   8  11
HETATM   11  C4  UNL     1      19.186  -0.350  17.335  1.00  0.00     0.112 C 
BRANCH  11  12
HETATM   12  N1  UNL     1      19.661  -0.219  18.677  1.00  0.00    -0.210 NA
BRANCH  12  13
HETATM   13  C3  UNL     1      21.144  -0.335  18.529  1.00  0.00     0.107 C 
BRANCH  13  14
HETATM   14  C2  UNL     1      21.594   0.112  17.168  1.00  0.00     0.011 C 
HETATM   15  C1  UNL     1      22.663  -0.906  16.725  1.00  0.00     0.006 C 
ENDBRANCH  13  14
ENDBRANCH  12  13
BRANCH  12  16
HETATM   16  S1  UNL     1      19.217   1.234  19.477  1.00  0.00     0.211 S 
HETATM   17  O7  UNL     1      18.578   2.127  18.432  1.00  0.00    -0.211 OA
HETATM   18  O8  UNL     1      20.417   1.974  19.959  1.00  0.00    -0.211 OA
BRANCH  16  19
HETATM   19  C29 UNL     1      18.049   1.000  20.784  1.00  0.00     0.157 C 
BRANCH  19  20
HETATM   20  C30 UNL     1      16.614   1.065  20.295  1.00  0.00     0.012 C 
HETATM   21  C31 UNL     1      16.139  -0.138  19.550  1.00  0.00     0.006 C 
ENDBRANCH  19  20
ENDBRANCH  16  19
ENDBRANCH  12  16
ENDBRANCH  11  12
ENDBRANCH   8  11
ENDBRANCH   3   5
ENDBRANCH   1   2
BRANCH   1  22
HETATM   22  N3  UNL     1      18.319  -7.826  13.126  1.00  0.00    -0.387 NA
BRANCH  22  23
HETATM   23  C11 UNL     1      18.771  -9.054  12.552  1.00  0.00     0.336 C 
BRANCH  23  24
HETATM   24  O2  UNL     1      19.216  -9.015  11.327  1.00  0.00    -0.316 OA
ATOM     25  H2  UNL     1      18.593  -8.795  10.644  1.00  0.00     0.222 HD
ENDBRANCH  23  24
BRANCH  23  26
HETATM   26  O3  UNL     1      18.803 -10.281  13.086  1.00  0.00    -0.304 OA
BRANCH  26  27
HETATM   27  C12 UNL     1      19.626 -10.935  13.989  1.00  0.00     0.203 C 
BRANCH  27  28
HETATM   28  C13 UNL     1      20.967 -11.276  13.410  1.00  0.00     0.091 A 
HETATM   29  C15 UNL     1      21.579 -12.358  14.358  1.00  0.00     0.027 A 
HETATM   30  C16 UNL     1      22.709 -11.430  14.662  1.00  0.00     0.028 A 
HETATM   31  C17 UNL     1      22.104 -10.384  13.719  1.00  0.00     0.107 A 
BRANCH  28  32
HETATM   32  C14 UNL     1      21.022 -11.860  12.038  1.00  0.00     0.186 C 
HETATM   33  O4  UNL     1      20.872 -13.129  11.936  1.00  0.00    -0.647 OA
HETATM   34  O5  UNL     1      21.218 -11.114  10.898  1.00  0.00    -0.647 OA
ENDBRANCH  28  32
BRANCH  31  35
HETATM   35  N4  UNL     1      21.989  -9.113  14.366  1.00  0.00    -0.337 N 
HETATM   36  C18 UNL     1      22.008  -7.979  13.524  1.00  0.00     0.318 C 
HETATM   37  O6  UNL     1      22.089  -8.142  12.239  1.00  0.00    -0.247 OA
HETATM   38  N5  UNL     1      21.961  -6.653  13.989  1.00  0.00    -0.334 N 
HETATM   39  C19 UNL     1      21.812  -6.151  15.326  1.00  0.00     0.127 C 
HETATM   40  C22 UNL     1      22.167  -5.458  13.126  1.00  0.00     0.127 C 
HETATM   41  C20 UNL     1      22.851  -5.020  15.379  1.00  0.00     0.022 C 
HETATM   42  C21 UNL     1      22.728  -4.396  14.013  1.00  0.00     0.022 C 
ATOM     43  H4  UNL     1      21.898  -9.031  15.379  1.00  0.00     0.164 HD
ENDBRANCH  31  35
ENDBRANCH  27  28
ENDBRANCH  26  27
ENDBRANCH  23  26
ENDBRANCH  22  23
ENDBRANCH   1  22
BRANCH   1  44
HETATM   44  C23 UNL     1      16.336  -6.572  13.730  1.00  0.00    -0.009 C 
HETATM   45  C24 UNL     1      15.860  -7.987  13.657  1.00  0.00     0.018 C 
HETATM   46  C25 UNL     1      16.039  -5.985  15.071  1.00  0.00     0.018 C 
HETATM   47  C26 UNL     1      15.767  -5.806  12.613  1.00  0.00     0.018 C 
ENDBRANCH   1  44
TORSDOF 18
ENDMDL
MODEL 2
REMARK VINA RESULT: -8.305763235      1.016      1.329
REMARK  18 active torsions:
REMARK  status: ('A' for Active; 'I' for Inactive)
REMARK    1  A    between atoms: C2_2  and  C3_3 
REMARK    2  A    between atoms: C3_3  and  N1_4 
REMARK    3  A    between atoms: N1_4  and  C4_5 
REMARK    4  A    between atoms: N1_4  and  S1_42 
REMARK    5  A    between atoms: C4_5  and  C5_6 
REMARK    6  A    between atoms: C8_9  and  N2_10 
REMARK       I    between atoms: N2_10  and  C9_11 
REMARK    7  A    between atoms: C9_11  and  C10_13 
REMARK    8  A    between atoms: C10_13  and  N3_14 
REMARK    9  A    between atoms: C10_13  and  C23_36 
REMARK   10  A    between atoms: N3_14  and  C11_15 
REMARK   11  A    between atoms: C11_15  and  O2_16 
REMARK   12  A    between atoms: C11_15  and  O3_18 
REMARK   13  A    between atoms: O3_18  and  C12_19 
REMARK   14  A    between atoms: C12_19  and  C13_20 
REMARK   15  A    between atoms: C13_20  and  C14_21 
REMARK   16  A    between atoms: C17_26  and  N4_27 
REMARK       I    between atoms: N4_27  and  C18_29 
REMARK       I    between atoms: C18_29  and  N5_31 
REMARK   17  A    between atoms: S1_42  and  C29_45 
REMARK   18  A    between atoms: C29_45  and  C30_46 
ROOT
HETATM    1  C10 UNL     1      17.939  -6.761  13.616  1.00  0.00     0.281 C 
ENDROOT
BRANCH   1   2
HETATM    2  C9  UNL     1      18.367  -5.462  12.909  1.00  0.00     0.323 C 
HETATM    3  N2  UNL     1      18.577  -4.355  13.725  1.00  0.00    -0.407 NA
HETATM    4  O1  UNL     1      18.495  -5.468  11.692  1.00  0.00    -0.254 OA
BRANCH   3   5
HETATM    5  C8  UNL     1      18.790  -3.246  14.508  1.00  0.00     0.167 C 
HETATM    6  C7  UNL     1      19.385  -3.765  15.840  1.00  0.00     0.040 C 
HETATM    7  C6  UNL     1      19.218  -2.956  17.028  1.00  0.00     0.009 C 
HETATM    8  C5  UNL     1      18.374  -1.755  17.087  1.00  0.00    -0.000 C 
HETATM    9  C28 UNL     1      17.726  -1.380  15.772  1.00  0.00     0.009 C 
HETATM   10  C27 UNL     1      17.480  -2.539  14.883  1.00  0.00     0.040 C 
BRANCH   8  11
HETATM   11  C4  UNL     1      19.123  -0.498  17.474  1.00  0.00     0.112 C 
BRANCH  11  12
HETATM   12  N1  UNL     1      19.314  -0.265  18.871  1.00  0.00    -0.210 NA
BRANCH  12  13
HETATM   13  C3  UNL     1      20.622   0.457  18.923  1.00  0.00     0.107 C 
BRANCH  13  14
HETATM   14  C2  UNL     1      21.301   0.456  17.584  1.00  0.00     0.011 C 
HETATM   15  C1  UNL     1      22.767   0.071  17.858  1.00  0.00     0.006 C 
ENDBRANCH  13  14
ENDBRANCH  12  13
BRANCH  12  16
HETATM   16  S1  UNL     1      18.068   0.625  19.647  1.00  0.00     0.211 S 
HETATM   17  O7  UNL     1      18.657   1.168  20.933  1.00  0.00    -0.211 OA
HETATM   18  O8  UNL     1      16.947  -0.265  20.062  1.00  0.00    -0.211 OA
BRANCH  16  19
HETATM   19  C29 UNL     1      17.472   1.993  18.697  1.00  0.00     0.157 C 
BRANCH  19  20
HETATM   20  C30 UNL     1      17.759   3.326  19.363  1.00  0.00     0.012 C 
HETATM   21  C31 UNL     1      19.016   4.001  18.925  1.00  0.00     0.006 C 
ENDBRANCH  19  20
ENDBRANCH  16  19
ENDBRANCH  12  16
ENDBRANCH  11  12
ENDBRANCH   8  11
ENDBRANCH   3   5
ENDBRANCH   1   2
BRANCH   1  22
HETATM   22  N3  UNL     1      18.353  -7.880  13.075  1.00  0.00    -0.387 NA
BRANCH  22  23
HETATM   23  C11 UNL     1      18.816  -9.096  12.485  1.00  0.00     0.336 C 
BRANCH  23  24
HETATM   24  O2  UNL     1      19.293  -9.030  11.274  1.00  0.00    -0.316 OA
ATOM     25  H2  UNL     1      20.113  -9.479  11.103  1.00  0.00     0.222 HD
ENDBRANCH  23  24
BRANCH  23  26
HETATM   26  O3  UNL     1      18.831 -10.335  12.992  1.00  0.00    -0.304 OA
BRANCH  26  27
HETATM   27  C12 UNL     1      19.654 -11.024  13.869  1.00  0.00     0.203 C 
BRANCH  27  28
HETATM   28  C13 UNL     1      21.000 -11.330  13.283  1.00  0.00     0.091 A 
HETATM   29  C15 UNL     1      21.619 -12.442  14.192  1.00  0.00     0.027 A 
HETATM   30  C16 UNL     1      22.739 -11.514  14.537  1.00  0.00     0.028 A 
HETATM   31  C17 UNL     1      22.127 -10.440  13.631  1.00  0.00     0.107 A 
BRANCH  28  32
HETATM   32  C14 UNL     1      21.067 -11.862  11.891  1.00  0.00     0.186 C 
HETATM   33  O4  UNL     1      21.435 -11.048  10.972  1.00  0.00    -0.647 OA
HETATM   34  O5  UNL     1      20.761 -13.161  11.555  1.00  0.00    -0.647 OA
ENDBRANCH  28  32
BRANCH  31  35
HETATM   35  N4  UNL     1      21.996  -9.195  14.325  1.00  0.00    -0.337 N 
HETATM   36  C18 UNL     1      22.014  -8.030  13.527  1.00  0.00     0.318 C 
HETATM   37  O6  UNL     1      22.107  -8.143  12.237  1.00  0.00    -0.247 OA
HETATM   38  N5  UNL     1      21.952  -6.723  14.042  1.00  0.00    -0.334 N 
HETATM   39  C19 UNL     1      21.789  -6.274  15.396  1.00  0.00     0.127 C 
HETATM   40  C22 UNL     1      22.156  -5.494  13.227  1.00  0.00     0.127 C 
HETATM   41  C20 UNL     1      22.819  -5.138  15.500  1.00  0.00     0.022 C 
HETATM   42  C21 UNL     1      22.702  -4.462  14.158  1.00  0.00     0.022 C 
ATOM     43  H4  UNL     1      21.897  -9.152  15.340  1.00  0.00     0.164 HD
ENDBRANCH  31  35
ENDBRANCH  27  28
ENDBRANCH  26  27
ENDBRANCH  23  26
ENDBRANCH  22  23
ENDBRANCH   1  22
BRANCH   1  44
HETATM   44  C23 UNL     1      16.364  -6.638  13.685  1.00  0.00    -0.009 C 
HETATM   45  C24 UNL     1      15.889  -8.053  13.608  1.00  0.00     0.018 C 
HETATM   46  C25 UNL     1      16.053  -6.050  15.022  1.00  0.00     0.018 C 
HETATM   47  C26 UNL     1      15.807  -5.872  12.561  1.00  0.00     0.018 C 
ENDBRANCH   1  44
TORSDOF 18
ENDMDL
MODEL 3
REMARK VINA RESULT: -8.146137033      2.292      5.511
REMARK  18 active torsions:
REMARK  status: ('A' for Active; 'I' for Inactive)
REMARK    1  A    between atoms: C2_2  and  C3_3 
REMARK    2  A    between atoms: C3_3  and  N1_4 
REMARK    3  A    between atoms: N1_4  and  C4_5 
REMARK    4  A    between atoms: N1_4  and  S1_42 
REMARK    5  A    between atoms: C4_5  and  C5_6 
REMARK    6  A    between atoms: C8_9  and  N2_10 
REMARK       I    between atoms: N2_10  and  C9_11 
REMARK    7  A    between atoms: C9_11  and  C10_13 
REMARK    8  A    between atoms: C10_13  and  N3_14 
REMARK    9  A    between atoms: C10_13  and  C23_36 
REMARK   10  A    between atoms: N3_14  and  C11_15 
REMARK   11  A    between atoms: C11_15  and  O2_16 
REMARK   12  A    between atoms: C11_15  and  O3_18 
REMARK   13  A    between atoms: O3_18  and  C12_19 
REMARK   14  A    between atoms: C12_19  and  C13_20 
REMARK   15  A    between atoms: C13_20  and  C14_21 
REMARK   16  A    between atoms: C17_26  and  N4_27 
REMARK       I    between atoms: N4_27  and  C18_29 
REMARK       I    between atoms: C18_29  and  N5_31 
REMARK   17  A    between atoms: S1_42  and  C29_45 
REMARK   18  A    between atoms: C29_45  and  C30_46 
ROOT
HETATM    1  C10 UNL     1      20.895  -4.383  13.952  1.00  0.00     0.281 C 
ENDROOT
BRANCH   1   2
HETATM    2  C9  UNL     1      21.789  -3.147  14.160  1.00  0.00     0.323 C 
HETATM    3  N2  UNL     1      21.539  -2.389  15.299  1.00  0.00    -0.407 NA
HETATM    4  O1  UNL     1      22.653  -2.898  13.329  1.00  0.00    -0.254 OA
BRANCH   3   5
HETATM    5  C8  UNL     1      21.312  -1.622  16.417  1.00  0.00     0.167 C 
HETATM    6  C7  UNL     1      22.165  -0.342  16.243  1.00  0.00     0.040 C 
HETATM    7  C6  UNL     1      22.564   0.384  17.430  1.00  0.00     0.009 C 
HETATM    8  C5  UNL     1      22.354  -0.109  18.797  1.00  0.00    -0.000 C 
HETATM    9  C28 UNL     1      21.620  -1.428  18.882  1.00  0.00     0.009 C 
HETATM   10  C27 UNL     1      21.823  -2.295  17.698  1.00  0.00     0.040 C 
BRANCH   8  11
HETATM   11  C4  UNL     1      21.513   0.811  19.657  1.00  0.00     0.112 C 
BRANCH  11  12
HETATM   12  N1  UNL     1      20.879   1.909  18.997  1.00  0.00    -0.210 NA
BRANCH  12  13
HETATM   13  C3  UNL     1      19.423   1.610  19.154  1.00  0.00     0.107 C 
BRANCH  13  14
HETATM   14  C2  UNL     1      18.862   0.963  17.921  1.00  0.00     0.011 C 
HETATM   15  C1  UNL     1      18.116  -0.293  18.409  1.00  0.00     0.006 C 
ENDBRANCH  13  14
ENDBRANCH  12  13
BRANCH  12  16
HETATM   16  S1  UNL     1      21.275   3.464  19.609  1.00  0.00     0.211 S 
HETATM   17  O7  UNL     1      20.160   3.855  20.558  1.00  0.00    -0.211 OA
HETATM   18  O8  UNL     1      21.262   4.489  18.528  1.00  0.00    -0.211 OA
BRANCH  16  19
HETATM   19  C29 UNL     1      22.798   3.510  20.507  1.00  0.00     0.157 C 
BRANCH  19  20
HETATM   20  C30 UNL     1      24.006   3.326  19.605  1.00  0.00     0.012 C 
HETATM   21  C31 UNL     1      24.976   2.281  20.045  1.00  0.00     0.006 C 
ENDBRANCH  19  20
ENDBRANCH  16  19
ENDBRANCH  12  16
ENDBRANCH  11  12
ENDBRANCH   8  11
ENDBRANCH   3   5
ENDBRANCH   1   2
BRANCH   1  22
HETATM   22  N3  UNL     1      19.725  -4.360  14.540  1.00  0.00    -0.387 NA
BRANCH  22  23
HETATM   23  C11 UNL     1      18.449  -4.347  15.184  1.00  0.00     0.336 C 
BRANCH  23  24
HETATM   24  O2  UNL     1      18.297  -3.537  16.194  1.00  0.00    -0.316 OA
ATOM     25  H2  UNL     1      18.241  -2.608  16.003  1.00  0.00     0.222 HD
ENDBRANCH  23  24
BRANCH  23  26
HETATM   26  O3  UNL     1      17.352  -5.064  14.911  1.00  0.00    -0.304 OA
BRANCH  26  27
HETATM   27  C12 UNL     1      17.051  -6.416  14.874  1.00  0.00     0.203 C 
BRANCH  27  28
HETATM   28  C13 UNL     1      16.741  -6.904  13.490  1.00  0.00     0.091 A 
HETATM   29  C15 UNL     1      15.294  -7.494  13.559  1.00  0.00     0.027 A 
HETATM   30  C16 UNL     1      15.838  -8.830  13.171  1.00  0.00     0.028 A 
HETATM   31  C17 UNL     1      17.248  -8.235  13.095  1.00  0.00     0.107 A 
BRANCH  28  32
HETATM   32  C14 UNL     1      16.723  -5.915  12.374  1.00  0.00     0.186 C 
HETATM   33  O4  UNL     1      17.821  -5.733  11.737  1.00  0.00    -0.647 OA
HETATM   34  O5  UNL     1      15.604  -5.205  12.000  1.00  0.00    -0.647 OA
ENDBRANCH  28  32
BRANCH  31  35
HETATM   35  N4  UNL     1      18.176  -9.012  13.857  1.00  0.00    -0.337 N 
HETATM   36  C18 UNL     1      19.364  -9.394  13.194  1.00  0.00     0.318 C 
HETATM   37  O6  UNL     1      19.565  -9.002  11.973  1.00  0.00    -0.247 OA
HETATM   38  N5  UNL     1      20.360 -10.202  13.769  1.00  0.00    -0.334 N 
HETATM   39  C19 UNL     1      20.458 -10.738  15.098  1.00  0.00     0.127 C 
HETATM   40  C22 UNL     1      21.519 -10.760  13.019  1.00  0.00     0.127 C 
HETATM   41  C20 UNL     1      20.911 -12.185  14.844  1.00  0.00     0.022 C 
HETATM   42  C21 UNL     1      21.890 -12.030  13.710  1.00  0.00     0.022 C 
ATOM     43  H4  UNL     1      17.991  -9.275  14.825  1.00  0.00     0.164 HD
ENDBRANCH  31  35
ENDBRANCH  27  28
ENDBRANCH  26  27
ENDBRANCH  23  26
ENDBRANCH  22  23
ENDBRANCH   1  22
BRANCH   1  44
HETATM   44  C23 UNL     1      21.815  -5.581  14.423  1.00  0.00    -0.009 C 
HETATM   45  C24 UNL     1      20.847  -6.674  14.741  1.00  0.00     0.018 C 
HETATM   46  C25 UNL     1      22.654  -5.948  13.242  1.00  0.00     0.018 C 
HETATM   47  C26 UNL     1      22.597  -5.255  15.622  1.00  0.00     0.018 C 
ENDBRANCH   1  44
TORSDOF 18
ENDMDL
MODEL 4
REMARK VINA RESULT: -8.083522397      1.292      2.234
REMARK  18 active torsions:
REMARK  status: ('A' for Active; 'I' for Inactive)
REMARK    1  A    between atoms: C2_2  and  C3_3 
REMARK    2  A    between atoms: C3_3  and  N1_4 
REMARK    3  A    between atoms: N1_4  and  C4_5 
REMARK    4  A    between atoms: N1_4  and  S1_42 
REMARK    5  A    between atoms: C4_5  and  C5_6 
REMARK    6  A    between atoms: C8_9  and  N2_10 
REMARK       I    between atoms: N2_10  and  C9_11 
REMARK    7  A    between atoms: C9_11  and  C10_13 
REMARK    8  A    between atoms: C10_13  and  N3_14 
REMARK    9  A    between atoms: C10_13  and  C23_36 
REMARK   10  A    between atoms: N3_14  and  C11_15 
REMARK   11  A    between atoms: C11_15  and  O2_16 
REMARK   12  A    between atoms: C11_15  and  O3_18 
REMARK   13  A    between atoms: O3_18  and  C12_19 
REMARK   14  A    between atoms: C12_19  and  C13_20 
REMARK   15  A    between atoms: C13_20  and  C14_21 
REMARK   16  A    between atoms: C17_26  and  N4_27 
REMARK       I    between atoms: N4_27  and  C18_29 
REMARK       I    between atoms: C18_29  and  N5_31 
REMARK   17  A    between atoms: S1_42  and  C29_45 
REMARK   18  A    between atoms: C29_45  and  C30_46 
ROOT
HETATM    1  C10 UNL     1      17.875  -6.804  13.585  1.00  0.00     0.281 C 
ENDROOT
BRANCH   1   2
HETATM    2  C9  UNL     1      18.358  -5.528  12.871  1.00  0.00     0.323 C 
HETATM    3  N2  UNL     1      18.586  -4.418  13.677  1.00  0.00    -0.407 NA
HETATM    4  O1  UNL     1      18.513  -5.556  11.657  1.00  0.00    -0.254 OA
BRANCH   3   5
HETATM    5  C8  UNL     1      18.816  -3.305  14.450  1.00  0.00     0.167 C 
HETATM    6  C7  UNL     1      19.355  -3.824  15.805  1.00  0.00     0.040 C 
HETATM    7  C6  UNL     1      19.184  -2.992  16.977  1.00  0.00     0.009 C 
HETATM    8  C5  UNL     1      18.381  -1.762  16.994  1.00  0.00    -0.000 C 
HETATM    9  C28 UNL     1      17.784  -1.384  15.657  1.00  0.00     0.009 C 
HETATM   10  C27 UNL     1      17.522  -2.547  14.777  1.00  0.00     0.040 C 
BRANCH   8  11
HETATM   11  C4  UNL     1      19.164  -0.526  17.385  1.00  0.00     0.112 C 
BRANCH  11  12
HETATM   12  N1  UNL     1      20.586  -0.654  17.438  1.00  0.00    -0.210 NA
BRANCH  12  13
HETATM   13  C3  UNL     1      21.028  -0.126  16.111  1.00  0.00     0.107 C 
BRANCH  13  14
HETATM   14  C2  UNL     1      21.763  -1.172  15.324  1.00  0.00     0.011 C 
HETATM   15  C1  UNL     1      22.578  -1.977  16.355  1.00  0.00     0.006 C 
ENDBRANCH  13  14
ENDBRANCH  12  13
BRANCH  12  16
HETATM   16  S1  UNL     1      21.352   0.171  18.734  1.00  0.00     0.211 S 
HETATM   17  O7  UNL     1      22.037  -0.886  19.578  1.00  0.00    -0.211 OA
HETATM   18  O8  UNL     1      20.352   0.816  19.630  1.00  0.00    -0.211 OA
BRANCH  16  19
HETATM   19  C29 UNL     1      22.578   1.334  18.214  1.00  0.00     0.157 C 
BRANCH  19  20
HETATM   20  C30 UNL     1      23.968   0.965  18.700  1.00  0.00     0.012 C 
HETATM   21  C31 UNL     1      24.920   0.527  17.637  1.00  0.00     0.006 C 
ENDBRANCH  19  20
ENDBRANCH  16  19
ENDBRANCH  12  16
ENDBRANCH  11  12
ENDBRANCH   8  11
ENDBRANCH   3   5
ENDBRANCH   1   2
BRANCH   1  22
HETATM   22  N3  UNL     1      18.224  -7.943  13.040  1.00  0.00    -0.387 NA
BRANCH  22  23
HETATM   23  C11 UNL     1      18.611  -9.187  12.455  1.00  0.00     0.336 C 
BRANCH  23  24
HETATM   24  O2  UNL     1      19.110  -9.153  11.251  1.00  0.00    -0.316 OA
ATOM     25  H2  UNL     1      19.792  -9.782  11.044  1.00  0.00     0.222 HD
ENDBRANCH  23  24
BRANCH  23  26
HETATM   26  O3  UNL     1      18.532 -10.425  12.959  1.00  0.00    -0.304 OA
BRANCH  26  27
HETATM   27  C12 UNL     1      19.236 -11.139  13.916  1.00  0.00     0.203 C 
BRANCH  27  28
HETATM   28  C13 UNL     1      20.585 -11.584  13.434  1.00  0.00     0.091 A 
HETATM   29  C15 UNL     1      21.069 -12.663  14.457  1.00  0.00     0.027 A 
HETATM   30  C16 UNL     1      22.235 -11.793  14.798  1.00  0.00     0.028 A 
HETATM   31  C17 UNL     1      21.755 -10.751  13.782  1.00  0.00     0.107 A 
BRANCH  28  32
HETATM   32  C14 UNL     1      20.685 -12.224  12.090  1.00  0.00     0.186 C 
HETATM   33  O4  UNL     1      21.013 -11.470  11.107  1.00  0.00    -0.647 OA
HETATM   34  O5  UNL     1      20.449 -13.561  11.863  1.00  0.00    -0.647 OA
ENDBRANCH  28  32
BRANCH  31  35
HETATM   35  N4  UNL     1      21.681  -9.451  14.375  1.00  0.00    -0.337 N 
HETATM   36  C18 UNL     1      21.836  -8.354  13.497  1.00  0.00     0.318 C 
HETATM   37  O6  UNL     1      21.996  -8.573  12.228  1.00  0.00    -0.247 OA
HETATM   38  N5  UNL     1      21.847  -7.011  13.912  1.00  0.00    -0.334 N 
HETATM   39  C19 UNL     1      21.640  -6.448  15.217  1.00  0.00     0.127 C 
HETATM   40  C22 UNL     1      22.194  -5.866  13.025  1.00  0.00     0.127 C 
HETATM   41  C20 UNL     1      22.748  -5.386  15.305  1.00  0.00     0.022 C 
HETATM   42  C21 UNL     1      22.763  -4.809  13.913  1.00  0.00     0.022 C 
ATOM     43  H4  UNL     1      21.526  -9.323  15.375  1.00  0.00     0.164 HD
ENDBRANCH  31  35
ENDBRANCH  27  28
ENDBRANCH  26  27
ENDBRANCH  23  26
ENDBRANCH  22  23
ENDBRANCH   1  22
BRANCH   1  44
HETATM   44  C23 UNL     1      16.309  -6.600  13.677  1.00  0.00    -0.009 C 
HETATM   45  C24 UNL     1      15.757  -7.977  13.497  1.00  0.00     0.018 C 
HETATM   46  C25 UNL     1      16.037  -6.100  15.057  1.00  0.00     0.018 C 
HETATM   47  C26 UNL     1      15.791  -5.723  12.619  1.00  0.00     0.018 C 
ENDBRANCH   1  44
TORSDOF 18
ENDMDL
MODEL 5
REMARK VINA RESULT: -8.002850262      1.509      1.800
REMARK  18 active torsions:
REMARK  status: ('A' for Active; 'I' for Inactive)
REMARK    1  A    between atoms: C2_2  and  C3_3 
REMARK    2  A    between atoms: C3_3  and  N1_4 
REMARK    3  A    between atoms: N1_4  and  C4_5 
REMARK    4  A    between atoms: N1_4  and  S1_42 
REMARK    5  A    between atoms: C4_5  and  C5_6 
REMARK    6  A    between atoms: C8_9  and  N2_10 
REMARK       I    between atoms: N2_10  and  C9_11 
REMARK    7  A    between atoms: C9_11  and  C10_13 
REMARK    8  A    between atoms: C10_13  and  N3_14 
REMARK    9  A    between atoms: C10_13  and  C23_36 
REMARK   10  A    between atoms: N3_14  and  C11_15 
REMARK   11  A    between atoms: C11_15  and  O2_16 
REMARK   12  A    between atoms: C11_15  and  O3_18 
REMARK   13  A    between atoms: O3_18  and  C12_19 
REMARK   14  A    between atoms: C12_19  and  C13_20 
REMARK   15  A    between atoms: C13_20  and  C14_21 
REMARK   16  A    between atoms: C17_26  and  N4_27 
REMARK       I    between atoms: N4_27  and  C18_29 
REMARK       I    between atoms: C18_29  and  N5_31 
REMARK   17  A    between atoms: S1_42  and  C29_45 
REMARK   18  A    between atoms: C29_45  and  C30_46 
ROOT
HETATM    1  C10 UNL     1      16.994  -6.700  13.633  1.00  0.00     0.281 C 
ENDROOT
BRANCH   1   2
HETATM    2  C9  UNL     1      17.858  -5.670  12.881  1.00  0.00     0.323 C 
HETATM    3  N2  UNL     1      18.364  -4.619  13.638  1.00  0.00    -0.407 NA
HETATM    4  O1  UNL     1      18.049  -5.825  11.682  1.00  0.00    -0.254 OA
BRANCH   3   5
HETATM    5  C8  UNL     1      18.874  -3.568  14.363  1.00  0.00     0.167 C 
HETATM    6  C7  UNL     1      19.393  -4.170  15.691  1.00  0.00     0.040 C 
HETATM    7  C6  UNL     1      19.483  -3.306  16.848  1.00  0.00     0.009 C 
HETATM    8  C5  UNL     1      18.955  -1.936  16.887  1.00  0.00    -0.000 C 
HETATM    9  C28 UNL     1      18.351  -1.460  15.584  1.00  0.00     0.009 C 
HETATM   10  C27 UNL     1      17.791  -2.554  14.757  1.00  0.00     0.040 C 
BRANCH   8  11
HETATM   11  C4  UNL     1      20.002  -0.885  17.188  1.00  0.00     0.112 C 
BRANCH  11  12
HETATM   12  N1  UNL     1      20.197  -0.544  18.562  1.00  0.00    -0.210 NA
BRANCH  12  13
HETATM   13  C3  UNL     1      21.686  -0.532  18.704  1.00  0.00     0.107 C 
BRANCH  13  14
HETATM   14  C2  UNL     1      22.357  -1.032  17.457  1.00  0.00     0.011 C 
HETATM   15  C1  UNL     1      23.608  -0.151  17.274  1.00  0.00     0.006 C 
ENDBRANCH  13  14
ENDBRANCH  12  13
BRANCH  12  16
HETATM   16  S1  UNL     1      19.502   0.945  19.059  1.00  0.00     0.211 S 
HETATM   17  O7  UNL     1      20.555   2.012  18.837  1.00  0.00    -0.211 OA
HETATM   18  O8  UNL     1      19.226   0.950  20.523  1.00  0.00    -0.211 OA
BRANCH  16  19
HETATM   19  C29 UNL     1      18.061   1.399  18.141  1.00  0.00     0.157 C 
BRANCH  19  20
HETATM   20  C30 UNL     1      16.950   1.926  19.033  1.00  0.00     0.012 C 
HETATM   21  C31 UNL     1      15.973   0.903  19.506  1.00  0.00     0.006 C 
ENDBRANCH  19  20
ENDBRANCH  16  19
ENDBRANCH  12  16
ENDBRANCH  11  12
ENDBRANCH   8  11
ENDBRANCH   3   5
ENDBRANCH   1   2
BRANCH   1  22
HETATM   22  N3  UNL     1      16.856  -7.870  13.061  1.00  0.00    -0.387 NA
BRANCH  22  23
HETATM   23  C11 UNL     1      16.693  -9.145  12.436  1.00  0.00     0.336 C 
BRANCH  23  24
HETATM   24  O2  UNL     1      16.620  -9.170  11.135  1.00  0.00    -0.316 OA
ATOM     25  H2  UNL     1      15.920  -9.681  10.747  1.00  0.00     0.222 HD
ENDBRANCH  23  24
BRANCH  23  26
HETATM   26  O3  UNL     1      16.591 -10.358  12.994  1.00  0.00    -0.304 OA
BRANCH  26  27
HETATM   27  C12 UNL     1      17.401 -11.131  13.810  1.00  0.00     0.203 C 
BRANCH  27  28
HETATM   28  C13 UNL     1      18.488 -11.834  13.051  1.00  0.00     0.091 A 
HETATM   29  C15 UNL     1      18.867 -13.085  13.909  1.00  0.00     0.027 A 
HETATM   30  C16 UNL     1      20.254 -12.548  14.050  1.00  0.00     0.028 A 
HETATM   31  C17 UNL     1      19.870 -11.334  13.197  1.00  0.00     0.107 A 
BRANCH  28  32
HETATM   32  C14 UNL     1      18.181 -12.355  11.687  1.00  0.00     0.186 C 
HETATM   33  O4  UNL     1      18.500 -11.612  10.693  1.00  0.00    -0.647 OA
HETATM   34  O5  UNL     1      17.587 -13.575  11.451  1.00  0.00    -0.647 OA
ENDBRANCH  28  32
BRANCH  31  35
HETATM   35  N4  UNL     1      20.230 -10.112  13.849  1.00  0.00    -0.337 N 
HETATM   36  C18 UNL     1      20.466  -9.001  13.009  1.00  0.00     0.318 C 
HETATM   37  O6  UNL     1      20.314  -9.130  11.727  1.00  0.00    -0.247 OA
HETATM   38  N5  UNL     1      20.880  -7.740  13.472  1.00  0.00    -0.334 N 
HETATM   39  C19 UNL     1      21.077  -7.271  14.815  1.00  0.00     0.127 C 
HETATM   40  C22 UNL     1      21.309  -6.625  12.584  1.00  0.00     0.127 C 
HETATM   41  C20 UNL     1      22.402  -6.498  14.711  1.00  0.00     0.022 C 
HETATM   42  C21 UNL     1      22.279  -5.811  13.375  1.00  0.00     0.022 C 
ATOM     43  H4  UNL     1      20.310 -10.047  14.864  1.00  0.00     0.164 HD
ENDBRANCH  31  35
ENDBRANCH  27  28
ENDBRANCH  26  27
ENDBRANCH  23  26
ENDBRANCH  22  23
ENDBRANCH   1  22
BRANCH   1  44
HETATM   44  C23 UNL     1      15.625  -5.939  13.852  1.00  0.00    -0.009 C 
HETATM   45  C24 UNL     1      14.588  -6.991  13.626  1.00  0.00     0.018 C 
HETATM   46  C25 UNL     1      15.623  -5.494  15.278  1.00  0.00     0.018 C 
HETATM   47  C26 UNL     1      15.429  -4.843  12.893  1.00  0.00     0.018 C 
ENDBRANCH   1  44
TORSDOF 18
ENDMDL
