MODEL 1
REMARK VINA RESULT: -7.972595290      0.000      0.000
REMARK  16 active torsions:
REMARK  status: ('A' for Active; 'I' for Inactive)
REMARK    1  A    between atoms: C2_2  and  C3_3 
REMARK    2  A    between atoms: C3_3  and  C4_4 
REMARK    3  A    between atoms: C4_4  and  C5_5 
REMARK    4  A    between atoms: C5_5  and  C6_6 
REMARK    5  A    between atoms: C6_6  and  C7_7 
REMARK    6  A    between atoms: C7_7  and  S1_8 
REMARK    7  A    between atoms: S1_8  and  C8_9 
REMARK    8  A    between atoms: C8_9  and  C9_10 
REMARK    9  A    between atoms: C9_10  and  C10_12 
REMARK   10  A    between atoms: N1_21  and  C19_22 
REMARK   11  A    between atoms: C21_24  and  O2_25 
REMARK   12  A    between atoms: C22_29  and  C23_30 
REMARK   13  A    between atoms: C26_34  and  N3_35 
REMARK   14  A    between atoms: N3_35  and  C27_37 
REMARK   15  A    between atoms: C29_43  and  C30_44 
REMARK   16  A    between atoms: C30_44  and  C31_45 
ROOT
HETATM    1  C10 UNL     1      20.312  27.714  10.906  1.00  0.00     0.155 C 
HETATM    2  C11 UNL     1      18.869  27.264  11.020  1.00  0.00     0.033 C 
HETATM    3  C12 UNL     1      18.393  26.539   9.779  1.00  0.00     0.002 C 
HETATM    4  C13 UNL     1      17.572  27.406   8.865  1.00  0.00     0.001 C 
HETATM    5  C14 UNL     1      17.773  27.029   7.425  1.00  0.00     0.012 C 
HETATM    6  C15 UNL     1      17.759  25.544   7.189  1.00  0.00     0.094 C 
HETATM    7  C16 UNL     1      18.632  25.177   6.135  1.00  0.00    -0.101 C 
HETATM    8  C17 UNL     1      19.348  24.872   5.304  1.00  0.00    -0.061 C 
HETATM    9  C18 UNL     1      20.246  24.496   4.307  1.00  0.00     0.159 C 
HETATM   10  N1  UNL     1      20.284  23.087   3.940  1.00  0.00    -0.316 N 
HETATM   11  C21 UNL     1      21.465  22.309   3.954  1.00  0.00     0.220 C 
HETATM   12  N2  UNL     1      22.566  22.346   4.811  1.00  0.00    -0.345 N 
ATOM     13  H2  UNL     1      23.445  22.566   4.342  1.00  0.00     0.163 HD
HETATM   14  C22 UNL     1      22.700  22.137   6.212  1.00  0.00     0.157 C 
HETATM   15  C25 UNL     1      22.681  23.310   7.080  1.00  0.00     0.181 C 
HETATM   16  O3  UNL     1      21.665  23.595   7.735  1.00  0.00    -0.293 OA
HETATM   17  C26 UNL     1      23.817  24.282   7.292  1.00  0.00     0.248 C 
HETATM   18  C28 UNL     1      23.220  25.637   7.260  1.00  0.00     0.248 C 
HETATM   19  O5  UNL     1      23.362  26.232   6.121  1.00  0.00    -0.271 OA
HETATM   20  N4  UNL     1      22.547  26.346   8.238  1.00  0.00    -0.346 N 
ATOM     21  H4  UNL     1      21.610  26.643   7.964  1.00  0.00     0.163 HD
HETATM   22  C29 UNL     1      22.924  26.746   9.581  1.00  0.00     0.177 C 
HETATM   23  C34 UNL     1      22.165  26.013  10.605  1.00  0.00     0.241 C 
HETATM   24  O6  UNL     1      22.320  24.767  10.847  1.00  0.00    -0.271 OA
HETATM   25  N5  UNL     1      21.177  26.644  11.424  1.00  0.00    -0.348 N 
ATOM     26  H5  UNL     1      21.069  26.344  12.393  1.00  0.00     0.163 HD
ENDROOT
BRANCH   1  27
HETATM   27  C9  UNL     1      20.463  28.927  11.745  1.00  0.00     0.158 C 
HETATM   28  O1  UNL     1      21.248  28.928  12.657  1.00  0.00    -0.295 OA
BRANCH  27  29
HETATM   29  C8  UNL     1      19.671  30.170  11.506  1.00  0.00     0.154 C 
BRANCH  29  30
HETATM   30  S1  UNL     1      18.500  30.480  12.831  1.00  0.00    -0.162 SA
BRANCH  30  31
HETATM   31  C7  UNL     1      18.653  32.174  13.394  1.00  0.00     0.074 C 
BRANCH  31  32
HETATM   32  C6  UNL     1      17.699  32.456  14.533  1.00  0.00     0.010 C 
BRANCH  32  33
HETATM   33  C5  UNL     1      17.230  33.899  14.457  1.00  0.00     0.001 C 
BRANCH  33  34
HETATM   34  C4  UNL     1      15.908  34.134  15.108  1.00  0.00     0.000 C 
BRANCH  34  35
HETATM   35  C3  UNL     1      15.659  33.200  16.273  1.00  0.00    -0.000 C 
BRANCH  35  36
HETATM   36  C2  UNL     1      15.545  33.973  17.568  1.00  0.00    -0.005 C 
HETATM   37  C1  UNL     1      14.770  35.241  17.283  1.00  0.00     0.005 C 
ENDBRANCH  35  36
ENDBRANCH  34  35
ENDBRANCH  33  34
ENDBRANCH  32  33
ENDBRANCH  31  32
ENDBRANCH  30  31
ENDBRANCH  29  30
ENDBRANCH  27  29
ENDBRANCH   1  27
BRANCH  22  38
HETATM   38  C30 UNL     1      24.392  26.781   9.716  1.00  0.00     0.038 C 
BRANCH  38  39
HETATM   39  C31 UNL     1      24.984  27.620  10.795  1.00  0.00    -0.020 C 
HETATM   40  C32 UNL     1      24.355  28.942  11.027  1.00  0.00     0.009 C 
HETATM   41  C33 UNL     1      25.209  26.903  12.106  1.00  0.00     0.009 C 
ENDBRANCH  38  39
ENDBRANCH  22  38
BRANCH  17  42
HETATM   42  N3  UNL     1      24.826  24.140   6.275  1.00  0.00    -0.349 N 
ATOM     43  H3  UNL     1      24.721  24.647   5.396  1.00  0.00     0.163 HD
BRANCH  42  44
HETATM   44  C27 UNL     1      25.954  23.319   6.466  1.00  0.00     0.349 C 
HETATM   45  O4  UNL     1      26.386  22.455   5.665  1.00  0.00    -0.284 OA
ENDBRANCH  42  44
ENDBRANCH  17  42
BRANCH  14  46
HETATM   46  C23 UNL     1      21.700  21.133   6.793  1.00  0.00     0.028 C 
HETATM   47  C24 UNL     1      22.351  19.827   7.159  1.00  0.00     0.007 C 
ENDBRANCH  14  46
BRANCH  10  48
HETATM   48  C19 UNL     1      18.995  22.520   3.522  1.00  0.00     0.128 C 
HETATM   49  C20 UNL     1      18.419  21.536   4.469  1.00  0.00     0.027 C 
ENDBRANCH  10  48
BRANCH  11  50
HETATM   50  O2  UNL     1      21.471  21.434   2.992  1.00  0.00    -0.332 OA
ATOM     51  H2  UNL     1      21.705  21.831   2.162  1.00  0.00     0.220 HD
ENDBRANCH  11  50
TORSDOF 16
ENDMDL
MODEL 2
REMARK VINA RESULT: -7.834140542      0.733      1.072
REMARK  16 active torsions:
REMARK  status: ('A' for Active; 'I' for Inactive)
REMARK    1  A    between atoms: C2_2  and  C3_3 
REMARK    2  A    between atoms: C3_3  and  C4_4 
REMARK    3  A    between atoms: C4_4  and  C5_5 
REMARK    4  A    between atoms: C5_5  and  C6_6 
REMARK    5  A    between atoms: C6_6  and  C7_7 
REMARK    6  A    between atoms: C7_7  and  S1_8 
REMARK    7  A    between atoms: S1_8  and  C8_9 
REMARK    8  A    between atoms: C8_9  and  C9_10 
REMARK    9  A    between atoms: C9_10  and  C10_12 
REMARK   10  A    between atoms: N1_21  and  C19_22 
REMARK   11  A    between atoms: C21_24  and  O2_25 
REMARK   12  A    between atoms: C22_29  and  C23_30 
REMARK   13  A    between atoms: C26_34  and  N3_35 
REMARK   14  A    between atoms: N3_35  and  C27_37 
REMARK   15  A    between atoms: C29_43  and  C30_44 
REMARK   16  A    between atoms: C30_44  and  C31_45 
ROOT
HETATM    1  C10 UNL     1      20.276  27.714  10.862  1.00  0.00     0.155 C 
HETATM    2  C11 UNL     1      18.830  27.272  10.956  1.00  0.00     0.033 C 
HETATM    3  C12 UNL     1      18.367  26.552   9.707  1.00  0.00     0.002 C 
HETATM    4  C13 UNL     1      17.562  27.425   8.784  1.00  0.00     0.001 C 
HETATM    5  C14 UNL     1      17.781  27.051   7.347  1.00  0.00     0.012 C 
HETATM    6  C15 UNL     1      17.762  25.566   7.107  1.00  0.00     0.094 C 
HETATM    7  C16 UNL     1      18.647  25.197   6.063  1.00  0.00    -0.101 C 
HETATM    8  C17 UNL     1      19.373  24.890   5.241  1.00  0.00    -0.061 C 
HETATM    9  C18 UNL     1      20.282  24.513   4.255  1.00  0.00     0.159 C 
HETATM   10  N1  UNL     1      20.318  23.104   3.886  1.00  0.00    -0.316 N 
HETATM   11  C21 UNL     1      21.494  22.320   3.913  1.00  0.00     0.220 C 
HETATM   12  N2  UNL     1      22.585  22.350   4.785  1.00  0.00    -0.345 N 
ATOM     13  H2  UNL     1      23.471  22.566   4.328  1.00  0.00     0.163 HD
HETATM   14  C22 UNL     1      22.699  22.136   6.187  1.00  0.00     0.157 C 
HETATM   15  C25 UNL     1      22.674  23.307   7.057  1.00  0.00     0.181 C 
HETATM   16  O3  UNL     1      21.651  23.596   7.700  1.00  0.00    -0.293 OA
HETATM   17  C26 UNL     1      23.812  24.272   7.287  1.00  0.00     0.248 C 
HETATM   18  C28 UNL     1      23.222  25.631   7.250  1.00  0.00     0.248 C 
HETATM   19  O5  UNL     1      23.383  26.228   6.115  1.00  0.00    -0.271 OA
HETATM   20  N4  UNL     1      22.540  26.341   8.221  1.00  0.00    -0.346 N 
ATOM     21  H4  UNL     1      21.609  26.644   7.936  1.00  0.00     0.163 HD
HETATM   22  C29 UNL     1      22.901  26.736   9.570  1.00  0.00     0.177 C 
HETATM   23  C34 UNL     1      22.125  26.004  10.582  1.00  0.00     0.241 C 
HETATM   24  O6  UNL     1      22.270  24.757  10.823  1.00  0.00    -0.271 OA
HETATM   25  N5  UNL     1      21.129  26.638  11.389  1.00  0.00    -0.348 N 
ATOM     26  H5  UNL     1      21.007  26.336  12.356  1.00  0.00     0.163 HD
ENDROOT
BRANCH   1  27
HETATM   27  C9  UNL     1      20.422  28.924  11.706  1.00  0.00     0.158 C 
HETATM   28  O1  UNL     1      20.183  30.009  11.242  1.00  0.00    -0.295 OA
BRANCH  27  29
HETATM   29  C8  UNL     1      20.860  28.859  13.132  1.00  0.00     0.154 C 
BRANCH  29  30
HETATM   30  S1  UNL     1      21.119  30.494  13.826  1.00  0.00    -0.162 SA
BRANCH  30  31
HETATM   31  C7  UNL     1      19.767  30.909  14.927  1.00  0.00     0.074 C 
BRANCH  31  32
HETATM   32  C6  UNL     1      18.466  31.028  14.168  1.00  0.00     0.010 C 
BRANCH  32  33
HETATM   33  C5  UNL     1      18.317  32.443  13.634  1.00  0.00     0.001 C 
BRANCH  33  34
HETATM   34  C4  UNL     1      18.004  33.451  14.690  1.00  0.00     0.000 C 
BRANCH  34  35
HETATM   35  C3  UNL     1      16.764  34.260  14.372  1.00  0.00    -0.000 C 
BRANCH  35  36
HETATM   36  C2  UNL     1      15.838  34.317  15.567  1.00  0.00    -0.005 C 
HETATM   37  C1  UNL     1      15.689  32.910  16.105  1.00  0.00     0.005 C 
ENDBRANCH  35  36
ENDBRANCH  34  35
ENDBRANCH  33  34
ENDBRANCH  32  33
ENDBRANCH  31  32
ENDBRANCH  30  31
ENDBRANCH  29  30
ENDBRANCH  27  29
ENDBRANCH   1  27
BRANCH  22  38
HETATM   38  C30 UNL     1      24.368  26.763   9.725  1.00  0.00     0.038 C 
BRANCH  38  39
HETATM   39  C31 UNL     1      24.953  27.654  10.765  1.00  0.00    -0.020 C 
HETATM   40  C32 UNL     1      24.260  28.942  11.002  1.00  0.00     0.009 C 
HETATM   41  C33 UNL     1      25.271  26.975  12.077  1.00  0.00     0.009 C 
ENDBRANCH  38  39
ENDBRANCH  22  38
BRANCH  17  42
HETATM   42  N3  UNL     1      24.834  24.128   6.283  1.00  0.00    -0.349 N 
ATOM     43  H3  UNL     1      24.769  24.676   5.425  1.00  0.00     0.163 HD
BRANCH  42  44
HETATM   44  C27 UNL     1      25.919  23.248   6.458  1.00  0.00     0.349 C 
HETATM   45  O4  UNL     1      26.380  22.459   5.598  1.00  0.00    -0.284 OA
ENDBRANCH  42  44
ENDBRANCH  17  42
BRANCH  14  46
HETATM   46  C23 UNL     1      21.686  21.136   6.752  1.00  0.00     0.028 C 
HETATM   47  C24 UNL     1      22.318  19.812   7.084  1.00  0.00     0.007 C 
ENDBRANCH  14  46
BRANCH  10  48
HETATM   48  C19 UNL     1      19.031  22.544   3.449  1.00  0.00     0.128 C 
HETATM   49  C20 UNL     1      18.444  21.552   4.380  1.00  0.00     0.027 C 
ENDBRANCH  10  48
BRANCH  11  50
HETATM   50  O2  UNL     1      21.509  21.447   2.949  1.00  0.00    -0.332 OA
ATOM     51  H2  UNL     1      21.676  20.571   3.275  1.00  0.00     0.220 HD
ENDBRANCH  11  50
TORSDOF 16
ENDMDL
MODEL 3
REMARK VINA RESULT: -7.793833486      1.733      2.308
REMARK  16 active torsions:
REMARK  status: ('A' for Active; 'I' for Inactive)
REMARK    1  A    between atoms: C2_2  and  C3_3 
REMARK    2  A    between atoms: C3_3  and  C4_4 
REMARK    3  A    between atoms: C4_4  and  C5_5 
REMARK    4  A    between atoms: C5_5  and  C6_6 
REMARK    5  A    between atoms: C6_6  and  C7_7 
REMARK    6  A    between atoms: C7_7  and  S1_8 
REMARK    7  A    between atoms: S1_8  and  C8_9 
REMARK    8  A    between atoms: C8_9  and  C9_10 
REMARK    9  A    between atoms: C9_10  and  C10_12 
REMARK   10  A    between atoms: N1_21  and  C19_22 
REMARK   11  A    between atoms: C21_24  and  O2_25 
REMARK   12  A    between atoms: C22_29  and  C23_30 
REMARK   13  A    between atoms: C26_34  and  N3_35 
REMARK   14  A    between atoms: N3_35  and  C27_37 
REMARK   15  A    between atoms: C29_43  and  C30_44 
REMARK   16  A    between atoms: C30_44  and  C31_45 
ROOT
HETATM    1  C10 UNL     1      20.289  27.698  11.044  1.00  0.00     0.155 C 
HETATM    2  C11 UNL     1      18.841  27.261  11.143  1.00  0.00     0.033 C 
HETATM    3  C12 UNL     1      18.364  26.566   9.886  1.00  0.00     0.002 C 
HETATM    4  C13 UNL     1      17.555  27.460   8.986  1.00  0.00     0.001 C 
HETATM    5  C14 UNL     1      17.758  27.111   7.540  1.00  0.00     0.012 C 
HETATM    6  C15 UNL     1      17.730  25.631   7.274  1.00  0.00     0.094 C 
HETATM    7  C16 UNL     1      18.603  25.276   6.215  1.00  0.00    -0.101 C 
HETATM    8  C17 UNL     1      19.320  24.981   5.381  1.00  0.00    -0.061 C 
HETATM    9  C18 UNL     1      20.218  24.617   4.380  1.00  0.00     0.159 C 
HETATM   10  N1  UNL     1      20.244  23.215   3.985  1.00  0.00    -0.316 N 
HETATM   11  C21 UNL     1      21.416  22.425   3.988  1.00  0.00     0.220 C 
HETATM   12  N2  UNL     1      22.515  22.434   4.849  1.00  0.00    -0.345 N 
ATOM     13  H2  UNL     1      23.397  22.654   4.389  1.00  0.00     0.163 HD
HETATM   14  C22 UNL     1      22.640  22.194   6.246  1.00  0.00     0.157 C 
HETATM   15  C25 UNL     1      22.629  23.349   7.138  1.00  0.00     0.181 C 
HETATM   16  O3  UNL     1      21.614  23.631   7.795  1.00  0.00    -0.293 OA
HETATM   17  C26 UNL     1      23.775  24.305   7.374  1.00  0.00     0.248 C 
HETATM   18  C28 UNL     1      23.191  25.667   7.368  1.00  0.00     0.248 C 
HETATM   19  O5  UNL     1      23.344  26.283   6.242  1.00  0.00    -0.271 OA
HETATM   20  N4  UNL     1      22.522  26.362   8.358  1.00  0.00    -0.346 N 
ATOM     21  H4  UNL     1      21.589  26.674   8.086  1.00  0.00     0.163 HD
HETATM   22  C29 UNL     1      22.897  26.731   9.710  1.00  0.00     0.177 C 
HETATM   23  C34 UNL     1      22.127  25.984  10.716  1.00  0.00     0.241 C 
HETATM   24  O6  UNL     1      22.268  24.733  10.933  1.00  0.00    -0.271 OA
HETATM   25  N5  UNL     1      21.141  26.609  11.543  1.00  0.00    -0.348 N 
ATOM     26  H5  UNL     1      21.026  26.290  12.505  1.00  0.00     0.163 HD
ENDROOT
BRANCH   1  27
HETATM   27  C9  UNL     1      20.449  28.892  11.909  1.00  0.00     0.158 C 
HETATM   28  O1  UNL     1      20.953  28.779  12.996  1.00  0.00    -0.295 OA
BRANCH  27  29
HETATM   29  C8  UNL     1      20.006  30.253  11.485  1.00  0.00     0.154 C 
BRANCH  29  30
HETATM   30  S1  UNL     1      18.801  30.946  12.621  1.00  0.00    -0.162 SA
BRANCH  30  31
HETATM   31  C7  UNL     1      19.589  32.164  13.674  1.00  0.00     0.074 C 
BRANCH  31  32
HETATM   32  C6  UNL     1      20.119  31.526  14.938  1.00  0.00     0.010 C 
BRANCH  32  33
HETATM   33  C5  UNL     1      21.604  31.821  15.070  1.00  0.00     0.001 C 
BRANCH  33  34
HETATM   34  C4  UNL     1      22.208  32.414  13.842  1.00  0.00     0.000 C 
BRANCH  34  35
HETATM   35  C3  UNL     1      22.959  33.699  14.124  1.00  0.00    -0.000 C 
BRANCH  35  36
HETATM   36  C2  UNL     1      22.451  34.353  15.389  1.00  0.00    -0.005 C 
HETATM   37  C1  UNL     1      21.957  35.738  15.027  1.00  0.00     0.005 C 
ENDBRANCH  35  36
ENDBRANCH  34  35
ENDBRANCH  33  34
ENDBRANCH  32  33
ENDBRANCH  31  32
ENDBRANCH  30  31
ENDBRANCH  29  30
ENDBRANCH  27  29
ENDBRANCH   1  27
BRANCH  22  38
HETATM   38  C30 UNL     1      24.365  26.748   9.852  1.00  0.00     0.038 C 
BRANCH  38  39
HETATM   39  C31 UNL     1      24.968  27.663  10.861  1.00  0.00    -0.020 C 
HETATM   40  C32 UNL     1      24.320  28.985  11.029  1.00  0.00     0.009 C 
HETATM   41  C33 UNL     1      25.242  27.032  12.206  1.00  0.00     0.009 C 
ENDBRANCH  38  39
ENDBRANCH  22  38
BRANCH  17  42
HETATM   42  N3  UNL     1      24.786  24.174   6.359  1.00  0.00    -0.349 N 
ATOM     43  H3  UNL     1      24.684  24.691   5.485  1.00  0.00     0.163 HD
BRANCH  42  44
HETATM   44  C27 UNL     1      25.913  23.348   6.543  1.00  0.00     0.349 C 
HETATM   45  O4  UNL     1      26.359  22.509   5.724  1.00  0.00    -0.284 OA
ENDBRANCH  42  44
ENDBRANCH  17  42
BRANCH  14  46
HETATM   46  C23 UNL     1      21.628  21.188   6.803  1.00  0.00     0.028 C 
HETATM   47  C24 UNL     1      22.195  19.798   6.889  1.00  0.00     0.007 C 
ENDBRANCH  14  46
BRANCH  10  48
HETATM   48  C19 UNL     1      18.950  22.670   3.550  1.00  0.00     0.128 C 
HETATM   49  C20 UNL     1      18.330  21.720   4.505  1.00  0.00     0.027 C 
ENDBRANCH  10  48
BRANCH  11  50
HETATM   50  O2  UNL     1      21.418  21.570   3.008  1.00  0.00    -0.332 OA
ATOM     51  H2  UNL     1      21.814  21.936   2.226  1.00  0.00     0.220 HD
ENDBRANCH  11  50
TORSDOF 16
ENDMDL
MODEL 4
REMARK VINA RESULT: -7.784943795      8.913     16.751
REMARK  16 active torsions:
REMARK  status: ('A' for Active; 'I' for Inactive)
REMARK    1  A    between atoms: C2_2  and  C3_3 
REMARK    2  A    between atoms: C3_3  and  C4_4 
REMARK    3  A    between atoms: C4_4  and  C5_5 
REMARK    4  A    between atoms: C5_5  and  C6_6 
REMARK    5  A    between atoms: C6_6  and  C7_7 
REMARK    6  A    between atoms: C7_7  and  S1_8 
REMARK    7  A    between atoms: S1_8  and  C8_9 
REMARK    8  A    between atoms: C8_9  and  C9_10 
REMARK    9  A    between atoms: C9_10  and  C10_12 
REMARK   10  A    between atoms: N1_21  and  C19_22 
REMARK   11  A    between atoms: C21_24  and  O2_25 
REMARK   12  A    between atoms: C22_29  and  C23_30 
REMARK   13  A    between atoms: C26_34  and  N3_35 
REMARK   14  A    between atoms: N3_35  and  C27_37 
REMARK   15  A    between atoms: C29_43  and  C30_44 
REMARK   16  A    between atoms: C30_44  and  C31_45 
ROOT
HETATM    1  C10 UNL     1      21.715  35.765  16.466  1.00  0.00     0.155 C 
HETATM    2  C11 UNL     1      22.741  36.839  16.771  1.00  0.00     0.033 C 
HETATM    3  C12 UNL     1      22.134  38.226  16.784  1.00  0.00     0.002 C 
HETATM    4  C13 UNL     1      22.383  38.993  15.514  1.00  0.00     0.001 C 
HETATM    5  C14 UNL     1      21.239  39.911  15.196  1.00  0.00     0.012 C 
HETATM    6  C15 UNL     1      20.733  40.671  16.391  1.00  0.00     0.094 C 
HETATM    7  C16 UNL     1      19.336  40.897  16.310  1.00  0.00    -0.101 C 
HETATM    8  C17 UNL     1      18.210  41.063  16.263  1.00  0.00    -0.061 C 
HETATM    9  C18 UNL     1      16.829  41.239  16.219  1.00  0.00     0.159 C 
HETATM   10  N1  UNL     1      16.222  42.015  17.292  1.00  0.00    -0.316 N 
HETATM   11  C21 UNL     1      15.166  41.535  18.101  1.00  0.00     0.220 C 
HETATM   12  N2  UNL     1      14.898  40.250  18.577  1.00  0.00    -0.345 N 
ATOM     13  H2  UNL     1      14.010  39.868  18.253  1.00  0.00     0.163 HD
HETATM   14  C22 UNL     1      15.626  39.370  19.426  1.00  0.00     0.157 C 
HETATM   15  C25 UNL     1      16.475  38.365  18.796  1.00  0.00     0.181 C 
HETATM   16  O3  UNL     1      17.707  38.516  18.749  1.00  0.00    -0.293 OA
HETATM   17  C26 UNL     1      16.010  37.080  18.154  1.00  0.00     0.248 C 
HETATM   18  C28 UNL     1      16.767  36.948  16.887  1.00  0.00     0.248 C 
HETATM   19  O5  UNL     1      16.095  37.322  15.848  1.00  0.00    -0.271 OA
HETATM   20  N4  UNL     1      18.053  36.497  16.652  1.00  0.00    -0.346 N 
ATOM     21  H4  UNL     1      18.647  37.172  16.169  1.00  0.00     0.163 HD
HETATM   22  C29 UNL     1      18.715  35.244  16.962  1.00  0.00     0.177 C 
HETATM   23  C34 UNL     1      19.737  35.408  18.008  1.00  0.00     0.241 C 
HETATM   24  O6  UNL     1      19.465  35.659  19.231  1.00  0.00    -0.271 OA
HETATM   25  N5  UNL     1      21.136  35.299  17.735  1.00  0.00    -0.348 N 
ATOM     26  H5  UNL     1      21.749  34.888  18.439  1.00  0.00     0.163 HD
ENDROOT
BRANCH   1  27
HETATM   27  C9  UNL     1      22.431  34.647  15.805  1.00  0.00     0.158 C 
HETATM   28  O1  UNL     1      23.036  34.847  14.783  1.00  0.00    -0.295 OA
BRANCH  27  29
HETATM   29  C8  UNL     1      22.436  33.261  16.358  1.00  0.00     0.154 C 
BRANCH  29  30
HETATM   30  S1  UNL     1      21.083  32.278  15.706  1.00  0.00    -0.162 SA
BRANCH  30  31
HETATM   31  C7  UNL     1      21.237  32.134  13.926  1.00  0.00     0.074 C 
BRANCH  31  32
HETATM   32  C6  UNL     1      22.485  31.368  13.550  1.00  0.00     0.010 C 
BRANCH  32  33
HETATM   33  C5  UNL     1      22.444  29.988  14.184  1.00  0.00     0.001 C 
BRANCH  33  34
HETATM   34  C4  UNL     1      23.077  28.926  13.348  1.00  0.00     0.000 C 
BRANCH  34  35
HETATM   35  C3  UNL     1      24.487  29.281  12.926  1.00  0.00    -0.000 C 
BRANCH  35  36
HETATM   36  C2  UNL     1      24.854  28.587  11.634  1.00  0.00    -0.005 C 
HETATM   37  C1  UNL     1      25.186  27.147  11.961  1.00  0.00     0.005 C 
ENDBRANCH  35  36
ENDBRANCH  34  35
ENDBRANCH  33  34
ENDBRANCH  32  33
ENDBRANCH  31  32
ENDBRANCH  30  31
ENDBRANCH  29  30
ENDBRANCH  27  29
ENDBRANCH   1  27
BRANCH  22  38
HETATM   38  C30 UNL     1      17.725  34.166  17.141  1.00  0.00     0.038 C 
BRANCH  38  39
HETATM   39  C31 UNL     1      17.394  33.308  15.970  1.00  0.00    -0.020 C 
HETATM   40  C32 UNL     1      17.361  31.845  16.207  1.00  0.00     0.009 C 
HETATM   41  C33 UNL     1      16.179  33.744  15.185  1.00  0.00     0.009 C 
ENDBRANCH  38  39
ENDBRANCH  22  38
BRANCH  17  42
HETATM   42  N3  UNL     1      14.593  37.100  17.906  1.00  0.00    -0.349 N 
ATOM     43  H3  UNL     1      14.089  37.985  17.966  1.00  0.00     0.163 HD
BRANCH  42  44
HETATM   44  C27 UNL     1      13.885  35.925  17.582  1.00  0.00     0.349 C 
HETATM   45  O4  UNL     1      14.251  34.749  17.821  1.00  0.00    -0.284 OA
ENDBRANCH  42  44
ENDBRANCH  17  42
BRANCH  14  46
HETATM   46  C23 UNL     1      16.480  40.082  20.480  1.00  0.00     0.028 C 
HETATM   47  C24 UNL     1      15.716  40.348  21.748  1.00  0.00     0.007 C 
ENDBRANCH  14  46
BRANCH  10  48
HETATM   48  C19 UNL     1      16.771  43.366  17.468  1.00  0.00     0.128 C 
HETATM   49  C20 UNL     1      17.559  43.554  18.709  1.00  0.00     0.027 C 
ENDBRANCH  10  48
BRANCH  11  50
HETATM   50  O2  UNL     1      14.341  42.487  18.424  1.00  0.00    -0.332 OA
ATOM     51  H2  UNL     1      14.760  43.141  18.971  1.00  0.00     0.220 HD
ENDBRANCH  11  50
TORSDOF 16
ENDMDL
MODEL 5
REMARK VINA RESULT: -7.772240604      9.341     16.492
REMARK  16 active torsions:
REMARK  status: ('A' for Active; 'I' for Inactive)
REMARK    1  A    between atoms: C2_2  and  C3_3 
REMARK    2  A    between atoms: C3_3  and  C4_4 
REMARK    3  A    between atoms: C4_4  and  C5_5 
REMARK    4  A    between atoms: C5_5  and  C6_6 
REMARK    5  A    between atoms: C6_6  and  C7_7 
REMARK    6  A    between atoms: C7_7  and  S1_8 
REMARK    7  A    between atoms: S1_8  and  C8_9 
REMARK    8  A    between atoms: C8_9  and  C9_10 
REMARK    9  A    between atoms: C9_10  and  C10_12 
REMARK   10  A    between atoms: N1_21  and  C19_22 
REMARK   11  A    between atoms: C21_24  and  O2_25 
REMARK   12  A    between atoms: C22_29  and  C23_30 
REMARK   13  A    between atoms: C26_34  and  N3_35 
REMARK   14  A    between atoms: N3_35  and  C27_37 
REMARK   15  A    between atoms: C29_43  and  C30_44 
REMARK   16  A    between atoms: C30_44  and  C31_45 
ROOT
HETATM    1  C10 UNL     1      21.718  35.782  16.499  1.00  0.00     0.155 C 
HETATM    2  C11 UNL     1      22.736  36.863  16.800  1.00  0.00     0.033 C 
HETATM    3  C12 UNL     1      22.120  38.246  16.807  1.00  0.00     0.002 C 
HETATM    4  C13 UNL     1      22.365  39.010  15.534  1.00  0.00     0.001 C 
HETATM    5  C14 UNL     1      21.215  39.919  15.211  1.00  0.00     0.012 C 
HETATM    6  C15 UNL     1      20.702  40.681  16.403  1.00  0.00     0.094 C 
HETATM    7  C16 UNL     1      19.304  40.897  16.319  1.00  0.00    -0.101 C 
HETATM    8  C17 UNL     1      18.177  41.054  16.271  1.00  0.00    -0.061 C 
HETATM    9  C18 UNL     1      16.795  41.221  16.224  1.00  0.00     0.159 C 
HETATM   10  N1  UNL     1      16.181  41.997  17.293  1.00  0.00    -0.316 N 
HETATM   11  C21 UNL     1      15.127  41.513  18.103  1.00  0.00     0.220 C 
HETATM   12  N2  UNL     1      14.868  40.228  18.583  1.00  0.00    -0.345 N 
ATOM     13  H2  UNL     1      13.983  39.839  18.260  1.00  0.00     0.163 HD
HETATM   14  C22 UNL     1      15.601  39.357  19.437  1.00  0.00     0.157 C 
HETATM   15  C25 UNL     1      16.458  38.355  18.812  1.00  0.00     0.181 C 
HETATM   16  O3  UNL     1      17.688  38.515  18.766  1.00  0.00    -0.293 OA
HETATM   17  C26 UNL     1      16.002  37.064  18.174  1.00  0.00     0.248 C 
HETATM   18  C28 UNL     1      16.762  36.932  16.909  1.00  0.00     0.248 C 
HETATM   19  O5  UNL     1      16.088  37.298  15.867  1.00  0.00    -0.271 OA
HETATM   20  N4  UNL     1      18.051  36.489  16.677  1.00  0.00    -0.346 N 
ATOM     21  H4  UNL     1      18.640  37.166  16.192  1.00  0.00     0.163 HD
HETATM   22  C29 UNL     1      18.721  35.242  16.993  1.00  0.00     0.177 C 
HETATM   23  C34 UNL     1      19.740  35.417  18.039  1.00  0.00     0.241 C 
HETATM   24  O6  UNL     1      19.465  35.671  19.261  1.00  0.00    -0.271 OA
HETATM   25  N5  UNL     1      21.141  35.317  17.768  1.00  0.00    -0.348 N 
ATOM     26  H5  UNL     1      21.755  34.912  18.475  1.00  0.00     0.163 HD
ENDROOT
BRANCH   1  27
HETATM   27  C9  UNL     1      22.442  34.666  15.842  1.00  0.00     0.158 C 
HETATM   28  O1  UNL     1      23.154  34.890  14.898  1.00  0.00    -0.295 OA
BRANCH  27  29
HETATM   29  C8  UNL     1      22.327  33.253  16.308  1.00  0.00     0.154 C 
BRANCH  29  30
HETATM   30  S1  UNL     1      21.150  32.321  15.323  1.00  0.00    -0.162 SA
BRANCH  30  31
HETATM   31  C7  UNL     1      21.965  31.651  13.874  1.00  0.00     0.074 C 
BRANCH  31  32
HETATM   32  C6  UNL     1      20.964  31.338  12.785  1.00  0.00     0.010 C 
BRANCH  32  33
HETATM   33  C5  UNL     1      19.618  31.945  13.143  1.00  0.00     0.001 C 
BRANCH  33  34
HETATM   34  C4  UNL     1      18.455  31.104  12.735  1.00  0.00     0.000 C 
BRANCH  34  35
HETATM   35  C3  UNL     1      18.791  29.628  12.690  1.00  0.00    -0.000 C 
BRANCH  35  36
HETATM   36  C2  UNL     1      18.408  28.948  13.985  1.00  0.00    -0.005 C 
HETATM   37  C1  UNL     1      17.712  27.650  13.638  1.00  0.00     0.005 C 
ENDBRANCH  35  36
ENDBRANCH  34  35
ENDBRANCH  33  34
ENDBRANCH  32  33
ENDBRANCH  31  32
ENDBRANCH  30  31
ENDBRANCH  29  30
ENDBRANCH  27  29
ENDBRANCH   1  27
BRANCH  22  38
HETATM   38  C30 UNL     1      17.738  34.158  17.175  1.00  0.00     0.038 C 
BRANCH  38  39
HETATM   39  C31 UNL     1      17.440  33.271  16.016  1.00  0.00    -0.020 C 
HETATM   40  C32 UNL     1      17.492  31.811  16.268  1.00  0.00     0.009 C 
HETATM   41  C33 UNL     1      16.193  33.631  15.243  1.00  0.00     0.009 C 
ENDBRANCH  38  39
ENDBRANCH  22  38
BRANCH  17  42
HETATM   42  N3  UNL     1      14.585  37.073  17.924  1.00  0.00    -0.349 N 
ATOM     43  H3  UNL     1      14.072  37.952  17.999  1.00  0.00     0.163 HD
BRANCH  42  44
HETATM   44  C27 UNL     1      13.889  35.898  17.579  1.00  0.00     0.349 C 
HETATM   45  O4  UNL     1      14.264  34.722  17.805  1.00  0.00    -0.284 OA
ENDBRANCH  42  44
ENDBRANCH  17  42
BRANCH  14  46
HETATM   46  C23 UNL     1      16.449  40.079  20.489  1.00  0.00     0.028 C 
HETATM   47  C24 UNL     1      15.714  40.254  21.790  1.00  0.00     0.007 C 
ENDBRANCH  14  46
BRANCH  10  48
HETATM   48  C19 UNL     1      16.721  43.353  17.465  1.00  0.00     0.128 C 
HETATM   49  C20 UNL     1      17.506  43.551  18.706  1.00  0.00     0.027 C 
ENDBRANCH  10  48
BRANCH  11  50
HETATM   50  O2  UNL     1      14.295  42.461  18.421  1.00  0.00    -0.332 OA
ATOM     51  H2  UNL     1      14.226  43.109  17.730  1.00  0.00     0.220 HD
ENDBRANCH  11  50
TORSDOF 16
ENDMDL
