MODEL 1
REMARK VINA RESULT: -6.799708616      0.000      0.000
REMARK  16 active torsions:
REMARK  status: ('A' for Active; 'I' for Inactive)
REMARK    1  A    between atoms: C3_3  and  C4_4 
REMARK    2  A    between atoms: C4_4  and  S1_5 
REMARK    3  A    between atoms: S1_5  and  C5_8 
REMARK    4  A    between atoms: C5_8  and  C6_9 
REMARK    5  A    between atoms: C6_9  and  C7_10 
REMARK    6  A    between atoms: C20_23  and  N1_24 
REMARK    7  A    between atoms: N1_24  and  C21_26 
REMARK    8  A    between atoms: C21_26  and  C22_27 
REMARK    9  A    between atoms: C22_27  and  N2_28 
REMARK   10  A    between atoms: C22_27  and  C23_32 
REMARK   11  A    between atoms: C22_27  and  C25_34 
REMARK   12  A    between atoms: N3_38  and  C28_39 
REMARK   13  A    between atoms: C28_39  and  C29_40 
REMARK   14  A    between atoms: C29_40  and  C30_41 
REMARK   15  A    between atoms: C30_41  and  C31_42 
REMARK   16  A    between atoms: C31_42  and  N4_43 
ROOT
HETATM    1  C7  UNL     1      18.899  25.463  10.347  1.00  0.00    -0.006 C 
HETATM    2  C8  UNL     1      18.874  24.207  11.239  1.00  0.00     0.005 C 
HETATM    3  C9  UNL     1      20.353  24.011  11.616  1.00  0.00     0.007 C 
HETATM    4  C10 UNL     1      20.893  24.360  10.283  1.00  0.00     0.016 C 
HETATM    5  C11 UNL     1      22.370  24.284  10.121  1.00  0.00     0.092 C 
HETATM    6  C12 UNL     1      23.186  25.213  10.873  1.00  0.00     0.035 C 
HETATM    7  C13 UNL     1      23.590  26.527  10.429  1.00  0.00    -0.034 C 
HETATM    8  C14 UNL     1      23.508  27.498  11.623  1.00  0.00     0.010 C 
HETATM    9  C15 UNL     1      24.714  28.406  11.538  1.00  0.00     0.005 C 
HETATM   10  C16 UNL     1      25.071  28.175  10.062  1.00  0.00    -0.013 C 
HETATM   11  C17 UNL     1      23.843  28.529   9.298  1.00  0.00     0.010 C 
HETATM   12  C18 UNL     1      23.105  27.167   9.212  1.00  0.00    -0.003 C 
HETATM   13  C19 UNL     1      21.660  27.475   9.083  1.00  0.00     0.046 C 
HETATM   14  C20 UNL     1      20.770  26.264   8.752  1.00  0.00     0.112 C 
HETATM   15  C27 UNL     1      21.782  25.356   8.053  1.00  0.00     0.248 C 
HETATM   16  O3  UNL     1      22.032  25.551   6.822  1.00  0.00    -0.271 OA
HETATM   17  N3  UNL     1      22.478  24.297   8.661  1.00  0.00    -0.345 N 
HETATM   18  C33 UNL     1      20.305  25.735  10.049  1.00  0.00     0.033 C 
HETATM   19  C34 UNL     1      25.107  26.648  10.137  1.00  0.00     0.014 C 
ENDROOT
BRANCH  14  20
HETATM   20  N1  UNL     1      19.875  26.538   7.720  1.00  0.00    -0.402 N 
ATOM     21  H1  UNL     1      20.145  27.311   7.112  1.00  0.00     0.154 HD
BRANCH  20  22
HETATM   22  C21 UNL     1      18.700  25.939   7.395  1.00  0.00     0.153 C 
BRANCH  22  23
HETATM   23  C22 UNL     1      18.550  25.908   5.851  1.00  0.00     0.138 C 
BRANCH  23  24
HETATM   24  N2  UNL     1      19.725  25.328   5.281  1.00  0.00    -0.069 N 
ATOM     25  H23 UNL     1      19.832  25.560   4.294  1.00  0.00     0.275 HD
ATOM     26  H22 UNL     1      20.580  25.766   5.624  1.00  0.00     0.275 HD
ATOM     27  H21 UNL     1      19.711  24.321   5.444  1.00  0.00     0.275 HD
ENDBRANCH  23  24
BRANCH  23  28
HETATM   28  C23 UNL     1      17.339  25.064   5.577  1.00  0.00     0.036 C 
HETATM   29  C24 UNL     1      17.572  23.638   6.062  1.00  0.00     0.007 C 
ENDBRANCH  23  28
BRANCH  23  30
HETATM   30  C25 UNL     1      18.359  27.272   5.294  1.00  0.00     0.036 C 
HETATM   31  C26 UNL     1      18.646  27.322   3.802  1.00  0.00     0.007 C 
ENDBRANCH  23  30
ENDBRANCH  22  23
ENDBRANCH  20  22
ENDBRANCH  14  20
BRANCH  17  32
HETATM   32  C28 UNL     1      23.203  23.292   7.917  1.00  0.00     0.126 C 
BRANCH  32  33
HETATM   33  C29 UNL     1      24.567  23.682   7.486  1.00  0.00     0.021 C 
BRANCH  33  34
HETATM   34  C30 UNL     1      24.735  23.163   6.051  1.00  0.00     0.021 C 
BRANCH  34  35
HETATM   35  C31 UNL     1      25.118  24.280   5.119  1.00  0.00     0.122 C 
BRANCH  35  36
HETATM   36  N4  UNL     1      23.906  24.999   4.778  1.00  0.00    -0.367 N 
HETATM   37  C32 UNL     1      23.431  24.983   3.587  1.00  0.00     0.196 C 
HETATM   38  N5  UNL     1      22.243  25.712   3.337  1.00  0.00    -0.067 NA
HETATM   39  N6  UNL     1      24.103  24.248   2.592  1.00  0.00    -0.067 NA
ATOM     40  H4  UNL     1      23.420  25.530   5.501  1.00  0.00     0.161 HD
ENDBRANCH  35  36
ENDBRANCH  34  35
ENDBRANCH  33  34
ENDBRANCH  32  33
ENDBRANCH  17  32
BRANCH   1  41
HETATM   41  C6  UNL     1      18.149  26.468  11.164  1.00  0.00     0.020 C 
BRANCH  41  42
HETATM   42  C5  UNL     1      18.946  27.412  11.978  1.00  0.00     0.141 C 
BRANCH  42  43
HETATM   43  S1  UNL     1      18.785  29.027  11.179  1.00  0.00     0.147 S 
HETATM   44  O1  UNL     1      18.105  29.959  12.136  1.00  0.00    -0.228 OA
HETATM   45  O2  UNL     1      18.044  28.882   9.887  1.00  0.00    -0.228 OA
BRANCH  43  46
HETATM   46  C4  UNL     1      20.404  29.664  10.853  1.00  0.00     0.167 C 
BRANCH  46  47
HETATM   47  C3  UNL     1      20.830  30.703  11.798  1.00  0.00    -0.016 C 
HETATM   48  C2  UNL     1      21.957  30.744  12.460  1.00  0.00    -0.034 C 
HETATM   49  C1  UNL     1      22.256  31.862  13.386  1.00  0.00     0.036 C 
ENDBRANCH  46  47
ENDBRANCH  43  46
ENDBRANCH  42  43
ENDBRANCH  41  42
ENDBRANCH   1  41
TORSDOF 16
ENDMDL
MODEL 2
REMARK VINA RESULT: -6.468284790      0.914      1.105
REMARK  16 active torsions:
REMARK  status: ('A' for Active; 'I' for Inactive)
REMARK    1  A    between atoms: C3_3  and  C4_4 
REMARK    2  A    between atoms: C4_4  and  S1_5 
REMARK    3  A    between atoms: S1_5  and  C5_8 
REMARK    4  A    between atoms: C5_8  and  C6_9 
REMARK    5  A    between atoms: C6_9  and  C7_10 
REMARK    6  A    between atoms: C20_23  and  N1_24 
REMARK    7  A    between atoms: N1_24  and  C21_26 
REMARK    8  A    between atoms: C21_26  and  C22_27 
REMARK    9  A    between atoms: C22_27  and  N2_28 
REMARK   10  A    between atoms: C22_27  and  C23_32 
REMARK   11  A    between atoms: C22_27  and  C25_34 
REMARK   12  A    between atoms: N3_38  and  C28_39 
REMARK   13  A    between atoms: C28_39  and  C29_40 
REMARK   14  A    between atoms: C29_40  and  C30_41 
REMARK   15  A    between atoms: C30_41  and  C31_42 
REMARK   16  A    between atoms: C31_42  and  N4_43 
ROOT
HETATM    1  C7  UNL     1      18.892  25.461  10.335  1.00  0.00    -0.006 C 
HETATM    2  C8  UNL     1      18.872  24.214  11.239  1.00  0.00     0.005 C 
HETATM    3  C9  UNL     1      20.353  24.025  11.614  1.00  0.00     0.007 C 
HETATM    4  C10 UNL     1      20.888  24.362  10.276  1.00  0.00     0.016 C 
HETATM    5  C11 UNL     1      22.365  24.287  10.112  1.00  0.00     0.092 C 
HETATM    6  C12 UNL     1      23.181  25.226  10.851  1.00  0.00     0.035 C 
HETATM    7  C13 UNL     1      23.581  26.536  10.393  1.00  0.00    -0.034 C 
HETATM    8  C14 UNL     1      23.500  27.519  11.577  1.00  0.00     0.010 C 
HETATM    9  C15 UNL     1      24.703  28.428  11.480  1.00  0.00     0.005 C 
HETATM   10  C16 UNL     1      25.058  28.183  10.005  1.00  0.00    -0.013 C 
HETATM   11  C17 UNL     1      23.827  28.527   9.240  1.00  0.00     0.010 C 
HETATM   12  C18 UNL     1      23.091  27.162   9.170  1.00  0.00    -0.003 C 
HETATM   13  C19 UNL     1      21.646  27.465   9.043  1.00  0.00     0.046 C 
HETATM   14  C20 UNL     1      20.757  26.249   8.727  1.00  0.00     0.112 C 
HETATM   15  C27 UNL     1      21.769  25.336   8.034  1.00  0.00     0.248 C 
HETATM   16  O3  UNL     1      22.016  25.520   6.801  1.00  0.00    -0.271 OA
HETATM   17  N3  UNL     1      22.469  24.285   8.651  1.00  0.00    -0.345 N 
HETATM   18  C33 UNL     1      20.296  25.733  10.030  1.00  0.00     0.033 C 
HETATM   19  C34 UNL     1      25.097  26.657  10.096  1.00  0.00     0.014 C 
ENDROOT
BRANCH  14  20
HETATM   20  N1  UNL     1      19.859  26.511   7.694  1.00  0.00    -0.402 N 
ATOM     21  H1  UNL     1      20.095  27.314   7.113  1.00  0.00     0.154 HD
BRANCH  20  22
HETATM   22  C21 UNL     1      18.717  25.865   7.340  1.00  0.00     0.153 C 
BRANCH  22  23
HETATM   23  C22 UNL     1      18.559  25.914   5.797  1.00  0.00     0.138 C 
BRANCH  23  24
HETATM   24  N2  UNL     1      19.731  25.367   5.191  1.00  0.00    -0.069 N 
ATOM     25  H23 UNL     1      19.568  25.071   4.228  1.00  0.00     0.275 HD
ATOM     26  H22 UNL     1      20.439  26.077   5.005  1.00  0.00     0.275 HD
ATOM     27  H21 UNL     1      20.085  24.609   5.775  1.00  0.00     0.275 HD
ENDBRANCH  23  24
BRANCH  23  28
HETATM   28  C23 UNL     1      17.347  25.083   5.486  1.00  0.00     0.036 C 
HETATM   29  C24 UNL     1      17.504  23.685   6.073  1.00  0.00     0.007 C 
ENDBRANCH  23  28
BRANCH  23  30
HETATM   30  C25 UNL     1      18.363  27.305   5.312  1.00  0.00     0.036 C 
HETATM   31  C26 UNL     1      18.408  27.390   3.795  1.00  0.00     0.007 C 
ENDBRANCH  23  30
ENDBRANCH  22  23
ENDBRANCH  20  22
ENDBRANCH  14  20
BRANCH  17  32
HETATM   32  C28 UNL     1      23.194  23.274   7.916  1.00  0.00     0.126 C 
BRANCH  32  33
HETATM   33  C29 UNL     1      24.541  23.677   7.442  1.00  0.00     0.021 C 
BRANCH  33  34
HETATM   34  C30 UNL     1      24.629  23.252   5.970  1.00  0.00     0.021 C 
BRANCH  34  35
HETATM   35  C31 UNL     1      23.597  22.205   5.652  1.00  0.00     0.122 C 
BRANCH  35  36
HETATM   36  N4  UNL     1      22.908  22.622   4.446  1.00  0.00    -0.367 N 
HETATM   37  C32 UNL     1      21.629  22.702   4.399  1.00  0.00     0.196 C 
HETATM   38  N5  UNL     1      21.035  23.117   3.182  1.00  0.00    -0.067 NA
HETATM   39  N6  UNL     1      20.881  22.378   5.547  1.00  0.00    -0.067 NA
ATOM     40  H4  UNL     1      23.453  22.857   3.616  1.00  0.00     0.161 HD
ENDBRANCH  35  36
ENDBRANCH  34  35
ENDBRANCH  33  34
ENDBRANCH  32  33
ENDBRANCH  17  32
BRANCH   1  41
HETATM   41  C6  UNL     1      18.142  26.473  11.143  1.00  0.00     0.020 C 
BRANCH  41  42
HETATM   42  C5  UNL     1      18.939  27.414  11.961  1.00  0.00     0.141 C 
BRANCH  42  43
HETATM   43  S1  UNL     1      18.788  29.029  11.161  1.00  0.00     0.147 S 
HETATM   44  O1  UNL     1      18.119  29.968  12.119  1.00  0.00    -0.228 OA
HETATM   45  O2  UNL     1      18.042  28.889   9.872  1.00  0.00    -0.228 OA
BRANCH  43  46
HETATM   46  C4  UNL     1      20.412  29.652  10.828  1.00  0.00     0.167 C 
BRANCH  46  47
HETATM   47  C3  UNL     1      20.840  30.704  11.756  1.00  0.00    -0.016 C 
HETATM   48  C2  UNL     1      21.938  30.720  12.468  1.00  0.00    -0.034 C 
HETATM   49  C1  UNL     1      22.244  31.856  13.369  1.00  0.00     0.036 C 
ENDBRANCH  46  47
ENDBRANCH  43  46
ENDBRANCH  42  43
ENDBRANCH  41  42
ENDBRANCH   1  41
TORSDOF 16
ENDMDL
MODEL 3
REMARK VINA RESULT: -6.467140668      1.505      1.887
REMARK  16 active torsions:
REMARK  status: ('A' for Active; 'I' for Inactive)
REMARK    1  A    between atoms: C3_3  and  C4_4 
REMARK    2  A    between atoms: C4_4  and  S1_5 
REMARK    3  A    between atoms: S1_5  and  C5_8 
REMARK    4  A    between atoms: C5_8  and  C6_9 
REMARK    5  A    between atoms: C6_9  and  C7_10 
REMARK    6  A    between atoms: C20_23  and  N1_24 
REMARK    7  A    between atoms: N1_24  and  C21_26 
REMARK    8  A    between atoms: C21_26  and  C22_27 
REMARK    9  A    between atoms: C22_27  and  N2_28 
REMARK   10  A    between atoms: C22_27  and  C23_32 
REMARK   11  A    between atoms: C22_27  and  C25_34 
REMARK   12  A    between atoms: N3_38  and  C28_39 
REMARK   13  A    between atoms: C28_39  and  C29_40 
REMARK   14  A    between atoms: C29_40  and  C30_41 
REMARK   15  A    between atoms: C30_41  and  C31_42 
REMARK   16  A    between atoms: C31_42  and  N4_43 
ROOT
HETATM    1  C7  UNL     1      18.906  25.458  10.357  1.00  0.00    -0.006 C 
HETATM    2  C8  UNL     1      18.890  24.191  11.233  1.00  0.00     0.005 C 
HETATM    3  C9  UNL     1      20.372  23.992  11.595  1.00  0.00     0.007 C 
HETATM    4  C10 UNL     1      20.900  24.359  10.262  1.00  0.00     0.016 C 
HETATM    5  C11 UNL     1      22.376  24.287  10.087  1.00  0.00     0.092 C 
HETATM    6  C12 UNL     1      23.197  25.208  10.843  1.00  0.00     0.035 C 
HETATM    7  C13 UNL     1      23.596  26.527  10.412  1.00  0.00    -0.034 C 
HETATM    8  C14 UNL     1      23.523  27.483  11.619  1.00  0.00     0.010 C 
HETATM    9  C15 UNL     1      24.727  28.393  11.535  1.00  0.00     0.005 C 
HETATM   10  C16 UNL     1      25.072  28.181  10.053  1.00  0.00    -0.013 C 
HETATM   11  C17 UNL     1      23.837  28.544   9.303  1.00  0.00     0.010 C 
HETATM   12  C18 UNL     1      23.100  27.181   9.207  1.00  0.00    -0.003 C 
HETATM   13  C19 UNL     1      21.654  27.489   9.094  1.00  0.00     0.046 C 
HETATM   14  C20 UNL     1      20.762  26.281   8.756  1.00  0.00     0.112 C 
HETATM   15  C27 UNL     1      21.769  25.383   8.037  1.00  0.00     0.248 C 
HETATM   16  O3  UNL     1      22.009  25.594   6.807  1.00  0.00    -0.271 OA
HETATM   17  N3  UNL     1      22.471  24.318   8.626  1.00  0.00    -0.345 N 
HETATM   18  C33 UNL     1      20.309  25.736  10.050  1.00  0.00     0.033 C 
HETATM   19  C34 UNL     1      25.110  26.653  10.109  1.00  0.00     0.014 C 
ENDROOT
BRANCH  14  20
HETATM   20  N1  UNL     1      19.858  26.567   7.735  1.00  0.00    -0.402 N 
ATOM     21  H1  UNL     1      20.108  27.365   7.152  1.00  0.00     0.154 HD
BRANCH  20  22
HETATM   22  C21 UNL     1      18.697  25.950   7.393  1.00  0.00     0.153 C 
BRANCH  22  23
HETATM   23  C22 UNL     1      18.547  25.958   5.849  1.00  0.00     0.138 C 
BRANCH  23  24
HETATM   24  N2  UNL     1      19.723  25.397   5.264  1.00  0.00    -0.069 N 
ATOM     25  H23 UNL     1      20.395  26.110   4.981  1.00  0.00     0.275 HD
ATOM     26  H22 UNL     1      20.306  24.916   5.950  1.00  0.00     0.275 HD
ATOM     27  H21 UNL     1      19.453  24.789   4.491  1.00  0.00     0.275 HD
ENDBRANCH  23  24
BRANCH  23  28
HETATM   28  C23 UNL     1      17.338  25.119   5.553  1.00  0.00     0.036 C 
HETATM   29  C24 UNL     1      17.498  23.733   6.168  1.00  0.00     0.007 C 
ENDBRANCH  23  28
BRANCH  23  30
HETATM   30  C25 UNL     1      18.353  27.336   5.327  1.00  0.00     0.036 C 
HETATM   31  C26 UNL     1      18.560  27.409   3.823  1.00  0.00     0.007 C 
ENDBRANCH  23  30
ENDBRANCH  22  23
ENDBRANCH  20  22
ENDBRANCH  14  20
BRANCH  17  32
HETATM   32  C28 UNL     1      23.191  23.323   7.864  1.00  0.00     0.126 C 
BRANCH  32  33
HETATM   33  C29 UNL     1      24.631  23.608   7.647  1.00  0.00     0.021 C 
BRANCH  33  34
HETATM   34  C30 UNL     1      24.834  23.690   6.128  1.00  0.00     0.021 C 
BRANCH  34  35
HETATM   35  C31 UNL     1      26.234  23.290   5.752  1.00  0.00     0.122 C 
BRANCH  35  36
HETATM   36  N4  UNL     1      26.641  22.227   6.651  1.00  0.00    -0.367 N 
HETATM   37  C32 UNL     1      27.142  21.133   6.209  1.00  0.00     0.196 C 
HETATM   38  N5  UNL     1      27.513  20.145   7.154  1.00  0.00    -0.067 NA
HETATM   39  N6  UNL     1      27.299  20.963   4.821  1.00  0.00    -0.067 NA
ATOM     40  H4  UNL     1      26.527  22.353   7.657  1.00  0.00     0.161 HD
ENDBRANCH  35  36
ENDBRANCH  34  35
ENDBRANCH  33  34
ENDBRANCH  32  33
ENDBRANCH  17  32
BRANCH   1  41
HETATM   41  C6  UNL     1      18.161  26.452  11.192  1.00  0.00     0.020 C 
BRANCH  41  42
HETATM   42  C5  UNL     1      18.965  27.405  11.990  1.00  0.00     0.141 C 
BRANCH  42  43
HETATM   43  S1  UNL     1      18.849  28.997  11.140  1.00  0.00     0.147 S 
HETATM   44  O1  UNL     1      18.083  29.943  12.015  1.00  0.00    -0.228 OA
HETATM   45  O2  UNL     1      18.217  28.811   9.797  1.00  0.00    -0.228 OA
BRANCH  43  46
HETATM   46  C4  UNL     1      20.482  29.649  10.929  1.00  0.00     0.167 C 
BRANCH  46  47
HETATM   47  C3  UNL     1      20.856  30.641  11.943  1.00  0.00    -0.016 C 
HETATM   48  C2  UNL     1      22.047  30.832  12.449  1.00  0.00    -0.034 C 
HETATM   49  C1  UNL     1      22.281  31.877  13.472  1.00  0.00     0.036 C 
ENDBRANCH  46  47
ENDBRANCH  43  46
ENDBRANCH  42  43
ENDBRANCH  41  42
ENDBRANCH   1  41
TORSDOF 16
ENDMDL
MODEL 4
REMARK VINA RESULT: -6.258432836      1.266      1.380
REMARK  16 active torsions:
REMARK  status: ('A' for Active; 'I' for Inactive)
REMARK    1  A    between atoms: C3_3  and  C4_4 
REMARK    2  A    between atoms: C4_4  and  S1_5 
REMARK    3  A    between atoms: S1_5  and  C5_8 
REMARK    4  A    between atoms: C5_8  and  C6_9 
REMARK    5  A    between atoms: C6_9  and  C7_10 
REMARK    6  A    between atoms: C20_23  and  N1_24 
REMARK    7  A    between atoms: N1_24  and  C21_26 
REMARK    8  A    between atoms: C21_26  and  C22_27 
REMARK    9  A    between atoms: C22_27  and  N2_28 
REMARK   10  A    between atoms: C22_27  and  C23_32 
REMARK   11  A    between atoms: C22_27  and  C25_34 
REMARK   12  A    between atoms: N3_38  and  C28_39 
REMARK   13  A    between atoms: C28_39  and  C29_40 
REMARK   14  A    between atoms: C29_40  and  C30_41 
REMARK   15  A    between atoms: C30_41  and  C31_42 
REMARK   16  A    between atoms: C31_42  and  N4_43 
ROOT
HETATM    1  C7  UNL     1      18.870  25.324  10.366  1.00  0.00    -0.006 C 
HETATM    2  C8  UNL     1      18.911  24.077  11.269  1.00  0.00     0.005 C 
HETATM    3  C9  UNL     1      20.402  23.946  11.625  1.00  0.00     0.007 C 
HETATM    4  C10 UNL     1      20.907  24.305  10.281  1.00  0.00     0.016 C 
HETATM    5  C11 UNL     1      22.383  24.289  10.097  1.00  0.00     0.092 C 
HETATM    6  C12 UNL     1      23.171  25.258  10.828  1.00  0.00     0.035 C 
HETATM    7  C13 UNL     1      23.514  26.583  10.365  1.00  0.00    -0.034 C 
HETATM    8  C14 UNL     1      23.409  27.562  11.552  1.00  0.00     0.010 C 
HETATM    9  C15 UNL     1      24.574  28.517  11.440  1.00  0.00     0.005 C 
HETATM   10  C16 UNL     1      24.919  28.287   9.961  1.00  0.00    -0.013 C 
HETATM   11  C17 UNL     1      23.666  28.583   9.212  1.00  0.00     0.010 C 
HETATM   12  C18 UNL     1      22.984  27.190   9.150  1.00  0.00    -0.003 C 
HETATM   13  C19 UNL     1      21.526  27.436   9.041  1.00  0.00     0.046 C 
HETATM   14  C20 UNL     1      20.682  26.186   8.735  1.00  0.00     0.112 C 
HETATM   15  C27 UNL     1      21.721  25.314   8.029  1.00  0.00     0.248 C 
HETATM   16  O3  UNL     1      21.944  25.508   6.792  1.00  0.00    -0.271 OA
HETATM   17  N3  UNL     1      22.469  24.292   8.636  1.00  0.00    -0.345 N 
HETATM   18  C33 UNL     1      20.259  25.652  10.044  1.00  0.00     0.033 C 
HETATM   19  C34 UNL     1      25.020  26.763  10.049  1.00  0.00     0.014 C 
ENDROOT
BRANCH  14  20
HETATM   20  N1  UNL     1      19.761  26.413   7.714  1.00  0.00    -0.402 N 
ATOM     21  H1  UNL     1      19.867  27.305   7.231  1.00  0.00     0.154 HD
BRANCH  20  22
HETATM   22  C21 UNL     1      18.745  25.634   7.261  1.00  0.00     0.153 C 
BRANCH  22  23
HETATM   23  C22 UNL     1      18.580  25.845   5.732  1.00  0.00     0.138 C 
BRANCH  23  24
HETATM   24  N2  UNL     1      19.745  25.356   5.066  1.00  0.00    -0.069 N 
ATOM     25  H23 UNL     1      19.841  25.735   4.124  1.00  0.00     0.275 HD
ATOM     26  H22 UNL     1      20.606  25.735   5.461  1.00  0.00     0.275 HD
ATOM     27  H21 UNL     1      19.730  24.336   5.075  1.00  0.00     0.275 HD
ENDBRANCH  23  24
BRANCH  23  28
HETATM   28  C23 UNL     1      17.361  25.061   5.342  1.00  0.00     0.036 C 
HETATM   29  C24 UNL     1      17.456  23.639   5.884  1.00  0.00     0.007 C 
ENDBRANCH  23  28
BRANCH  23  30
HETATM   30  C25 UNL     1      18.392  27.281   5.397  1.00  0.00     0.036 C 
HETATM   31  C26 UNL     1      18.405  27.521   3.896  1.00  0.00     0.007 C 
ENDBRANCH  23  30
ENDBRANCH  22  23
ENDBRANCH  20  22
ENDBRANCH  14  20
BRANCH  17  32
HETATM   32  C28 UNL     1      23.224  23.310   7.890  1.00  0.00     0.126 C 
BRANCH  32  33
HETATM   33  C29 UNL     1      24.586  23.733   7.483  1.00  0.00     0.021 C 
BRANCH  33  34
HETATM   34  C30 UNL     1      24.813  23.169   6.073  1.00  0.00     0.021 C 
BRANCH  34  35
HETATM   35  C31 UNL     1      25.187  24.265   5.113  1.00  0.00     0.122 C 
BRANCH  35  36
HETATM   36  N4  UNL     1      23.973  24.979   4.769  1.00  0.00    -0.367 N 
HETATM   37  C32 UNL     1      23.513  24.979   3.573  1.00  0.00     0.196 C 
HETATM   38  N5  UNL     1      22.321  25.702   3.321  1.00  0.00    -0.067 NA
HETATM   39  N6  UNL     1      24.204  24.268   2.574  1.00  0.00    -0.067 NA
ATOM     40  H4  UNL     1      23.473  25.493   5.495  1.00  0.00     0.161 HD
ENDBRANCH  35  36
ENDBRANCH  34  35
ENDBRANCH  33  34
ENDBRANCH  32  33
ENDBRANCH  17  32
BRANCH   1  41
HETATM   41  C6  UNL     1      18.091  26.305  11.185  1.00  0.00     0.020 C 
BRANCH  41  42
HETATM   42  C5  UNL     1      18.223  27.737  10.835  1.00  0.00     0.141 C 
BRANCH  42  43
HETATM   43  S1  UNL     1      18.937  28.547  12.286  1.00  0.00     0.147 S 
HETATM   44  O1  UNL     1      20.429  28.408  12.216  1.00  0.00    -0.228 OA
HETATM   45  O2  UNL     1      18.360  27.954  13.533  1.00  0.00    -0.228 OA
BRANCH  43  46
HETATM   46  C4  UNL     1      18.545  30.272  12.226  1.00  0.00     0.167 C 
BRANCH  46  47
HETATM   47  C3  UNL     1      18.173  30.837  13.528  1.00  0.00    -0.016 C 
HETATM   48  C2  UNL     1      18.195  32.100  13.868  1.00  0.00    -0.034 C 
HETATM   49  C1  UNL     1      17.789  32.530  15.226  1.00  0.00     0.036 C 
ENDBRANCH  46  47
ENDBRANCH  43  46
ENDBRANCH  42  43
ENDBRANCH  41  42
ENDBRANCH   1  41
TORSDOF 16
ENDMDL
MODEL 5
REMARK VINA RESULT: -6.132124118      3.058      6.901
REMARK  16 active torsions:
REMARK  status: ('A' for Active; 'I' for Inactive)
REMARK    1  A    between atoms: C3_3  and  C4_4 
REMARK    2  A    between atoms: C4_4  and  S1_5 
REMARK    3  A    between atoms: S1_5  and  C5_8 
REMARK    4  A    between atoms: C5_8  and  C6_9 
REMARK    5  A    between atoms: C6_9  and  C7_10 
REMARK    6  A    between atoms: C20_23  and  N1_24 
REMARK    7  A    between atoms: N1_24  and  C21_26 
REMARK    8  A    between atoms: C21_26  and  C22_27 
REMARK    9  A    between atoms: C22_27  and  N2_28 
REMARK   10  A    between atoms: C22_27  and  C23_32 
REMARK   11  A    between atoms: C22_27  and  C25_34 
REMARK   12  A    between atoms: N3_38  and  C28_39 
REMARK   13  A    between atoms: C28_39  and  C29_40 
REMARK   14  A    between atoms: C29_40  and  C30_41 
REMARK   15  A    between atoms: C30_41  and  C31_42 
REMARK   16  A    between atoms: C31_42  and  N4_43 
ROOT
HETATM    1  C7  UNL     1      21.819  24.812   7.989  1.00  0.00    -0.006 C 
HETATM    2  C8  UNL     1      22.936  23.833   7.582  1.00  0.00     0.005 C 
HETATM    3  C9  UNL     1      22.610  23.514   6.112  1.00  0.00     0.007 C 
HETATM    4  C10 UNL     1      21.144  23.438   6.300  1.00  0.00     0.016 C 
HETATM    5  C11 UNL     1      20.335  23.101   5.098  1.00  0.00     0.092 C 
HETATM    6  C12 UNL     1      20.307  24.052   4.007  1.00  0.00     0.035 C 
HETATM    7  C13 UNL     1      19.366  25.138   3.863  1.00  0.00    -0.034 C 
HETATM    8  C14 UNL     1      20.119  26.375   3.333  1.00  0.00     0.010 C 
HETATM    9  C15 UNL     1      19.217  27.039   2.318  1.00  0.00     0.005 C 
HETATM   10  C16 UNL     1      17.885  26.400   2.741  1.00  0.00    -0.013 C 
HETATM   11  C17 UNL     1      17.725  26.738   4.183  1.00  0.00     0.010 C 
HETATM   12  C18 UNL     1      18.396  25.525   4.881  1.00  0.00    -0.003 C 
HETATM   13  C19 UNL     1      18.881  26.007   6.196  1.00  0.00     0.046 C 
HETATM   14  C20 UNL     1      19.376  24.901   7.146  1.00  0.00     0.112 C 
HETATM   15  C27 UNL     1      18.579  23.706   6.622  1.00  0.00     0.248 C 
HETATM   16  O3  UNL     1      17.379  23.552   7.013  1.00  0.00    -0.271 OA
HETATM   17  N3  UNL     1      19.064  22.737   5.728  1.00  0.00    -0.345 N 
HETATM   18  C33 UNL     1      20.829  24.786   6.913  1.00  0.00     0.033 C 
HETATM   19  C34 UNL     1      18.373  24.951   2.689  1.00  0.00     0.014 C 
ENDROOT
BRANCH  14  20
HETATM   20  N1  UNL     1      18.859  25.045   8.431  1.00  0.00    -0.402 N 
ATOM     21  H1  UNL     1      18.684  24.170   8.924  1.00  0.00     0.154 HD
BRANCH  20  22
HETATM   22  C21 UNL     1      18.551  26.168   9.133  1.00  0.00     0.153 C 
BRANCH  22  23
HETATM   23  C22 UNL     1      18.579  25.847  10.651  1.00  0.00     0.138 C 
BRANCH  23  24
HETATM   24  N2  UNL     1      19.811  26.312  11.203  1.00  0.00    -0.069 N 
ATOM     25  H23 UNL     1      19.673  26.864  12.049  1.00  0.00     0.275 HD
ATOM     26  H22 UNL     1      20.363  25.558  11.613  1.00  0.00     0.275 HD
ATOM     27  H21 UNL     1      20.325  26.823  10.485  1.00  0.00     0.275 HD
ENDBRANCH  23  24
BRANCH  23  28
HETATM   28  C23 UNL     1      17.408  26.576  11.242  1.00  0.00     0.036 C 
HETATM   29  C24 UNL     1      16.948  27.683  10.300  1.00  0.00     0.007 C 
ENDBRANCH  23  28
BRANCH  23  30
HETATM   30  C25 UNL     1      18.452  24.388  10.902  1.00  0.00     0.036 C 
HETATM   31  C26 UNL     1      19.663  23.828  11.629  1.00  0.00     0.007 C 
ENDBRANCH  23  30
ENDBRANCH  22  23
ENDBRANCH  20  22
ENDBRANCH  14  20
BRANCH  17  32
HETATM   32  C28 UNL     1      18.393  21.482   5.476  1.00  0.00     0.126 C 
BRANCH  32  33
HETATM   33  C29 UNL     1      17.720  21.374   4.159  1.00  0.00     0.021 C 
BRANCH  33  34
HETATM   34  C30 UNL     1      16.244  21.723   4.395  1.00  0.00     0.021 C 
BRANCH  34  35
HETATM   35  C31 UNL     1      15.615  20.762   5.366  1.00  0.00     0.122 C 
BRANCH  35  36
HETATM   36  N4  UNL     1      14.432  21.400   5.910  1.00  0.00    -0.367 N 
HETATM   37  C32 UNL     1      14.197  21.411   7.170  1.00  0.00     0.196 C 
HETATM   38  N5  UNL     1      13.018  22.056   7.619  1.00  0.00    -0.067 NA
HETATM   39  N6  UNL     1      15.110  20.788   8.042  1.00  0.00    -0.067 NA
ATOM     40  H4  UNL     1      13.772  21.852   5.276  1.00  0.00     0.161 HD
ENDBRANCH  35  36
ENDBRANCH  34  35
ENDBRANCH  33  34
ENDBRANCH  32  33
ENDBRANCH  17  32
BRANCH   1  41
HETATM   41  C6  UNL     1      22.562  26.089   8.225  1.00  0.00     0.020 C 
BRANCH  41  42
HETATM   42  C5  UNL     1      23.981  25.984   8.632  1.00  0.00     0.141 C 
BRANCH  42  43
HETATM   43  S1  UNL     1      24.003  26.159  10.432  1.00  0.00     0.147 S 
HETATM   44  O1  UNL     1      24.820  25.039  11.003  1.00  0.00    -0.228 OA
HETATM   45  O2  UNL     1      22.602  26.180  10.958  1.00  0.00    -0.228 OA
BRANCH  43  46
HETATM   46  C4  UNL     1      24.802  27.684  10.846  1.00  0.00     0.167 C 
BRANCH  46  47
HETATM   47  C3  UNL     1      23.891  28.696  11.393  1.00  0.00    -0.016 C 
HETATM   48  C2  UNL     1      23.757  29.029  12.651  1.00  0.00    -0.034 C 
HETATM   49  C1  UNL     1      22.792  30.076  13.062  1.00  0.00     0.036 C 
ENDBRANCH  46  47
ENDBRANCH  43  46
ENDBRANCH  42  43
ENDBRANCH  41  42
ENDBRANCH   1  41
TORSDOF 16
ENDMDL
