MODEL 1
REMARK VINA RESULT: -9.511911294      0.000      0.000
REMARK  12 active torsions:
REMARK  status: ('A' for Active; 'I' for Inactive)
REMARK    1  A    between atoms: C2_2  and  C3_3 
REMARK    2  A    between atoms: C4_4  and  C5_5 
REMARK    3  A    between atoms: C13_19  and  C14_20 
REMARK    4  A    between atoms: C14_20  and  C15_21 
REMARK    5  A    between atoms: C19_25  and  C20_26 
REMARK    6  A    between atoms: C22_32  and  O3_33 
REMARK    7  A    between atoms: N5_35  and  C23_36 
REMARK    8  A    between atoms: C23_36  and  C24_37 
REMARK    9  A    between atoms: C24_37  and  C25_38 
REMARK   10  A    between atoms: C25_38  and  C26_39 
REMARK   11  A    between atoms: C26_39  and  C27_40 
REMARK   12  A    between atoms: C32_45  and  O4_46 
ROOT
HETATM    1  C5  UNL     1      -4.946  17.076  23.718  1.00  0.00     0.050 C 
HETATM    2  C6  UNL     1      -5.515  16.432  22.499  1.00  0.00     0.084 C 
HETATM    3  C7  UNL     1      -4.752  17.034  21.291  1.00  0.00     0.020 C 
HETATM    4  C8  UNL     1      -6.949  16.771  22.310  1.00  0.00     0.223 C 
HETATM    5  O1  UNL     1      -7.126  18.044  22.475  1.00  0.00    -0.273 OA
HETATM    6  N1  UNL     1      -8.045  15.999  22.003  1.00  0.00    -0.343 N 
ATOM      7  H1  UNL     1      -8.418  16.173  21.070  1.00  0.00     0.163 HD
HETATM    8  C9  UNL     1      -8.777  14.989  22.739  1.00  0.00     0.106 C 
HETATM    9  C10 UNL     1      -7.989  13.837  23.229  1.00  0.00     0.048 C 
HETATM   10  C11 UNL     1      -9.711  14.261  21.699  1.00  0.00     0.048 C 
HETATM   11  C12 UNL     1      -9.740  15.593  23.687  1.00  0.00     0.246 C 
HETATM   12  O2  UNL     1     -10.845  15.972  23.121  1.00  0.00    -0.271 OA
HETATM   13  N2  UNL     1      -9.631  15.811  25.064  1.00  0.00    -0.347 N 
ATOM     14  H2  UNL     1      -9.871  16.761  25.346  1.00  0.00     0.163 HD
HETATM   15  C13 UNL     1      -9.256  14.976  26.144  1.00  0.00     0.163 C 
HETATM   16  C22 UNL     1      -7.928  15.133  26.730  1.00  0.00     0.137 C 
HETATM   17  N5  UNL     1      -7.260  16.237  27.242  1.00  0.00    -0.363 N 
HETATM   18  C29 UNL     1      -7.186  17.581  26.780  1.00  0.00     0.131 C 
HETATM   19  C30 UNL     1      -6.068  17.886  25.806  1.00  0.00     0.029 C 
HETATM   20  C31 UNL     1      -4.852  18.450  26.517  1.00  0.00     0.014 C 
HETATM   21  C32 UNL     1      -5.635  16.714  25.015  1.00  0.00     0.132 C 
ENDROOT
BRANCH  15  22
HETATM   22  C14 UNL     1     -10.329  15.082  27.256  1.00  0.00     0.072 C 
BRANCH  22  23
HETATM   23  C15 UNL     1     -11.078  13.813  27.415  1.00  0.00    -0.055 A 
HETATM   24  C16 UNL     1     -11.125  12.911  26.343  1.00  0.00     0.007 A 
HETATM   25  C17 UNL     1     -11.801  11.715  26.450  1.00  0.00     0.002 A 
HETATM   26  C18 UNL     1     -12.448  11.374  27.613  1.00  0.00     0.015 A 
HETATM   27  C19 UNL     1     -12.410  12.256  28.676  1.00  0.00     0.005 A 
HETATM   28  C21 UNL     1     -11.727  13.462  28.567  1.00  0.00     0.022 A 
BRANCH  27  29
HETATM   29  C20 UNL     1     -13.099  11.882  29.895  1.00  0.00     0.120 C 
HETATM   30  N3  UNL     1     -12.438  11.323  30.838  1.00  0.00    -0.387 N 
ATOM     31  H32 UNL     1     -11.439  11.148  30.723  1.00  0.00     0.157 HD
ATOM     32  H31 UNL     1     -12.923  11.060  31.697  1.00  0.00     0.157 HD
HETATM   33  N4  UNL     1     -14.477  12.124  30.055  1.00  0.00    -0.082 NA
ENDBRANCH  27  29
ENDBRANCH  22  23
ENDBRANCH  15  22
BRANCH  16  34
HETATM   34  O3  UNL     1      -7.225  14.039  26.792  1.00  0.00    -0.348 OA
ATOM     35  H3  UNL     1      -7.426  13.478  27.532  1.00  0.00     0.219 HD
ENDBRANCH  16  34
BRANCH  17  36
HETATM   36  C23 UNL     1      -6.486  15.960  28.485  1.00  0.00     0.124 C 
BRANCH  36  37
HETATM   37  C24 UNL     1      -7.401  16.216  29.631  1.00  0.00     0.020 C 
BRANCH  37  38
HETATM   38  C25 UNL     1      -7.798  14.908  30.294  1.00  0.00     0.002 C 
BRANCH  38  39
HETATM   39  C26 UNL     1      -7.786  15.060  31.790  1.00  0.00    -0.000 C 
BRANCH  39  40
HETATM   40  C27 UNL     1      -7.829  13.713  32.477  1.00  0.00    -0.005 C 
HETATM   41  C28 UNL     1      -8.850  13.707  33.596  1.00  0.00     0.005 C 
ENDBRANCH  39  40
ENDBRANCH  38  39
ENDBRANCH  37  38
ENDBRANCH  36  37
ENDBRANCH  17  36
BRANCH  21  42
HETATM   42  O4  UNL     1      -4.697  16.001  25.810  1.00  0.00    -0.394 OA
ATOM     43  H4  UNL     1      -4.573  15.150  25.407  1.00  0.00     0.210 HD
ENDBRANCH  21  42
BRANCH   1  44
HETATM   44  C4  UNL     1      -3.471  16.916  23.872  1.00  0.00    -0.019 C 
HETATM   45  C3  UNL     1      -2.606  17.902  23.810  1.00  0.00    -0.004 C 
BRANCH  45  46
HETATM   46  C2  UNL     1      -1.179  17.645  23.976  1.00  0.00    -0.011 C 
HETATM   47  C1  UNL     1      -0.531  16.708  23.315  1.00  0.00     0.011 C 
ENDBRANCH  45  46
ENDBRANCH   1  44
TORSDOF 12
ENDMDL
MODEL 2
REMARK VINA RESULT: -9.453760337      2.670      9.777
REMARK  12 active torsions:
REMARK  status: ('A' for Active; 'I' for Inactive)
REMARK    1  A    between atoms: C2_2  and  C3_3 
REMARK    2  A    between atoms: C4_4  and  C5_5 
REMARK    3  A    between atoms: C13_19  and  C14_20 
REMARK    4  A    between atoms: C14_20  and  C15_21 
REMARK    5  A    between atoms: C19_25  and  C20_26 
REMARK    6  A    between atoms: C22_32  and  O3_33 
REMARK    7  A    between atoms: N5_35  and  C23_36 
REMARK    8  A    between atoms: C23_36  and  C24_37 
REMARK    9  A    between atoms: C24_37  and  C25_38 
REMARK   10  A    between atoms: C25_38  and  C26_39 
REMARK   11  A    between atoms: C26_39  and  C27_40 
REMARK   12  A    between atoms: C32_45  and  O4_46 
ROOT
HETATM    1  C5  UNL     1     -12.264  12.901  30.396  1.00  0.00     0.050 C 
HETATM    2  C6  UNL     1     -11.430  13.055  31.622  1.00  0.00     0.084 C 
HETATM    3  C7  UNL     1     -12.346  12.703  32.822  1.00  0.00     0.020 C 
HETATM    4  C8  UNL     1     -10.988  14.460  31.820  1.00  0.00     0.223 C 
HETATM    5  O1  UNL     1     -11.990  15.264  31.650  1.00  0.00    -0.273 OA
HETATM    6  N1  UNL     1      -9.767  15.005  32.139  1.00  0.00    -0.343 N 
ATOM      7  H1  UNL     1      -9.733  15.411  33.074  1.00  0.00     0.163 HD
HETATM    8  C9  UNL     1      -8.519  15.120  31.413  1.00  0.00     0.106 C 
HETATM    9  C10 UNL     1      -7.929  13.855  30.923  1.00  0.00     0.048 C 
HETATM   10  C11 UNL     1      -7.424  15.545  32.463  1.00  0.00     0.048 C 
HETATM   11  C12 UNL     1      -8.538  16.260  30.470  1.00  0.00     0.246 C 
HETATM   12  O2  UNL     1      -8.302  17.401  31.042  1.00  0.00    -0.271 OA
HETATM   13  N2  UNL     1      -8.769  16.284  29.091  1.00  0.00    -0.347 N 
ATOM     14  H2  UNL     1      -9.461  16.977  28.806  1.00  0.00     0.163 HD
HETATM   15  C13 UNL     1      -8.235  15.538  28.012  1.00  0.00     0.163 C 
HETATM   16  C22 UNL     1      -9.046  14.480  27.416  1.00  0.00     0.137 C 
HETATM   17  N5  UNL     1     -10.332  14.473  26.893  1.00  0.00    -0.363 N 
HETATM   18  C29 UNL     1     -11.528  15.096  27.348  1.00  0.00     0.131 C 
HETATM   19  C30 UNL     1     -12.370  14.288  28.313  1.00  0.00     0.029 C 
HETATM   20  C31 UNL     1     -13.470  13.535  27.590  1.00  0.00     0.014 C 
HETATM   21  C32 UNL     1     -11.591  13.313  29.105  1.00  0.00     0.132 C 
ENDROOT
BRANCH  15  22
HETATM   22  C14 UNL     1      -7.769  16.519  26.907  1.00  0.00     0.072 C 
BRANCH  22  23
HETATM   23  C15 UNL     1      -6.301  16.458  26.708  1.00  0.00    -0.055 A 
HETATM   24  C16 UNL     1      -5.496  15.939  27.730  1.00  0.00     0.007 A 
HETATM   25  C17 UNL     1      -4.128  15.853  27.583  1.00  0.00     0.002 A 
HETATM   26  C18 UNL     1      -3.517  16.275  26.427  1.00  0.00     0.015 A 
HETATM   27  C19 UNL     1      -4.301  16.789  25.412  1.00  0.00     0.005 A 
HETATM   28  C21 UNL     1      -5.680  16.874  25.562  1.00  0.00     0.022 A 
BRANCH  27  29
HETATM   29  C20 UNL     1      -3.641  17.231  24.200  1.00  0.00     0.120 C 
HETATM   30  N3  UNL     1      -3.428  16.385  23.262  1.00  0.00    -0.387 N 
ATOM     31  H32 UNL     1      -3.724  15.416  23.377  1.00  0.00     0.157 HD
ATOM     32  H31 UNL     1      -2.963  16.697  22.409  1.00  0.00     0.157 HD
HETATM   33  N4  UNL     1      -3.233  18.569  24.041  1.00  0.00    -0.082 NA
ENDBRANCH  27  29
ENDBRANCH  22  23
ENDBRANCH  15  22
BRANCH  16  34
HETATM   34  O3  UNL     1      -8.465  13.316  27.353  1.00  0.00    -0.348 OA
ATOM     35  H3  UNL     1      -7.733  13.268  26.749  1.00  0.00     0.219 HD
ENDBRANCH  16  34
BRANCH  17  36
HETATM   36  C23 UNL     1     -10.481  13.672  25.646  1.00  0.00     0.124 C 
BRANCH  36  37
HETATM   37  C24 UNL     1     -10.332  14.616  24.504  1.00  0.00     0.020 C 
BRANCH  37  38
HETATM   38  C25 UNL     1      -8.934  14.519  23.916  1.00  0.00     0.002 C 
BRANCH  38  39
HETATM   39  C26 UNL     1      -9.008  14.145  22.461  1.00  0.00    -0.000 C 
BRANCH  39  40
HETATM   40  C27 UNL     1     -10.010  15.006  21.725  1.00  0.00    -0.005 C 
HETATM   41  C28 UNL     1      -9.370  15.679  20.528  1.00  0.00     0.005 C 
ENDBRANCH  39  40
ENDBRANCH  38  39
ENDBRANCH  37  38
ENDBRANCH  36  37
ENDBRANCH  17  36
BRANCH  21  42
HETATM   42  O4  UNL     1     -11.452  12.145  28.307  1.00  0.00    -0.394 OA
ATOM     43  H4  UNL     1     -12.325  11.815  28.133  1.00  0.00     0.210 HD
ENDBRANCH  21  42
BRANCH   1  44
HETATM   44  C4  UNL     1     -12.881  11.552  30.232  1.00  0.00    -0.019 C 
HETATM   45  C3  UNL     1     -14.158  11.295  30.393  1.00  0.00    -0.004 C 
BRANCH  45  46
HETATM   46  C2  UNL     1     -14.668   9.939  30.207  1.00  0.00    -0.011 C 
HETATM   47  C1  UNL     1     -14.315   8.923  30.967  1.00  0.00     0.011 C 
ENDBRANCH  45  46
ENDBRANCH   1  44
TORSDOF 12
ENDMDL
MODEL 3
REMARK VINA RESULT: -9.414557376      1.905      5.320
REMARK  12 active torsions:
REMARK  status: ('A' for Active; 'I' for Inactive)
REMARK    1  A    between atoms: C2_2  and  C3_3 
REMARK    2  A    between atoms: C4_4  and  C5_5 
REMARK    3  A    between atoms: C13_19  and  C14_20 
REMARK    4  A    between atoms: C14_20  and  C15_21 
REMARK    5  A    between atoms: C19_25  and  C20_26 
REMARK    6  A    between atoms: C22_32  and  O3_33 
REMARK    7  A    between atoms: N5_35  and  C23_36 
REMARK    8  A    between atoms: C23_36  and  C24_37 
REMARK    9  A    between atoms: C24_37  and  C25_38 
REMARK   10  A    between atoms: C25_38  and  C26_39 
REMARK   11  A    between atoms: C26_39  and  C27_40 
REMARK   12  A    between atoms: C32_45  and  O4_46 
ROOT
HETATM    1  C5  UNL     1      -8.363  15.358  23.097  1.00  0.00     0.050 C 
HETATM    2  C6  UNL     1      -9.640  14.617  23.302  1.00  0.00     0.084 C 
HETATM    3  C7  UNL     1     -10.354  14.586  21.927  1.00  0.00     0.020 C 
HETATM    4  C8  UNL     1     -10.549  15.327  24.239  1.00  0.00     0.223 C 
HETATM    5  O1  UNL     1     -10.608  16.584  23.927  1.00  0.00    -0.273 OA
HETATM    6  N1  UNL     1     -11.293  14.890  25.310  1.00  0.00    -0.343 N 
ATOM      7  H1  UNL     1     -12.299  14.908  25.142  1.00  0.00     0.163 HD
HETATM    8  C9  UNL     1     -10.935  14.410  26.628  1.00  0.00     0.106 C 
HETATM    9  C10 UNL     1     -10.017  13.251  26.676  1.00  0.00     0.048 C 
HETATM   10  C11 UNL     1     -12.233  13.758  27.239  1.00  0.00     0.048 C 
HETATM   11  C12 UNL     1     -10.652  15.526  27.558  1.00  0.00     0.246 C 
HETATM   12  O2  UNL     1     -11.726  16.064  28.053  1.00  0.00    -0.271 OA
HETATM   13  N2  UNL     1      -9.431  16.070  27.967  1.00  0.00    -0.347 N 
ATOM     14  H2  UNL     1      -9.391  17.087  27.888  1.00  0.00     0.163 HD
HETATM   15  C13 UNL     1      -8.239  15.494  28.467  1.00  0.00     0.163 C 
HETATM   16  C22 UNL     1      -7.084  15.377  27.580  1.00  0.00     0.137 C 
HETATM   17  N5  UNL     1      -6.407  16.308  26.805  1.00  0.00    -0.363 N 
HETATM   18  C29 UNL     1      -6.887  17.376  25.996  1.00  0.00     0.131 C 
HETATM   19  C30 UNL     1      -7.196  17.028  24.555  1.00  0.00     0.029 C 
HETATM   20  C31 UNL     1      -6.025  17.350  23.645  1.00  0.00     0.014 C 
HETATM   21  C32 UNL     1      -7.556  15.609  24.352  1.00  0.00     0.132 C 
ENDROOT
BRANCH  15  22
HETATM   22  C14 UNL     1      -7.826  16.238  29.761  1.00  0.00     0.072 C 
BRANCH  22  23
HETATM   23  C15 UNL     1      -8.315  15.540  30.973  1.00  0.00    -0.055 A 
HETATM   24  C16 UNL     1      -7.384  15.008  31.875  1.00  0.00     0.007 A 
HETATM   25  C17 UNL     1      -7.794  14.360  33.020  1.00  0.00     0.002 A 
HETATM   26  C18 UNL     1      -9.130  14.219  33.309  1.00  0.00     0.015 A 
HETATM   27  C19 UNL     1     -10.058  14.738  32.426  1.00  0.00     0.005 A 
HETATM   28  C21 UNL     1      -9.642  15.392  31.272  1.00  0.00     0.022 A 
BRANCH  27  29
HETATM   29  C20 UNL     1     -11.462  14.579  32.744  1.00  0.00     0.120 C 
HETATM   30  N3  UNL     1     -12.333  14.740  31.818  1.00  0.00    -0.387 N 
ATOM     31  H32 UNL     1     -12.030  14.977  30.873  1.00  0.00     0.157 HD
ATOM     32  H31 UNL     1     -13.322  14.629  32.042  1.00  0.00     0.157 HD
HETATM   33  N4  UNL     1     -11.881  14.252  34.048  1.00  0.00    -0.082 NA
ENDBRANCH  27  29
ENDBRANCH  22  23
ENDBRANCH  15  22
BRANCH  16  34
HETATM   34  O3  UNL     1      -6.582  14.179  27.491  1.00  0.00    -0.348 OA
ATOM     35  H3  UNL     1      -5.759  14.125  27.020  1.00  0.00     0.219 HD
ENDBRANCH  16  34
BRANCH  17  36
HETATM   36  C23 UNL     1      -4.925  16.156  26.823  1.00  0.00     0.124 C 
BRANCH  36  37
HETATM   37  C24 UNL     1      -4.350  17.529  26.857  1.00  0.00     0.020 C 
BRANCH  37  38
HETATM   38  C25 UNL     1      -3.115  17.607  25.974  1.00  0.00     0.002 C 
BRANCH  38  39
HETATM   39  C26 UNL     1      -2.940  16.322  25.212  1.00  0.00    -0.000 C 
BRANCH  39  40
HETATM   40  C27 UNL     1      -2.417  16.581  23.816  1.00  0.00    -0.005 C 
HETATM   41  C28 UNL     1      -1.408  17.711  23.817  1.00  0.00     0.005 C 
ENDBRANCH  39  40
ENDBRANCH  38  39
ENDBRANCH  37  38
ENDBRANCH  36  37
ENDBRANCH  17  36
BRANCH  21  42
HETATM   42  O4  UNL     1      -6.340  14.885  24.228  1.00  0.00    -0.394 OA
ATOM     43  H4  UNL     1      -6.226  14.382  25.026  1.00  0.00     0.210 HD
ENDBRANCH  21  42
BRANCH   1  44
HETATM   44  C4  UNL     1      -7.479  14.789  22.039  1.00  0.00    -0.019 C 
HETATM   45  C3  UNL     1      -7.132  15.419  20.941  1.00  0.00    -0.004 C 
BRANCH  45  46
HETATM   46  C2  UNL     1      -6.258  14.776  19.964  1.00  0.00    -0.011 C 
HETATM   47  C1  UNL     1      -5.115  15.295  19.563  1.00  0.00     0.011 C 
ENDBRANCH  45  46
ENDBRANCH   1  44
TORSDOF 12
ENDMDL
MODEL 4
REMARK VINA RESULT: -8.816220505      2.561      8.051
REMARK  12 active torsions:
REMARK  status: ('A' for Active; 'I' for Inactive)
REMARK    1  A    between atoms: C2_2  and  C3_3 
REMARK    2  A    between atoms: C4_4  and  C5_5 
REMARK    3  A    between atoms: C13_19  and  C14_20 
REMARK    4  A    between atoms: C14_20  and  C15_21 
REMARK    5  A    between atoms: C19_25  and  C20_26 
REMARK    6  A    between atoms: C22_32  and  O3_33 
REMARK    7  A    between atoms: N5_35  and  C23_36 
REMARK    8  A    between atoms: C23_36  and  C24_37 
REMARK    9  A    between atoms: C24_37  and  C25_38 
REMARK   10  A    between atoms: C25_38  and  C26_39 
REMARK   11  A    between atoms: C26_39  and  C27_40 
REMARK   12  A    between atoms: C32_45  and  O4_46 
ROOT
HETATM    1  C5  UNL     1      -9.077  14.868  31.278  1.00  0.00     0.050 C 
HETATM    2  C6  UNL     1      -7.733  15.438  30.974  1.00  0.00     0.084 C 
HETATM    3  C7  UNL     1      -7.170  15.970  32.316  1.00  0.00     0.020 C 
HETATM    4  C8  UNL     1      -7.821  16.604  30.056  1.00  0.00     0.223 C 
HETATM    5  O1  UNL     1      -8.757  17.407  30.453  1.00  0.00    -0.273 OA
HETATM    6  N1  UNL     1      -7.109  16.946  28.930  1.00  0.00    -0.343 N 
ATOM      7  H1  UNL     1      -6.502  17.754  29.061  1.00  0.00     0.163 HD
HETATM    8  C9  UNL     1      -7.048  16.387  27.596  1.00  0.00     0.106 C 
HETATM    9  C10 UNL     1      -6.687  14.955  27.501  1.00  0.00     0.048 C 
HETATM   10  C11 UNL     1      -5.795  17.033  26.892  1.00  0.00     0.048 C 
HETATM   11  C12 UNL     1      -8.177  16.849  26.757  1.00  0.00     0.246 C 
HETATM   12  O2  UNL     1      -7.994  18.035  26.262  1.00  0.00    -0.271 OA
HETATM   13  N2  UNL     1      -9.379  16.211  26.434  1.00  0.00    -0.347 N 
ATOM     14  H2  UNL     1     -10.202  16.794  26.585  1.00  0.00     0.163 HD
HETATM   15  C13 UNL     1      -9.681  14.920  25.940  1.00  0.00     0.163 C 
HETATM   16  C22 UNL     1     -10.217  13.919  26.858  1.00  0.00     0.137 C 
HETATM   17  N5  UNL     1     -11.303  13.933  27.722  1.00  0.00    -0.363 N 
HETATM   18  C29 UNL     1     -11.796  14.951  28.585  1.00  0.00     0.131 C 
HETATM   19  C30 UNL     1     -11.221  14.968  29.986  1.00  0.00     0.029 C 
HETATM   20  C31 UNL     1     -12.112  14.220  30.959  1.00  0.00     0.014 C 
HETATM   21  C32 UNL     1      -9.861  14.393  30.075  1.00  0.00     0.132 C 
ENDROOT
BRANCH  15  22
HETATM   22  C14 UNL     1     -10.623  15.058  24.718  1.00  0.00     0.072 C 
BRANCH  22  23
HETATM   23  C15 UNL     1      -9.865  15.320  23.471  1.00  0.00    -0.055 A 
HETATM   24  C16 UNL     1     -10.268  14.693  22.285  1.00  0.00     0.007 A 
HETATM   25  C17 UNL     1      -9.600  14.916  21.101  1.00  0.00     0.002 A 
HETATM   26  C18 UNL     1      -8.518  15.761  21.051  1.00  0.00     0.015 A 
HETATM   27  C19 UNL     1      -8.110  16.385  22.215  1.00  0.00     0.005 A 
HETATM   28  C21 UNL     1      -8.787  16.159  23.409  1.00  0.00     0.022 A 
BRANCH  27  29
HETATM   29  C20 UNL     1      -6.966  17.272  22.147  1.00  0.00     0.120 C 
HETATM   30  N3  UNL     1      -6.473  17.737  23.234  1.00  0.00    -0.387 N 
ATOM     31  H32 UNL     1      -6.887  17.479  24.129  1.00  0.00     0.157 HD
ATOM     32  H31 UNL     1      -5.668  18.361  23.186  1.00  0.00     0.157 HD
HETATM   33  N4  UNL     1      -6.394  17.627  20.911  1.00  0.00    -0.082 NA
ENDBRANCH  27  29
ENDBRANCH  22  23
ENDBRANCH  15  22
BRANCH  16  34
HETATM   34  O3  UNL     1      -9.562  12.793  26.882  1.00  0.00    -0.348 OA
ATOM     35  H3  UNL     1      -8.718  12.813  26.447  1.00  0.00     0.219 HD
ENDBRANCH  16  34
BRANCH  17  36
HETATM   36  C23 UNL     1     -12.079  12.662  27.749  1.00  0.00     0.124 C 
BRANCH  36  37
HETATM   37  C24 UNL     1     -13.521  13.034  27.729  1.00  0.00     0.020 C 
BRANCH  37  38
HETATM   38  C25 UNL     1     -14.287  12.237  28.771  1.00  0.00     0.002 C 
BRANCH  38  39
HETATM   39  C26 UNL     1     -13.417  11.149  29.336  1.00  0.00    -0.000 C 
BRANCH  39  40
HETATM   40  C27 UNL     1     -14.074  10.485  30.526  1.00  0.00    -0.005 C 
HETATM   41  C28 UNL     1     -13.319  10.794  31.803  1.00  0.00     0.005 C 
ENDBRANCH  39  40
ENDBRANCH  38  39
ENDBRANCH  37  38
ENDBRANCH  36  37
ENDBRANCH  17  36
BRANCH  21  42
HETATM   42  O4  UNL     1     -10.012  12.986  30.193  1.00  0.00    -0.394 OA
ATOM     43  H4  UNL     1      -9.190  12.639  30.520  1.00  0.00     0.210 HD
ENDBRANCH  21  42
BRANCH   1  44
HETATM   44  C4  UNL     1      -9.076  13.806  32.326  1.00  0.00    -0.019 C 
HETATM   45  C3  UNL     1      -9.620  13.933  33.514  1.00  0.00    -0.004 C 
BRANCH  45  46
HETATM   46  C2  UNL     1      -9.568  12.833  34.473  1.00  0.00    -0.011 C 
HETATM   47  C1  UNL     1     -10.621  12.113  34.804  1.00  0.00     0.011 C 
ENDBRANCH  45  46
ENDBRANCH   1  44
TORSDOF 12
ENDMDL
MODEL 5
REMARK VINA RESULT: -8.164226470      2.430      9.238
REMARK  12 active torsions:
REMARK  status: ('A' for Active; 'I' for Inactive)
REMARK    1  A    between atoms: C2_2  and  C3_3 
REMARK    2  A    between atoms: C4_4  and  C5_5 
REMARK    3  A    between atoms: C13_19  and  C14_20 
REMARK    4  A    between atoms: C14_20  and  C15_21 
REMARK    5  A    between atoms: C19_25  and  C20_26 
REMARK    6  A    between atoms: C22_32  and  O3_33 
REMARK    7  A    between atoms: N5_35  and  C23_36 
REMARK    8  A    between atoms: C23_36  and  C24_37 
REMARK    9  A    between atoms: C24_37  and  C25_38 
REMARK   10  A    between atoms: C25_38  and  C26_39 
REMARK   11  A    between atoms: C26_39  and  C27_40 
REMARK   12  A    between atoms: C32_45  and  O4_46 
ROOT
HETATM    1  C5  UNL     1     -11.828  13.556  29.465  1.00  0.00     0.050 C 
HETATM    2  C6  UNL     1     -11.235  13.238  30.796  1.00  0.00     0.084 C 
HETATM    3  C7  UNL     1     -12.379  12.640  31.654  1.00  0.00     0.020 C 
HETATM    4  C8  UNL     1     -10.767  14.460  31.500  1.00  0.00     0.223 C 
HETATM    5  O1  UNL     1     -11.677  15.382  31.434  1.00  0.00    -0.273 OA
HETATM    6  N1  UNL     1      -9.602  14.748  32.172  1.00  0.00    -0.343 N 
ATOM      7  H1  UNL     1      -9.725  14.844  33.179  1.00  0.00     0.163 HD
HETATM    8  C9  UNL     1      -8.235  14.942  31.734  1.00  0.00     0.106 C 
HETATM    9  C10 UNL     1      -7.628  13.830  30.971  1.00  0.00     0.048 C 
HETATM   10  C11 UNL     1      -7.338  14.907  33.029  1.00  0.00     0.048 C 
HETATM   11  C12 UNL     1      -8.017  16.310  31.213  1.00  0.00     0.246 C 
HETATM   12  O2  UNL     1      -7.835  17.191  32.150  1.00  0.00    -0.271 OA
HETATM   13  N2  UNL     1      -7.981  16.776  29.896  1.00  0.00    -0.347 N 
ATOM     14  H2  UNL     1      -8.570  17.594  29.737  1.00  0.00     0.163 HD
HETATM   15  C13 UNL     1      -7.292  16.341  28.738  1.00  0.00     0.163 C 
HETATM   16  C22 UNL     1      -8.028  15.608  27.712  1.00  0.00     0.137 C 
HETATM   17  N5  UNL     1      -9.190  15.900  27.011  1.00  0.00    -0.363 N 
HETATM   18  C29 UNL     1     -10.417  16.480  27.438  1.00  0.00     0.131 C 
HETATM   19  C30 UNL     1     -11.467  15.513  27.944  1.00  0.00     0.029 C 
HETATM   20  C31 UNL     1     -12.448  15.139  26.849  1.00  0.00     0.014 C 
HETATM   21  C32 UNL     1     -10.904  14.265  28.501  1.00  0.00     0.132 C 
ENDROOT
BRANCH  15  22
HETATM   22  C14 UNL     1      -6.575  17.554  28.095  1.00  0.00     0.072 C 
BRANCH  22  23
HETATM   23  C15 UNL     1      -5.518  17.125  27.149  1.00  0.00    -0.055 A 
HETATM   24  C16 UNL     1      -4.487  16.296  27.609  1.00  0.00     0.007 A 
HETATM   25  C17 UNL     1      -3.491  15.864  26.761  1.00  0.00     0.002 A 
HETATM   26  C18 UNL     1      -3.481  16.236  25.439  1.00  0.00     0.015 A 
HETATM   27  C19 UNL     1      -4.493  17.054  24.973  1.00  0.00     0.005 A 
HETATM   28  C21 UNL     1      -5.498  17.488  25.830  1.00  0.00     0.022 A 
BRANCH  27  29
HETATM   29  C20 UNL     1      -4.468  17.438  23.576  1.00  0.00     0.120 C 
HETATM   30  N3  UNL     1      -4.047  16.599  22.706  1.00  0.00    -0.387 N 
ATOM     31  H32 UNL     1      -3.736  15.674  23.004  1.00  0.00     0.157 HD
ATOM     32  H31 UNL     1      -4.029  16.869  21.723  1.00  0.00     0.157 HD
HETATM   33  N4  UNL     1      -4.898  18.715  23.165  1.00  0.00    -0.082 NA
ENDBRANCH  27  29
ENDBRANCH  22  23
ENDBRANCH  15  22
BRANCH  16  34
HETATM   34  O3  UNL     1      -7.506  14.463  27.377  1.00  0.00    -0.348 OA
ATOM     35  H3  UNL     1      -8.071  13.712  27.514  1.00  0.00     0.219 HD
ENDBRANCH  16  34
BRANCH  17  36
HETATM   36  C23 UNL     1      -9.141  15.536  25.567  1.00  0.00     0.124 C 
BRANCH  36  37
HETATM   37  C24 UNL     1      -8.881  16.793  24.813  1.00  0.00     0.020 C 
BRANCH  37  38
HETATM   38  C25 UNL     1      -8.141  16.491  23.521  1.00  0.00     0.002 C 
BRANCH  38  39
HETATM   39  C26 UNL     1      -7.560  15.104  23.567  1.00  0.00    -0.000 C 
BRANCH  39  40
HETATM   40  C27 UNL     1      -7.961  14.303  22.348  1.00  0.00    -0.005 C 
HETATM   41  C28 UNL     1      -9.371  14.645  21.913  1.00  0.00     0.005 C 
ENDBRANCH  39  40
ENDBRANCH  38  39
ENDBRANCH  37  38
ENDBRANCH  36  37
ENDBRANCH  17  36
BRANCH  21  42
HETATM   42  O4  UNL     1     -10.676  13.388  27.407  1.00  0.00    -0.394 OA
ATOM     43  H4  UNL     1     -11.470  12.885  27.276  1.00  0.00     0.210 HD
ENDBRANCH  21  42
BRANCH   1  44
HETATM   44  C4  UNL     1     -12.472  12.396  28.781  1.00  0.00    -0.019 C 
HETATM   45  C3  UNL     1     -13.628  12.446  28.162  1.00  0.00    -0.004 C 
BRANCH  45  46
HETATM   46  C2  UNL     1     -14.175  11.254  27.519  1.00  0.00    -0.011 C 
HETATM   47  C1  UNL     1     -13.825  10.859  26.312  1.00  0.00     0.011 C 
ENDBRANCH  45  46
ENDBRANCH   1  44
TORSDOF 12
ENDMDL
