MODEL 1
REMARK VINA RESULT: -6.179083963      0.000      0.000
REMARK  1 active torsions:
REMARK  status: ('A' for Active; 'I' for Inactive)
REMARK    1  A    between atoms: C5_5  and  C6_6 
ROOT
HETATM    1  C1  UNL     1      52.202  23.614  27.987  1.00  0.00     0.011 C 
HETATM    2  C2  UNL     1      51.426  22.674  28.928  1.00  0.00    -0.009 A 
HETATM    3  C3  UNL     1      50.032  22.873  29.018  1.00  0.00    -0.004 A 
HETATM    4  C4  UNL     1      49.274  23.886  29.885  1.00  0.00     0.019 C 
HETATM    5  C5  UNL     1      49.694  22.838  30.940  1.00  0.00     0.080 C 
HETATM    6  C7  UNL     1      51.030  23.083  30.235  1.00  0.00     0.007 A 
ENDROOT
BRANCH   5   7
HETATM    7  C6  UNL     1      49.645  23.281  32.308  1.00  0.00     0.235 C 
HETATM    8  N1  UNL     1      49.587  22.348  33.370  1.00  0.00    -0.062 NA
HETATM    9  O1  UNL     1      49.655  24.500  32.583  1.00  0.00    -0.276 OA
ENDBRANCH   5   7
TORSDOF 1
ENDMDL
MODEL 2
REMARK VINA RESULT: -6.013360763      1.094      1.094
REMARK  1 active torsions:
REMARK  status: ('A' for Active; 'I' for Inactive)
REMARK    1  A    between atoms: C5_5  and  C6_6 
ROOT
HETATM    1  C1  UNL     1      52.380  23.707  27.924  1.00  0.00     0.011 C 
HETATM    2  C2  UNL     1      51.623  22.712  28.824  1.00  0.00    -0.009 A 
HETATM    3  C3  UNL     1      50.221  22.851  28.886  1.00  0.00    -0.004 A 
HETATM    4  C4  UNL     1      49.402  23.810  29.759  1.00  0.00     0.019 C 
HETATM    5  C5  UNL     1      49.841  22.755  30.797  1.00  0.00     0.080 C 
HETATM    6  C7  UNL     1      51.181  23.072  30.130  1.00  0.00     0.007 A 
ENDROOT
BRANCH   5   7
HETATM    7  C6  UNL     1      49.743  23.161  32.175  1.00  0.00     0.235 C 
HETATM    8  N1  UNL     1      49.516  24.514  32.517  1.00  0.00    -0.062 NA
HETATM    9  O1  UNL     1      49.857  22.322  33.095  1.00  0.00    -0.276 OA
ENDBRANCH   5   7
TORSDOF 1
ENDMDL
MODEL 3
REMARK VINA RESULT: -5.964586905      1.016      1.616
REMARK  1 active torsions:
REMARK  status: ('A' for Active; 'I' for Inactive)
REMARK    1  A    between atoms: C5_5  and  C6_6 
ROOT
HETATM    1  C1  UNL     1      51.575  22.023  28.021  1.00  0.00     0.011 C 
HETATM    2  C2  UNL     1      51.684  23.036  29.177  1.00  0.00    -0.009 A 
HETATM    3  C3  UNL     1      52.114  22.534  30.423  1.00  0.00    -0.004 A 
HETATM    4  C4  UNL     1      51.276  21.838  31.503  1.00  0.00     0.019 C 
HETATM    5  C5  UNL     1      50.842  23.309  31.684  1.00  0.00     0.080 C 
HETATM    6  C7  UNL     1      50.670  23.146  30.172  1.00  0.00     0.007 A 
ENDROOT
BRANCH   5   7
HETATM    7  C6  UNL     1      49.616  23.510  32.411  1.00  0.00     0.235 C 
HETATM    8  N1  UNL     1      49.018  22.449  33.130  1.00  0.00    -0.062 NA
HETATM    9  O1  UNL     1      49.058  24.628  32.420  1.00  0.00    -0.276 OA
ENDBRANCH   5   7
TORSDOF 1
ENDMDL
MODEL 4
REMARK VINA RESULT: -5.934593034      1.083      1.083
REMARK  1 active torsions:
REMARK  status: ('A' for Active; 'I' for Inactive)
REMARK    1  A    between atoms: C5_5  and  C6_6 
ROOT
HETATM    1  C1  UNL     1      52.217  23.786  27.813  1.00  0.00     0.011 C 
HETATM    2  C2  UNL     1      51.443  22.701  28.586  1.00  0.00    -0.009 A 
HETATM    3  C3  UNL     1      50.146  23.037  29.027  1.00  0.00    -0.004 A 
HETATM    4  C4  UNL     1      49.746  23.807  30.292  1.00  0.00     0.019 C 
HETATM    5  C5  UNL     1      50.129  22.433  30.883  1.00  0.00     0.080 C 
HETATM    6  C7  UNL     1      51.352  22.717  30.008  1.00  0.00     0.007 A 
ENDROOT
BRANCH   5   7
HETATM    7  C6  UNL     1      50.391  22.416  32.297  1.00  0.00     0.235 C 
HETATM    8  N1  UNL     1      49.330  22.369  33.231  1.00  0.00    -0.062 NA
HETATM    9  O1  UNL     1      51.565  22.441  32.728  1.00  0.00    -0.276 OA
ENDBRANCH   5   7
TORSDOF 1
ENDMDL
MODEL 5
REMARK VINA RESULT: -5.761824902      4.010      5.184
REMARK  1 active torsions:
REMARK  status: ('A' for Active; 'I' for Inactive)
REMARK    1  A    between atoms: C5_5  and  C6_6 
ROOT
HETATM    1  C1  UNL     1      50.211  23.475  30.099  1.00  0.00     0.011 C 
HETATM    2  C2  UNL     1      50.703  23.149  28.677  1.00  0.00    -0.009 A 
HETATM    3  C3  UNL     1      51.567  22.043  28.539  1.00  0.00    -0.004 A 
HETATM    4  C4  UNL     1      53.084  21.994  28.758  1.00  0.00     0.019 C 
HETATM    5  C5  UNL     1      52.997  22.725  27.400  1.00  0.00     0.080 C 
HETATM    6  C7  UNL     1      51.998  23.538  28.226  1.00  0.00     0.007 A 
ENDROOT
BRANCH   5   7
HETATM    7  C6  UNL     1      54.179  23.444  27.006  1.00  0.00     0.235 C 
HETATM    8  N1  UNL     1      55.081  22.896  26.064  1.00  0.00    -0.062 NA
HETATM    9  O1  UNL     1      54.430  24.570  27.488  1.00  0.00    -0.276 OA
ENDBRANCH   5   7
TORSDOF 1
ENDMDL
