MODEL 1
REMARK VINA RESULT: -4.356099567      0.000      0.000
REMARK  3 active torsions:
REMARK  status: ('A' for Active; 'I' for Inactive)
REMARK    1  A    between atoms: N1_1  and  C1_4 
REMARK    2  A    between atoms: C3_6  and  N2_7 
REMARK    3  A    between atoms: N4_13  and  O1_14 
ROOT
HETATM    1  C1  UNL     1      22.318  33.928  79.107  1.00  0.00     0.128 A 
HETATM    2  C2  UNL     1      21.351  32.969  78.883  1.00  0.00     0.079 A 
HETATM    3  C3  UNL     1      20.020  33.335  78.830  1.00  0.00     0.037 A 
HETATM    4  C5  UNL     1      19.743  34.671  79.009  1.00  0.00     0.049 A 
HETATM    5  C6  UNL     1      20.743  35.594  79.231  1.00  0.00     0.127 A 
HETATM    6  N4  UNL     1      22.039  35.232  79.281  1.00  0.00    -0.220 N 
ENDROOT
BRANCH   3   7
HETATM    7  N2  UNL     1      18.999  32.361  78.600  1.00  0.00    -0.354 N 
HETATM    8  C4  UNL     1      17.793  32.723  78.282  1.00  0.00     0.190 C 
HETATM    9  N3  UNL     1      16.753  31.801  78.046  1.00  0.00    -0.097 NA
ATOM     10  H2  UNL     1      19.221  31.370  78.686  1.00  0.00     0.166 HD
ENDBRANCH   3   7
BRANCH   1  11
HETATM   11  N1  UNL     1      23.567  33.596  79.157  1.00  0.00    -0.384 N 
ATOM     12  H12 UNL     1      23.854  33.032  79.958  1.00  0.00     0.157 HD
ATOM     13  H11 UNL     1      24.209  33.895  78.424  1.00  0.00     0.157 HD
ENDBRANCH   1  11
BRANCH   6  14
HETATM   14  O1  UNL     1      23.036  36.167  79.505  1.00  0.00    -0.282 OA
ATOM     15  H1  UNL     1      22.842  37.034  79.841  1.00  0.00     0.245 HD
ENDBRANCH   6  14
TORSDOF 3
ENDMDL
MODEL 2
REMARK VINA RESULT: -4.217191352      2.684      5.353
REMARK  3 active torsions:
REMARK  status: ('A' for Active; 'I' for Inactive)
REMARK    1  A    between atoms: N1_1  and  C1_4 
REMARK    2  A    between atoms: C3_6  and  N2_7 
REMARK    3  A    between atoms: N4_13  and  O1_14 
ROOT
HETATM    1  C1  UNL     1      20.772  34.878  79.129  1.00  0.00     0.128 A 
HETATM    2  C2  UNL     1      21.885  35.677  79.287  1.00  0.00     0.079 A 
HETATM    3  C3  UNL     1      23.144  35.110  79.280  1.00  0.00     0.037 A 
HETATM    4  C5  UNL     1      23.202  33.746  79.110  1.00  0.00     0.049 A 
HETATM    5  C6  UNL     1      22.061  32.987  78.956  1.00  0.00     0.127 A 
HETATM    6  N4  UNL     1      20.836  33.545  78.964  1.00  0.00    -0.220 N 
ENDROOT
BRANCH   3   7
HETATM    7  N2  UNL     1      24.314  35.916  79.442  1.00  0.00    -0.354 N 
HETATM    8  C4  UNL     1      24.353  36.865  80.327  1.00  0.00     0.190 C 
HETATM    9  N3  UNL     1      25.482  37.684  80.525  1.00  0.00    -0.097 NA
ATOM     10  H2  UNL     1      25.130  35.742  78.855  1.00  0.00     0.166 HD
ENDBRANCH   3   7
BRANCH   1  11
HETATM   11  N1  UNL     1      19.588  35.400  79.133  1.00  0.00    -0.384 N 
ATOM     12  H12 UNL     1      19.542  36.419  79.150  1.00  0.00     0.157 HD
ATOM     13  H11 UNL     1      18.762  34.801  79.122  1.00  0.00     0.157 HD
ENDBRANCH   1  11
BRANCH   6  14
HETATM   14  O1  UNL     1      19.697  32.773  78.809  1.00  0.00    -0.282 OA
ATOM     15  H1  UNL     1      19.723  31.922  78.388  1.00  0.00     0.245 HD
ENDBRANCH   6  14
TORSDOF 3
ENDMDL
MODEL 3
REMARK VINA RESULT: -3.930684981     14.927     15.401
REMARK  3 active torsions:
REMARK  status: ('A' for Active; 'I' for Inactive)
REMARK    1  A    between atoms: N1_1  and  C1_4 
REMARK    2  A    between atoms: C3_6  and  N2_7 
REMARK    3  A    between atoms: N4_13  and  O1_14 
ROOT
HETATM    1  C1  UNL     1      29.142  45.775  75.391  1.00  0.00     0.128 A 
HETATM    2  C2  UNL     1      29.348  46.009  76.735  1.00  0.00     0.079 A 
HETATM    3  C3  UNL     1      28.325  46.524  77.506  1.00  0.00     0.037 A 
HETATM    4  C5  UNL     1      27.136  46.775  76.861  1.00  0.00     0.049 A 
HETATM    5  C6  UNL     1      26.976  46.525  75.514  1.00  0.00     0.127 A 
HETATM    6  N4  UNL     1      27.977  46.023  74.767  1.00  0.00    -0.220 N 
ENDROOT
BRANCH   3   7
HETATM    7  N2  UNL     1      28.511  46.777  78.901  1.00  0.00    -0.354 N 
HETATM    8  C4  UNL     1      29.586  46.380  79.512  1.00  0.00     0.190 C 
HETATM    9  N3  UNL     1      29.815  46.605  80.884  1.00  0.00    -0.097 NA
ATOM     10  H2  UNL     1      27.790  47.275  79.422  1.00  0.00     0.166 HD
ENDBRANCH   3   7
BRANCH   1  11
HETATM   11  N1  UNL     1      30.094  45.291  74.659  1.00  0.00    -0.384 N 
ATOM     12  H12 UNL     1      30.862  45.925  74.439  1.00  0.00     0.157 HD
ATOM     13  H11 UNL     1      30.053  44.326  74.333  1.00  0.00     0.157 HD
ENDBRANCH   1  11
BRANCH   6  14
HETATM   14  O1  UNL     1      27.806  45.776  73.415  1.00  0.00    -0.282 OA
ATOM     15  H1  UNL     1      28.112  46.384  72.753  1.00  0.00     0.245 HD
ENDBRANCH   6  14
TORSDOF 3
ENDMDL
MODEL 4
REMARK VINA RESULT: -3.888573246      2.126      4.747
REMARK  3 active torsions:
REMARK  status: ('A' for Active; 'I' for Inactive)
REMARK    1  A    between atoms: N1_1  and  C1_4 
REMARK    2  A    between atoms: C3_6  and  N2_7 
REMARK    3  A    between atoms: N4_13  and  O1_14 
ROOT
HETATM    1  C1  UNL     1      20.997  33.499  78.984  1.00  0.00     0.128 A 
HETATM    2  C2  UNL     1      22.313  33.101  79.096  1.00  0.00     0.079 A 
HETATM    3  C3  UNL     1      23.306  34.048  79.251  1.00  0.00     0.037 A 
HETATM    4  C5  UNL     1      22.901  35.362  79.285  1.00  0.00     0.049 A 
HETATM    5  C6  UNL     1      21.573  35.713  79.169  1.00  0.00     0.127 A 
HETATM    6  N4  UNL     1      20.609  34.786  79.018  1.00  0.00    -0.220 N 
ENDROOT
BRANCH   3   7
HETATM    7  N2  UNL     1      24.678  33.662  79.369  1.00  0.00    -0.354 N 
HETATM    8  C4  UNL     1      25.065  32.857  80.312  1.00  0.00     0.190 C 
HETATM    9  N3  UNL     1      26.405  32.448  80.468  1.00  0.00    -0.097 NA
ATOM     10  H2  UNL     1      25.360  34.023  78.704  1.00  0.00     0.166 HD
ENDBRANCH   3   7
BRANCH   1  11
HETATM   11  N1  UNL     1      20.058  32.620  78.840  1.00  0.00    -0.384 N 
ATOM     12  H12 UNL     1      19.172  32.824  79.301  1.00  0.00     0.157 HD
ATOM     13  H11 UNL     1      20.223  31.777  78.290  1.00  0.00     0.157 HD
ENDBRANCH   1  11
BRANCH   6  14
HETATM   14  O1  UNL     1      19.277  35.150  78.902  1.00  0.00    -0.282 OA
ATOM     15  H1  UNL     1      18.709  35.213  79.660  1.00  0.00     0.245 HD
ENDBRANCH   6  14
TORSDOF 3
ENDMDL
MODEL 5
REMARK VINA RESULT: -3.828108968     15.049     15.344
REMARK  3 active torsions:
REMARK  status: ('A' for Active; 'I' for Inactive)
REMARK    1  A    between atoms: N1_1  and  C1_4 
REMARK    2  A    between atoms: C3_6  and  N2_7 
REMARK    3  A    between atoms: N4_13  and  O1_14 
ROOT
HETATM    1  C1  UNL     1      27.781  47.011  77.850  1.00  0.00     0.128 A 
HETATM    2  C2  UNL     1      27.860  46.542  76.555  1.00  0.00     0.079 A 
HETATM    3  C3  UNL     1      29.000  45.889  76.130  1.00  0.00     0.037 A 
HETATM    4  C5  UNL     1      30.008  45.747  77.055  1.00  0.00     0.049 A 
HETATM    5  C6  UNL     1      29.884  46.232  78.340  1.00  0.00     0.127 A 
HETATM    6  N4  UNL     1      28.771  46.869  78.750  1.00  0.00    -0.220 N 
ENDROOT
BRANCH   3   7
HETATM    7  N2  UNL     1      29.107  45.393  74.793  1.00  0.00    -0.354 N 
HETATM    8  C4  UNL     1      29.950  44.451  74.497  1.00  0.00     0.190 C 
HETATM    9  N3  UNL     1      30.092  43.930  73.195  1.00  0.00    -0.097 NA
ATOM     10  H2  UNL     1      28.514  45.785  74.062  1.00  0.00     0.166 HD
ENDBRANCH   3   7
BRANCH   1  11
HETATM   11  N1  UNL     1      26.717  47.624  78.260  1.00  0.00    -0.384 N 
ATOM     12  H12 UNL     1      26.238  47.212  79.060  1.00  0.00     0.157 HD
ATOM     13  H11 UNL     1      26.397  48.470  77.788  1.00  0.00     0.157 HD
ENDBRANCH   1  11
BRANCH   6  14
HETATM   14  O1  UNL     1      28.658  47.353  80.042  1.00  0.00    -0.282 OA
ATOM     15  H1  UNL     1      28.084  48.079  80.256  1.00  0.00     0.245 HD
ENDBRANCH   6  14
TORSDOF 3
ENDMDL
