MODEL 1
REMARK VINA RESULT: -6.094885535      0.000      0.000
REMARK  5 active torsions:
REMARK  status: ('A' for Active; 'I' for Inactive)
REMARK    1  A    between atoms: N1_1  and  C1_5 
REMARK    2  A    between atoms: C1_5  and  O1_6 
REMARK    3  A    between atoms: C1_5  and  C2_8 
REMARK    4  A    between atoms: N2_12  and  O2_13 
REMARK    5  A    between atoms: C6_15  and  O3_16 
ROOT
HETATM    1  C2  UNL     1      18.578  21.768  31.965  1.00  0.00     0.050 A 
HETATM    2  C3  UNL     1      17.987  22.815  31.273  1.00  0.00     0.017 A 
HETATM    3  C4  UNL     1      17.067  23.657  31.868  1.00  0.00     0.021 A 
HETATM    4  C5  UNL     1      16.749  23.422  33.192  1.00  0.00     0.125 A 
HETATM    5  N2  UNL     1      17.311  22.408  33.886  1.00  0.00    -0.212 N 
HETATM    6  C6  UNL     1      18.200  21.607  33.282  1.00  0.00     0.177 A 
ENDROOT
BRANCH   1   7
HETATM    7  C1  UNL     1      19.558  20.838  31.398  1.00  0.00     0.355 C 
BRANCH   7   8
HETATM    8  N1  UNL     1      20.912  21.308  31.671  1.00  0.00    -0.049 N 
ATOM      9  H13 UNL     1      21.356  20.818  32.448  1.00  0.00     0.277 HD
ATOM     10  H12 UNL     1      21.580  21.041  30.948  1.00  0.00     0.277 HD
ATOM     11  H11 UNL     1      20.859  22.316  31.814  1.00  0.00     0.277 HD
ENDBRANCH   7   8
BRANCH   7  12
HETATM   12  O1  UNL     1      19.450  20.671  30.031  1.00  0.00    -0.366 OA
ATOM     13  H1  UNL     1      18.904  19.908  29.883  1.00  0.00     0.212 HD
ENDBRANCH   7  12
ENDBRANCH   1   7
BRANCH   6  14
HETATM   14  O3  UNL     1      18.758  20.578  34.024  1.00  0.00    -0.344 OA
ATOM     15  H3  UNL     1      19.146  20.772  34.869  1.00  0.00     0.219 HD
ENDBRANCH   6  14
BRANCH   5  16
HETATM   16  O2  UNL     1      16.992  22.179  35.202  1.00  0.00    -0.281 OA
ATOM     17  H2  UNL     1      16.439  21.450  35.456  1.00  0.00     0.245 HD
ENDBRANCH   5  16
TORSDOF 5
ENDMDL
MODEL 2
REMARK VINA RESULT: -6.045324305      1.888      2.427
REMARK  5 active torsions:
REMARK  status: ('A' for Active; 'I' for Inactive)
REMARK    1  A    between atoms: N1_1  and  C1_5 
REMARK    2  A    between atoms: C1_5  and  O1_6 
REMARK    3  A    between atoms: C1_5  and  C2_8 
REMARK    4  A    between atoms: N2_12  and  O2_13 
REMARK    5  A    between atoms: C6_15  and  O3_16 
ROOT
HETATM    1  C2  UNL     1      18.531  21.701  32.314  1.00  0.00     0.050 A 
HETATM    2  C3  UNL     1      18.550  21.176  33.597  1.00  0.00     0.017 A 
HETATM    3  C4  UNL     1      17.674  21.606  34.576  1.00  0.00     0.021 A 
HETATM    4  C5  UNL     1      16.766  22.589  34.232  1.00  0.00     0.125 A 
HETATM    5  N2  UNL     1      16.729  23.115  32.989  1.00  0.00    -0.212 N 
HETATM    6  C6  UNL     1      17.591  22.679  32.060  1.00  0.00     0.177 A 
ENDROOT
BRANCH   1   7
HETATM    7  C1  UNL     1      19.428  21.294  31.228  1.00  0.00     0.355 C 
BRANCH   7   8
HETATM    8  N1  UNL     1      19.945  19.953  31.481  1.00  0.00    -0.049 N 
ATOM      9  H13 UNL     1      19.746  19.300  30.723  1.00  0.00     0.277 HD
ATOM     10  H12 UNL     1      20.962  19.902  31.435  1.00  0.00     0.277 HD
ATOM     11  H11 UNL     1      19.570  19.648  32.379  1.00  0.00     0.277 HD
ENDBRANCH   7   8
BRANCH   7  12
HETATM   12  O1  UNL     1      20.517  22.127  31.057  1.00  0.00    -0.366 OA
ATOM     13  H1  UNL     1      20.819  22.014  30.163  1.00  0.00     0.212 HD
ENDBRANCH   7  12
ENDBRANCH   1   7
BRANCH   6  14
HETATM   14  O3  UNL     1      17.524  23.241  30.795  1.00  0.00    -0.344 OA
ATOM     15  H3  UNL     1      16.681  23.515  30.453  1.00  0.00     0.219 HD
ENDBRANCH   6  14
BRANCH   5  16
HETATM   16  O2  UNL     1      15.823  24.092  32.653  1.00  0.00    -0.281 OA
ATOM     17  H2  UNL     1      16.072  24.830  32.110  1.00  0.00     0.245 HD
ENDBRANCH   5  16
TORSDOF 5
ENDMDL
MODEL 3
REMARK VINA RESULT: -5.118824128      2.090      3.343
REMARK  5 active torsions:
REMARK  status: ('A' for Active; 'I' for Inactive)
REMARK    1  A    between atoms: N1_1  and  C1_5 
REMARK    2  A    between atoms: C1_5  and  O1_6 
REMARK    3  A    between atoms: C1_5  and  C2_8 
REMARK    4  A    between atoms: N2_12  and  O2_13 
REMARK    5  A    between atoms: C6_15  and  O3_16 
ROOT
HETATM    1  C2  UNL     1      17.520  22.767  32.169  1.00  0.00     0.050 A 
HETATM    2  C3  UNL     1      18.515  22.317  31.315  1.00  0.00     0.017 A 
HETATM    3  C4  UNL     1      19.324  21.243  31.637  1.00  0.00     0.021 A 
HETATM    4  C5  UNL     1      19.108  20.623  32.853  1.00  0.00     0.125 A 
HETATM    5  N2  UNL     1      18.144  21.044  33.701  1.00  0.00    -0.212 N 
HETATM    6  C6  UNL     1      17.375  22.088  33.362  1.00  0.00     0.177 A 
ENDROOT
BRANCH   1   7
HETATM    7  C1  UNL     1      16.627  23.896  31.894  1.00  0.00     0.355 C 
BRANCH   7   8
HETATM    8  N1  UNL     1      16.837  24.954  32.877  1.00  0.00    -0.049 N 
ATOM      9  H13 UNL     1      17.192  25.817  32.465  1.00  0.00     0.277 HD
ATOM     10  H12 UNL     1      15.967  25.333  33.248  1.00  0.00     0.277 HD
ATOM     11  H11 UNL     1      17.450  24.577  33.600  1.00  0.00     0.277 HD
ENDBRANCH   7   8
BRANCH   7  12
HETATM   12  O1  UNL     1      15.285  23.572  31.922  1.00  0.00    -0.366 OA
ATOM     13  H1  UNL     1      15.225  22.632  32.040  1.00  0.00     0.212 HD
ENDBRANCH   7  12
ENDBRANCH   1   7
BRANCH   6  14
HETATM   14  O3  UNL     1      16.396  22.493  34.256  1.00  0.00    -0.344 OA
ATOM     15  H3  UNL     1      16.318  22.048  35.091  1.00  0.00     0.219 HD
ENDBRANCH   6  14
BRANCH   5  16
HETATM   16  O2  UNL     1      17.934  20.424  34.908  1.00  0.00    -0.281 OA
ATOM     17  H2  UNL     1      18.548  20.520  35.627  1.00  0.00     0.245 HD
ENDBRANCH   5  16
TORSDOF 5
ENDMDL
MODEL 4
REMARK VINA RESULT: -4.817423003      2.060      3.686
REMARK  5 active torsions:
REMARK  status: ('A' for Active; 'I' for Inactive)
REMARK    1  A    between atoms: N1_1  and  C1_5 
REMARK    2  A    between atoms: C1_5  and  O1_6 
REMARK    3  A    between atoms: C1_5  and  C2_8 
REMARK    4  A    between atoms: N2_12  and  O2_13 
REMARK    5  A    between atoms: C6_15  and  O3_16 
ROOT
HETATM    1  C2  UNL     1      17.189  22.576  32.640  1.00  0.00     0.050 A 
HETATM    2  C3  UNL     1      16.900  22.433  33.988  1.00  0.00     0.017 A 
HETATM    3  C4  UNL     1      17.625  21.586  34.805  1.00  0.00     0.021 A 
HETATM    4  C5  UNL     1      18.661  20.875  34.230  1.00  0.00     0.125 A 
HETATM    5  N2  UNL     1      18.961  20.999  32.918  1.00  0.00    -0.212 N 
HETATM    6  C6  UNL     1      18.240  21.828  32.150  1.00  0.00     0.177 A 
ENDROOT
BRANCH   1   7
HETATM    7  C1  UNL     1      16.464  23.453  31.716  1.00  0.00     0.355 C 
BRANCH   7   8
HETATM    8  N1  UNL     1      17.302  24.587  31.338  1.00  0.00    -0.049 N 
ATOM      9  H13 UNL     1      17.497  25.216  32.117  1.00  0.00     0.277 HD
ATOM     10  H12 UNL     1      18.266  24.321  31.138  1.00  0.00     0.277 HD
ATOM     11  H11 UNL     1      16.844  25.052  30.554  1.00  0.00     0.277 HD
ENDBRANCH   7   8
BRANCH   7  12
HETATM   12  O1  UNL     1      15.290  23.967  32.234  1.00  0.00    -0.366 OA
ATOM     13  H1  UNL     1      15.406  24.906  32.314  1.00  0.00     0.212 HD
ENDBRANCH   7  12
ENDBRANCH   1   7
BRANCH   6  14
HETATM   14  O3  UNL     1      18.576  21.930  30.809  1.00  0.00    -0.344 OA
ATOM     15  H3  UNL     1      18.361  22.725  30.337  1.00  0.00     0.219 HD
ENDBRANCH   6  14
BRANCH   5  16
HETATM   16  O2  UNL     1      19.992  20.290  32.351  1.00  0.00    -0.281 OA
ATOM     17  H2  UNL     1      19.872  19.803  31.545  1.00  0.00     0.245 HD
ENDBRANCH   5  16
TORSDOF 5
ENDMDL
MODEL 5
REMARK VINA RESULT: -4.680940076      2.223      2.925
REMARK  5 active torsions:
REMARK  status: ('A' for Active; 'I' for Inactive)
REMARK    1  A    between atoms: N1_1  and  C1_5 
REMARK    2  A    between atoms: C1_5  and  O1_6 
REMARK    3  A    between atoms: C1_5  and  C2_8 
REMARK    4  A    between atoms: N2_12  and  O2_13 
REMARK    5  A    between atoms: C6_15  and  O3_16 
ROOT
HETATM    1  C2  UNL     1      17.722  21.967  33.291  1.00  0.00     0.050 A 
HETATM    2  C3  UNL     1      17.185  22.591  34.407  1.00  0.00     0.017 A 
HETATM    3  C4  UNL     1      16.551  23.816  34.325  1.00  0.00     0.021 A 
HETATM    4  C5  UNL     1      16.466  24.409  33.080  1.00  0.00     0.125 A 
HETATM    5  N2  UNL     1      16.982  23.820  31.979  1.00  0.00    -0.212 N 
HETATM    6  C6  UNL     1      17.592  22.632  32.089  1.00  0.00     0.177 A 
ENDROOT
BRANCH   1   7
HETATM    7  C1  UNL     1      18.408  20.672  33.305  1.00  0.00     0.355 C 
BRANCH   7   8
HETATM    8  N1  UNL     1      18.568  20.202  34.677  1.00  0.00    -0.049 N 
ATOM      9  H13 UNL     1      19.109  19.340  34.744  1.00  0.00     0.277 HD
ATOM     10  H12 UNL     1      19.189  20.791  35.231  1.00  0.00     0.277 HD
ATOM     11  H11 UNL     1      17.633  20.118  35.079  1.00  0.00     0.277 HD
ENDBRANCH   7   8
BRANCH   7  12
HETATM   12  O1  UNL     1      19.665  20.695  32.732  1.00  0.00    -0.366 OA
ATOM     13  H1  UNL     1      19.679  21.416  32.113  1.00  0.00     0.212 HD
ENDBRANCH   7  12
ENDBRANCH   1   7
BRANCH   6  14
HETATM   14  O3  UNL     1      18.110  22.056  30.939  1.00  0.00    -0.344 OA
ATOM     15  H3  UNL     1      18.928  21.578  30.988  1.00  0.00     0.219 HD
ENDBRANCH   6  14
BRANCH   5  16
HETATM   16  O2  UNL     1      16.895  24.414  30.743  1.00  0.00    -0.281 OA
ATOM     17  H2  UNL     1      16.101  24.852  30.461  1.00  0.00     0.245 HD
ENDBRANCH   5  16
TORSDOF 5
ENDMDL
