MODEL 1
REMARK VINA RESULT: -5.815368636      0.000      0.000
REMARK  2 active torsions:
REMARK  status: ('A' for Active; 'I' for Inactive)
REMARK    1  A    between atoms: C2_3  and  C3_4 
REMARK    2  A    between atoms: C6_10  and  N3_11 
ROOT
HETATM    1  N1  UNL     1      16.466  25.412  33.236  1.00  0.00    -0.197 NA
HETATM    2  C1  UNL     1      16.481  24.503  32.517  1.00  0.00     0.065 C 
HETATM    3  C2  UNL     1      16.517  23.362  31.601  1.00  0.00     0.181 C 
ENDROOT
BRANCH   3   4
HETATM    4  C3  UNL     1      17.532  22.404  32.123  1.00  0.00     0.044 A 
HETATM    5  C4  UNL     1      17.378  21.912  33.398  1.00  0.00     0.101 A 
HETATM    6  C5  UNL     1      18.314  21.027  33.888  1.00  0.00     0.261 A 
HETATM    7  O1  UNL     1      18.154  20.583  35.067  1.00  0.00    -0.268 OA
HETATM    8  N2  UNL     1      19.366  20.631  33.159  1.00  0.00    -0.156 N 
HETATM    9  C6  UNL     1      19.477  21.141  31.906  1.00  0.00     0.678 A 
ATOM     10  H2  UNL     1      20.052  19.974  33.529  1.00  0.00     0.187 HD
HETATM   11  N4  UNL     1      18.582  22.007  31.399  1.00  0.00    -0.195 N 
ATOM     12  H4  UNL     1      18.707  22.364  30.451  1.00  0.00     0.184 HD
BRANCH   9  13
HETATM   13  N3  UNL     1      20.479  20.760  31.218  1.00  0.00    -0.234 N 
ATOM     14  H32 UNL     1      21.428  21.011  31.495  1.00  0.00     0.174 HD
ATOM     15  H31 UNL     1      20.281  20.200  30.389  1.00  0.00     0.174 HD
ENDBRANCH   9  13
ENDBRANCH   3   4
TORSDOF 2
ENDMDL
MODEL 2
REMARK VINA RESULT: -5.759017981      2.309      4.297
REMARK  2 active torsions:
REMARK  status: ('A' for Active; 'I' for Inactive)
REMARK    1  A    between atoms: C2_3  and  C3_4 
REMARK    2  A    between atoms: C6_10  and  N3_11 
ROOT
HETATM    1  N1  UNL     1      21.474  21.378  31.259  1.00  0.00    -0.197 NA
HETATM    2  C1  UNL     1      20.381  20.997  31.332  1.00  0.00     0.065 C 
HETATM    3  C2  UNL     1      19.005  20.510  31.445  1.00  0.00     0.181 C 
ENDROOT
BRANCH   3   4
HETATM    4  C3  UNL     1      18.211  21.574  32.122  1.00  0.00     0.044 A 
HETATM    5  C4  UNL     1      17.800  22.659  31.385  1.00  0.00     0.101 A 
HETATM    6  C5  UNL     1      17.066  23.647  32.004  1.00  0.00     0.261 A 
HETATM    7  O1  UNL     1      16.696  24.641  31.307  1.00  0.00    -0.268 OA
HETATM    8  N2  UNL     1      16.741  23.580  33.303  1.00  0.00    -0.156 N 
HETATM    9  C6  UNL     1      17.168  22.492  33.991  1.00  0.00     0.678 A 
ATOM     10  H2  UNL     1      16.197  24.316  33.753  1.00  0.00     0.187 HD
HETATM   11  N4  UNL     1      17.885  21.510  33.416  1.00  0.00    -0.195 N 
ATOM     12  H4  UNL     1      18.184  20.710  33.974  1.00  0.00     0.184 HD
BRANCH   9  13
HETATM   13  N3  UNL     1      16.855  22.434  35.225  1.00  0.00    -0.234 N 
ATOM     14  H32 UNL     1      17.004  23.234  35.839  1.00  0.00     0.174 HD
ATOM     15  H31 UNL     1      16.454  21.557  35.557  1.00  0.00     0.174 HD
ENDBRANCH   9  13
ENDBRANCH   3   4
TORSDOF 2
ENDMDL
MODEL 3
REMARK VINA RESULT: -5.714427149      2.054      3.941
REMARK  2 active torsions:
REMARK  status: ('A' for Active; 'I' for Inactive)
REMARK    1  A    between atoms: C2_3  and  C3_4 
REMARK    2  A    between atoms: C6_10  and  N3_11 
ROOT
HETATM    1  N1  UNL     1      21.854  21.297  31.440  1.00  0.00    -0.197 NA
HETATM    2  C1  UNL     1      20.736  21.151  31.171  1.00  0.00     0.065 C 
HETATM    3  C2  UNL     1      19.324  20.950  30.841  1.00  0.00     0.181 C 
ENDROOT
BRANCH   3   4
HETATM    4  C3  UNL     1      18.525  21.401  32.016  1.00  0.00     0.044 A 
HETATM    5  C4  UNL     1      17.561  22.363  31.826  1.00  0.00     0.101 A 
HETATM    6  C5  UNL     1      16.818  22.785  32.908  1.00  0.00     0.261 A 
HETATM    7  O1  UNL     1      15.933  23.673  32.712  1.00  0.00    -0.268 OA
HETATM    8  N2  UNL     1      17.007  22.285  34.136  1.00  0.00    -0.156 N 
HETATM    9  C6  UNL     1      17.969  21.338  34.277  1.00  0.00     0.678 A 
ATOM     10  H2  UNL     1      16.453  22.602  34.931  1.00  0.00     0.187 HD
HETATM   11  N4  UNL     1      18.711  20.904  33.242  1.00  0.00    -0.195 N 
ATOM     12  H4  UNL     1      19.423  20.190  33.396  1.00  0.00     0.184 HD
BRANCH   9  13
HETATM   13  N3  UNL     1      18.144  20.866  35.448  1.00  0.00    -0.234 N 
ATOM     14  H32 UNL     1      17.378  20.843  36.120  1.00  0.00     0.174 HD
ATOM     15  H31 UNL     1      19.077  20.521  35.669  1.00  0.00     0.174 HD
ENDBRANCH   9  13
ENDBRANCH   3   4
TORSDOF 2
ENDMDL
MODEL 4
REMARK VINA RESULT: -5.403398594      1.736      2.376
REMARK  2 active torsions:
REMARK  status: ('A' for Active; 'I' for Inactive)
REMARK    1  A    between atoms: C2_3  and  C3_4 
REMARK    2  A    between atoms: C6_10  and  N3_11 
ROOT
HETATM    1  N1  UNL     1      16.487  25.417  33.246  1.00  0.00    -0.197 NA
HETATM    2  C1  UNL     1      16.495  24.517  32.515  1.00  0.00     0.065 C 
HETATM    3  C2  UNL     1      16.521  23.388  31.584  1.00  0.00     0.181 C 
ENDROOT
BRANCH   3   4
HETATM    4  C3  UNL     1      17.509  22.403  32.107  1.00  0.00     0.044 A 
HETATM    5  C4  UNL     1      18.573  22.051  31.311  1.00  0.00     0.101 A 
HETATM    6  C5  UNL     1      19.490  21.139  31.788  1.00  0.00     0.261 A 
HETATM    7  O1  UNL     1      20.466  20.827  31.038  1.00  0.00    -0.268 OA
HETATM    8  N2  UNL     1      19.376  20.589  33.004  1.00  0.00    -0.156 N 
HETATM    9  C6  UNL     1      18.311  20.966  33.756  1.00  0.00     0.678 A 
ATOM     10  H2  UNL     1      20.060  19.916  33.350  1.00  0.00     0.187 HD
HETATM   11  N4  UNL     1      17.398  21.852  33.319  1.00  0.00    -0.195 N 
ATOM     12  H4  UNL     1      16.614  22.105  33.920  1.00  0.00     0.184 HD
BRANCH   9  13
HETATM   13  N3  UNL     1      18.208  20.438  34.911  1.00  0.00    -0.234 N 
ATOM     14  H32 UNL     1      18.029  21.014  35.733  1.00  0.00     0.174 HD
ATOM     15  H31 UNL     1      18.314  19.425  34.965  1.00  0.00     0.174 HD
ENDBRANCH   9  13
ENDBRANCH   3   4
TORSDOF 2
ENDMDL
MODEL 5
REMARK VINA RESULT: -5.132375520      1.504      3.776
REMARK  2 active torsions:
REMARK  status: ('A' for Active; 'I' for Inactive)
REMARK    1  A    between atoms: C2_3  and  C3_4 
REMARK    2  A    between atoms: C6_10  and  N3_11 
ROOT
HETATM    1  N1  UNL     1      21.548  21.378  31.222  1.00  0.00    -0.197 NA
HETATM    2  C1  UNL     1      20.454  21.005  31.308  1.00  0.00     0.065 C 
HETATM    3  C2  UNL     1      19.075  20.529  31.436  1.00  0.00     0.181 C 
ENDROOT
BRANCH   3   4
HETATM    4  C3  UNL     1      18.289  21.616  32.085  1.00  0.00     0.044 A 
HETATM    5  C4  UNL     1      17.962  21.489  33.414  1.00  0.00     0.101 A 
HETATM    6  C5  UNL     1      17.234  22.489  34.021  1.00  0.00     0.261 A 
HETATM    7  O1  UNL     1      16.942  22.353  35.249  1.00  0.00    -0.268 OA
HETATM    8  N2  UNL     1      16.837  23.581  33.355  1.00  0.00    -0.156 N 
HETATM    9  C6  UNL     1      17.182  23.665  32.045  1.00  0.00     0.678 A 
ATOM     10  H2  UNL     1      16.299  24.317  33.812  1.00  0.00     0.187 HD
HETATM   11  N4  UNL     1      17.891  22.707  31.423  1.00  0.00    -0.195 N 
ATOM     12  H4  UNL     1      18.128  22.813  30.437  1.00  0.00     0.184 HD
BRANCH   9  13
HETATM   13  N3  UNL     1      16.801  24.706  31.417  1.00  0.00    -0.234 N 
ATOM     14  H32 UNL     1      15.935  25.182  31.670  1.00  0.00     0.174 HD
ATOM     15  H31 UNL     1      17.402  25.031  30.659  1.00  0.00     0.174 HD
ENDBRANCH   9  13
ENDBRANCH   3   4
TORSDOF 2
ENDMDL
