MODEL 1
REMARK VINA RESULT: -4.878487361      0.000      0.000
REMARK  2 active torsions:
REMARK  status: ('A' for Active; 'I' for Inactive)
REMARK    1  A    between atoms: N1_1  and  C1_5 
REMARK    2  A    between atoms: C3_7  and  C4_8 
ROOT
HETATM    1  C1  UNL     1       1.529  41.022 -12.882  1.00  0.00     0.218 C 
HETATM    2  C2  UNL     1       2.261  41.472 -11.609  1.00  0.00     0.045 C 
HETATM    3  C3  UNL     1       1.955  40.088 -11.083  1.00  0.00     0.052 C 
HETATM    4  C5  UNL     1       0.701  40.146 -11.931  1.00  0.00     0.206 C 
HETATM    5  F2  UNL     1       0.397  38.965 -12.545  1.00  0.00    -0.247 F 
ENDROOT
BRANCH   1   6
HETATM    6  N1  UNL     1       0.829  42.108 -13.473  1.00  0.00    -0.072 N 
ATOM      7  H13 UNL     1       0.090  42.457 -12.863  1.00  0.00     0.274 HD
ATOM      8  H12 UNL     1       1.404  42.949 -13.515  1.00  0.00     0.274 HD
ATOM      9  H11 UNL     1       0.468  41.851 -14.392  1.00  0.00     0.274 HD
ENDBRANCH   1   6
BRANCH   3  10
HETATM   10  C4  UNL     1       1.738  39.994  -9.605  1.00  0.00     0.229 C 
HETATM   11  F1  UNL     1       2.677  39.076  -9.121  1.00  0.00    -0.255 F 
ENDBRANCH   3  10
TORSDOF 2
ENDMDL
MODEL 2
REMARK VINA RESULT: -4.851843451      2.606      3.439
REMARK  2 active torsions:
REMARK  status: ('A' for Active; 'I' for Inactive)
REMARK    1  A    between atoms: N1_1  and  C1_5 
REMARK    2  A    between atoms: C3_7  and  C4_8 
ROOT
HETATM    1  C1  UNL     1       1.380  38.934 -10.011  1.00  0.00     0.218 C 
HETATM    2  C2  UNL     1       1.958  40.342 -10.215  1.00  0.00     0.045 C 
HETATM    3  C3  UNL     1       1.212  40.332 -11.530  1.00  0.00     0.052 C 
HETATM    4  C5  UNL     1       1.444  38.835 -11.542  1.00  0.00     0.206 C 
HETATM    5  F2  UNL     1       0.378  38.117 -12.000  1.00  0.00    -0.247 F 
ENDROOT
BRANCH   1   6
HETATM    6  N1  UNL     1       2.298  38.107  -9.310  1.00  0.00    -0.072 N 
ATOM      7  H13 UNL     1       3.190  38.033  -9.799  1.00  0.00     0.274 HD
ATOM      8  H12 UNL     1       2.629  38.553  -8.454  1.00  0.00     0.274 HD
ATOM      9  H11 UNL     1       1.893  37.189  -9.125  1.00  0.00     0.274 HD
ENDBRANCH   1   6
BRANCH   3  10
HETATM   10  C4  UNL     1       1.856  41.101 -12.641  1.00  0.00     0.229 C 
HETATM   11  F1  UNL     1       0.842  41.400 -13.559  1.00  0.00    -0.255 F 
ENDBRANCH   3  10
TORSDOF 2
ENDMDL
MODEL 3
REMARK VINA RESULT: -4.766410069      2.549      3.009
REMARK  2 active torsions:
REMARK  status: ('A' for Active; 'I' for Inactive)
REMARK    1  A    between atoms: N1_1  and  C1_5 
REMARK    2  A    between atoms: C3_7  and  C4_8 
ROOT
HETATM    1  C1  UNL     1       0.238  38.650 -11.257  1.00  0.00     0.218 C 
HETATM    2  C2  UNL     1       1.419  38.976 -12.181  1.00  0.00     0.045 C 
HETATM    3  C3  UNL     1       1.566  40.235 -11.357  1.00  0.00     0.052 C 
HETATM    4  C5  UNL     1       0.065  40.172 -11.166  1.00  0.00     0.206 C 
HETATM    5  F2  UNL     1      -0.344  40.513  -9.909  1.00  0.00    -0.247 F 
ENDROOT
BRANCH   1   6
HETATM    6  N1  UNL     1      -0.784  37.963 -11.965  1.00  0.00    -0.072 N 
ATOM      7  H13 UNL     1      -0.543  37.837 -12.947  1.00  0.00     0.274 HD
ATOM      8  H12 UNL     1      -0.837  36.981 -11.693  1.00  0.00     0.274 HD
ATOM      9  H11 UNL     1      -1.682  38.433 -11.855  1.00  0.00     0.274 HD
ENDBRANCH   1   6
BRANCH   3  10
HETATM   10  C4  UNL     1       2.080  41.431 -12.096  1.00  0.00     0.229 C 
HETATM   11  F1  UNL     1       2.928  42.111 -11.213  1.00  0.00    -0.255 F 
ENDBRANCH   3  10
TORSDOF 2
ENDMDL
MODEL 4
REMARK VINA RESULT: -4.760326354      1.959      2.673
REMARK  2 active torsions:
REMARK  status: ('A' for Active; 'I' for Inactive)
REMARK    1  A    between atoms: N1_1  and  C1_5 
REMARK    2  A    between atoms: C3_7  and  C4_8 
ROOT
HETATM    1  C1  UNL     1       1.573  41.242 -10.712  1.00  0.00     0.218 C 
HETATM    2  C2  UNL     1       0.125  40.778 -10.929  1.00  0.00     0.045 C 
HETATM    3  C3  UNL     1       0.396  39.792  -9.816  1.00  0.00     0.052 C 
HETATM    4  C5  UNL     1       1.832  39.786 -10.297  1.00  0.00     0.206 C 
HETATM    5  F2  UNL     1       2.750  39.754  -9.288  1.00  0.00    -0.247 F 
ENDROOT
BRANCH   1   6
HETATM    6  N1  UNL     1       2.166  41.640 -11.939  1.00  0.00    -0.072 N 
ATOM      7  H13 UNL     1       3.163  41.426 -11.963  1.00  0.00     0.274 HD
ATOM      8  H12 UNL     1       1.864  41.049 -12.713  1.00  0.00     0.274 HD
ATOM      9  H11 UNL     1       1.989  42.627 -12.126  1.00  0.00     0.274 HD
ENDBRANCH   1   6
BRANCH   3  10
HETATM   10  C4  UNL     1      -0.332  38.488  -9.919  1.00  0.00     0.229 C 
HETATM   11  F1  UNL     1      -0.394  37.962  -8.623  1.00  0.00    -0.255 F 
ENDBRANCH   3  10
TORSDOF 2
ENDMDL
MODEL 5
REMARK VINA RESULT: -4.755869022      2.797      3.346
REMARK  2 active torsions:
REMARK  status: ('A' for Active; 'I' for Inactive)
REMARK    1  A    between atoms: N1_1  and  C1_5 
REMARK    2  A    between atoms: C3_7  and  C4_8 
ROOT
HETATM    1  C1  UNL     1       0.046  38.732 -10.321  1.00  0.00     0.218 C 
HETATM    2  C2  UNL     1       0.148  40.253 -10.137  1.00  0.00     0.045 C 
HETATM    3  C3  UNL     1       1.161  40.205 -11.257  1.00  0.00     0.052 C 
HETATM    4  C5  UNL     1       1.518  38.824 -10.749  1.00  0.00     0.206 C 
HETATM    5  F2  UNL     1       1.764  37.919 -11.740  1.00  0.00    -0.247 F 
ENDROOT
BRANCH   1   6
HETATM    6  N1  UNL     1      -0.187  38.086  -9.078  1.00  0.00    -0.072 N 
ATOM      7  H13 UNL     1       0.255  38.584  -8.305  1.00  0.00     0.274 HD
ATOM      8  H12 UNL     1      -1.159  38.177  -8.783  1.00  0.00     0.274 HD
ATOM      9  H11 UNL     1       0.108  37.110  -9.114  1.00  0.00     0.274 HD
ENDBRANCH   1   6
BRANCH   3  10
HETATM   10  C4  UNL     1       2.250  41.229 -11.185  1.00  0.00     0.229 C 
HETATM   11  F1  UNL     1       2.379  41.768 -12.470  1.00  0.00    -0.255 F 
ENDBRANCH   3  10
TORSDOF 2
ENDMDL
