MODEL 1
REMARK VINA RESULT: -7.565932550      0.000      0.000
REMARK  8 active torsions:
REMARK  status: ('A' for Active; 'I' for Inactive)
REMARK    1  A    between atoms: C2_2  and  N1_3 
REMARK    2  A    between atoms: C4_7  and  N3_8 
REMARK    3  A    between atoms: N4_10  and  N5_12 
REMARK    4  A    between atoms: N5_12  and  C5_14 
REMARK    5  A    between atoms: C6_15  and  O1_16 
REMARK    6  A    between atoms: N7_22  and  C9_23 
REMARK    7  A    between atoms: N10_28  and  N11_29 
REMARK    8  A    between atoms: C11_32  and  N12_33 
ROOT
HETATM    1  C5  UNL     1     116.945  56.379  19.010  1.00  0.00     0.184 A 
HETATM    2  C6  UNL     1     117.225  56.027  17.685  1.00  0.00     0.193 A 
HETATM    3  N6  UNL     1     117.185  57.197  16.984  1.00  0.00    -0.281 N 
HETATM    4  C7  UNL     1     117.421  57.289  15.556  1.00  0.00     0.163 C 
HETATM    5  C8  UNL     1     116.895  58.192  17.847  1.00  0.00     0.337 A 
HETATM    6  O2  UNL     1     116.781  59.399  17.534  1.00  0.00    -0.246 OA
HETATM    7  N7  UNL     1     116.748  57.702  19.083  1.00  0.00    -0.237 N 
ENDROOT
BRANCH   1   8
HETATM    8  N5  UNL     1     116.894  55.442  20.061  1.00  0.00    -0.267 N 
ATOM      9  H5  UNL     1     117.757  55.052  20.442  1.00  0.00     0.190 HD
BRANCH   8  10
HETATM   10  N4  UNL     1     115.671  55.052  20.575  1.00  0.00    -0.240 N 
HETATM   11  N3  UNL     1     115.016  54.036  20.268  1.00  0.00    -0.273 N 
ATOM     12  H3  UNL     1     114.127  53.908  20.753  1.00  0.00     0.190 HD
ATOM     13  H4  UNL     1     115.259  55.661  21.282  1.00  0.00     0.208 HD
BRANCH  11  14
HETATM   14  C4  UNL     1     115.360  53.042  19.328  1.00  0.00     0.123 C 
HETATM   15  N2  UNL     1     116.563  52.681  19.056  1.00  0.00    -0.352 N 
HETATM   16  C3  UNL     1     116.578  51.639  18.047  1.00  0.00     0.397 C 
ATOM     17  H2  UNL     1     117.397  53.074  19.493  1.00  0.00     0.162 HD
HETATM   18  N1  UNL     1     115.297  51.742  17.430  1.00  0.00     0.112 N 
HETATM   19  C12 UNL     1     114.440  52.222  18.470  1.00  0.00     0.351 C 
BRANCH  18  20
HETATM   20  C2  UNL     1     114.851  50.621  16.688  1.00  0.00     0.270 C 
HETATM   21  C1  UNL     1     114.080  49.585  17.433  1.00  0.00     0.037 C 
ENDBRANCH  18  20
ENDBRANCH  11  14
ENDBRANCH   8  10
ENDBRANCH   1   8
BRANCH   2  22
HETATM   22  O1  UNL     1     117.490  54.775  17.169  1.00  0.00    -0.343 OA
ATOM     23  H1  UNL     1     118.218  54.198  17.365  1.00  0.00     0.219 HD
ENDBRANCH   2  22
BRANCH   7  24
HETATM   24  C9  UNL     1     116.446  58.433  20.234  1.00  0.00     0.135 A 
HETATM   25  C10 UNL     1     115.221  58.531  20.912  1.00  0.00     0.164 A 
HETATM   26  N8  UNL     1     114.047  57.841  20.475  1.00  0.00    -0.079 NA
HETATM   27  N9  UNL     1     115.414  59.339  21.950  1.00  0.00    -0.263 N 
HETATM   28  N10 UNL     1     116.654  59.768  21.999  1.00  0.00    -0.183 N 
ATOM     29  H9  UNL     1     114.691  59.593  22.623  1.00  0.00     0.190 HD
HETATM   30  C11 UNL     1     117.308  59.231  20.964  1.00  0.00     0.169 A 
BRANCH  28  31
HETATM   31  N11 UNL     1     117.172  60.632  22.965  1.00  0.00    -0.322 N 
ATOM     32 2H11 UNL     1     116.838  61.567  23.195  1.00  0.00     0.179 HD
ATOM     33 1H11 UNL     1     117.964  60.428  23.576  1.00  0.00     0.179 HD
ENDBRANCH  28  31
BRANCH  30  34
HETATM   34  N12 UNL     1     118.550  59.443  20.709  1.00  0.00    -0.381 N 
ATOM     35 2H12 UNL     1     119.149  58.790  20.204  1.00  0.00     0.157 HD
ATOM     36 1H12 UNL     1     119.089  60.269  20.969  1.00  0.00     0.157 HD
ENDBRANCH  30  34
ENDBRANCH   7  24
TORSDOF 8
ENDMDL
MODEL 2
REMARK VINA RESULT: -7.274216319      1.933      3.899
REMARK  8 active torsions:
REMARK  status: ('A' for Active; 'I' for Inactive)
REMARK    1  A    between atoms: C2_2  and  N1_3 
REMARK    2  A    between atoms: C4_7  and  N3_8 
REMARK    3  A    between atoms: N4_10  and  N5_12 
REMARK    4  A    between atoms: N5_12  and  C5_14 
REMARK    5  A    between atoms: C6_15  and  O1_16 
REMARK    6  A    between atoms: N7_22  and  C9_23 
REMARK    7  A    between atoms: N10_28  and  N11_29 
REMARK    8  A    between atoms: C11_32  and  N12_33 
ROOT
HETATM    1  C5  UNL     1     116.126  56.940  19.667  1.00  0.00     0.184 A 
HETATM    2  C6  UNL     1     115.125  57.028  20.639  1.00  0.00     0.193 A 
HETATM    3  N6  UNL     1     114.913  58.363  20.822  1.00  0.00    -0.281 N 
HETATM    4  C7  UNL     1     113.945  58.905  21.756  1.00  0.00     0.163 C 
HETATM    5  C8  UNL     1     115.746  59.034  20.001  1.00  0.00     0.337 A 
HETATM    6  O2  UNL     1     115.814  60.282  19.915  1.00  0.00    -0.246 OA
HETATM    7  N7  UNL     1     116.488  58.175  19.293  1.00  0.00    -0.237 N 
ENDROOT
BRANCH   1   8
HETATM    8  N5  UNL     1     116.633  55.714  19.191  1.00  0.00    -0.267 N 
ATOM      9  H5  UNL     1     116.618  55.506  18.193  1.00  0.00     0.190 HD
BRANCH   8  10
HETATM   10  N4  UNL     1     117.152  54.793  20.083  1.00  0.00    -0.240 N 
HETATM   11  N3  UNL     1     116.751  53.628  20.279  1.00  0.00    -0.273 N 
ATOM     12  H3  UNL     1     117.258  53.089  20.981  1.00  0.00     0.190 HD
ATOM     13  H4  UNL     1     117.948  55.100  20.643  1.00  0.00     0.208 HD
BRANCH  11  14
HETATM   14  C4  UNL     1     115.679  52.969  19.641  1.00  0.00     0.123 C 
HETATM   15  N2  UNL     1     114.437  53.220  19.856  1.00  0.00    -0.352 N 
HETATM   16  C3  UNL     1     113.587  52.371  19.044  1.00  0.00     0.397 C 
ATOM     17  H2  UNL     1     114.095  53.923  20.510  1.00  0.00     0.162 HD
HETATM   18  N1  UNL     1     114.440  51.293  18.667  1.00  0.00     0.112 N 
HETATM   19  C12 UNL     1     115.746  51.874  18.615  1.00  0.00     0.351 C 
BRANCH  18  20
HETATM   20  C2  UNL     1     114.034  50.512  17.557  1.00  0.00     0.270 C 
HETATM   21  C1  UNL     1     115.083  50.172  16.553  1.00  0.00     0.037 C 
ENDBRANCH  18  20
ENDBRANCH  11  14
ENDBRANCH   8  10
ENDBRANCH   1   8
BRANCH   2  22
HETATM   22  O1  UNL     1     114.472  56.001  21.292  1.00  0.00    -0.343 OA
ATOM     23  H1  UNL     1     114.791  55.456  22.001  1.00  0.00     0.219 HD
ENDBRANCH   2  22
BRANCH   7  24
HETATM   24  C9  UNL     1     117.458  58.503  18.344  1.00  0.00     0.135 A 
HETATM   25  C10 UNL     1     118.842  58.656  18.522  1.00  0.00     0.164 A 
HETATM   26  N8  UNL     1     119.473  58.478  19.793  1.00  0.00    -0.079 NA
HETATM   27  N9  UNL     1     119.354  58.971  17.337  1.00  0.00    -0.263 N 
HETATM   28  N10 UNL     1     118.424  59.034  16.413  1.00  0.00    -0.183 N 
ATOM     29  H9  UNL     1     120.346  59.142  17.167  1.00  0.00     0.190 HD
HETATM   30  C11 UNL     1     117.255  58.753  16.998  1.00  0.00     0.169 A 
BRANCH  28  31
HETATM   31  N11 UNL     1     118.639  59.345  15.070  1.00  0.00    -0.322 N 
ATOM     32 2H11 UNL     1     118.609  60.269  14.641  1.00  0.00     0.179 HD
ATOM     33 1H11 UNL     1     118.860  58.672  14.336  1.00  0.00     0.179 HD
ENDBRANCH  28  31
BRANCH  30  34
HETATM   34  N12 UNL     1     116.128  58.727  16.380  1.00  0.00    -0.381 N 
ATOM     35 2H12 UNL     1     115.277  59.171  16.725  1.00  0.00     0.157 HD
ATOM     36 1H12 UNL     1     115.938  58.272  15.487  1.00  0.00     0.157 HD
ENDBRANCH  30  34
ENDBRANCH   7  24
TORSDOF 8
ENDMDL
MODEL 3
REMARK VINA RESULT: -7.260581026      1.974      3.596
REMARK  8 active torsions:
REMARK  status: ('A' for Active; 'I' for Inactive)
REMARK    1  A    between atoms: C2_2  and  N1_3 
REMARK    2  A    between atoms: C4_7  and  N3_8 
REMARK    3  A    between atoms: N4_10  and  N5_12 
REMARK    4  A    between atoms: N5_12  and  C5_14 
REMARK    5  A    between atoms: C6_15  and  O1_16 
REMARK    6  A    between atoms: N7_22  and  C9_23 
REMARK    7  A    between atoms: N10_28  and  N11_29 
REMARK    8  A    between atoms: C11_32  and  N12_33 
ROOT
HETATM    1  C5  UNL     1     116.159  56.975  19.684  1.00  0.00     0.184 A 
HETATM    2  C6  UNL     1     115.125  57.068  20.621  1.00  0.00     0.193 A 
HETATM    3  N6  UNL     1     114.923  58.405  20.806  1.00  0.00    -0.281 N 
HETATM    4  C7  UNL     1     113.930  58.953  21.710  1.00  0.00     0.163 C 
HETATM    5  C8  UNL     1     115.794  59.071  20.020  1.00  0.00     0.337 A 
HETATM    6  O2  UNL     1     115.879  60.318  19.946  1.00  0.00    -0.246 OA
HETATM    7  N7  UNL     1     116.548  58.207  19.333  1.00  0.00    -0.237 N 
ENDROOT
BRANCH   1   8
HETATM    8  N5  UNL     1     116.667  55.746  19.217  1.00  0.00    -0.267 N 
ATOM      9  H5  UNL     1     116.663  55.536  18.219  1.00  0.00     0.190 HD
BRANCH   8  10
HETATM   10  N4  UNL     1     117.171  54.825  20.118  1.00  0.00    -0.240 N 
HETATM   11  N3  UNL     1     116.768  53.659  20.305  1.00  0.00    -0.273 N 
ATOM     12  H3  UNL     1     117.263  53.120  21.016  1.00  0.00     0.190 HD
ATOM     13  H4  UNL     1     117.956  55.132  20.692  1.00  0.00     0.208 HD
BRANCH  11  14
HETATM   14  C4  UNL     1     115.709  52.999  19.648  1.00  0.00     0.123 C 
HETATM   15  N2  UNL     1     114.462  53.219  19.870  1.00  0.00    -0.352 N 
HETATM   16  C3  UNL     1     113.628  52.379  19.033  1.00  0.00     0.397 C 
ATOM     17  H2  UNL     1     114.107  53.896  20.545  1.00  0.00     0.162 HD
HETATM   18  N1  UNL     1     114.501  51.329  18.625  1.00  0.00     0.112 N 
HETATM   19  C12 UNL     1     115.796  51.936  18.590  1.00  0.00     0.351 C 
BRANCH  18  20
HETATM   20  C2  UNL     1     114.110  50.573  17.492  1.00  0.00     0.270 C 
HETATM   21  C1  UNL     1     115.182  50.208  16.523  1.00  0.00     0.037 C 
ENDBRANCH  18  20
ENDBRANCH  11  14
ENDBRANCH   8  10
ENDBRANCH   1   8
BRANCH   2  22
HETATM   22  O1  UNL     1     114.436  56.046  21.243  1.00  0.00    -0.343 OA
ATOM     23  H1  UNL     1     114.593  55.110  21.188  1.00  0.00     0.219 HD
ENDBRANCH   2  22
BRANCH   7  24
HETATM   24  C9  UNL     1     117.556  58.530  18.421  1.00  0.00     0.135 A 
HETATM   25  C10 UNL     1     117.431  58.911  17.076  1.00  0.00     0.164 A 
HETATM   26  N8  UNL     1     116.161  59.026  16.429  1.00  0.00    -0.079 NA
HETATM   27  N9  UNL     1     118.660  59.116  16.613  1.00  0.00    -0.263 N 
HETATM   28  N10 UNL     1     119.564  58.901  17.541  1.00  0.00    -0.183 N 
ATOM     29  H9  UNL     1     118.874  59.404  15.658  1.00  0.00     0.190 HD
HETATM   30  C11 UNL     1     118.919  58.542  18.656  1.00  0.00     0.169 A 
BRANCH  28  31
HETATM   31  N11 UNL     1     120.943  59.027  17.370  1.00  0.00    -0.322 N 
ATOM     32 2H11 UNL     1     121.658  58.993  18.096  1.00  0.00     0.179 HD
ATOM     33 1H11 UNL     1     121.417  59.167  16.477  1.00  0.00     0.179 HD
ENDBRANCH  28  31
BRANCH  30  34
HETATM   34  N12 UNL     1     119.504  58.255  19.765  1.00  0.00    -0.381 N 
ATOM     35 2H12 UNL     1     120.513  58.300  19.906  1.00  0.00     0.157 HD
ATOM     36 1H12 UNL     1     119.051  57.953  20.627  1.00  0.00     0.157 HD
ENDBRANCH  30  34
ENDBRANCH   7  24
TORSDOF 8
ENDMDL
MODEL 4
REMARK VINA RESULT: -7.204439582      1.889      4.322
REMARK  8 active torsions:
REMARK  status: ('A' for Active; 'I' for Inactive)
REMARK    1  A    between atoms: C2_2  and  N1_3 
REMARK    2  A    between atoms: C4_7  and  N3_8 
REMARK    3  A    between atoms: N4_10  and  N5_12 
REMARK    4  A    between atoms: N5_12  and  C5_14 
REMARK    5  A    between atoms: C6_15  and  O1_16 
REMARK    6  A    between atoms: N7_22  and  C9_23 
REMARK    7  A    between atoms: N10_28  and  N11_29 
REMARK    8  A    between atoms: C11_32  and  N12_33 
ROOT
HETATM    1  C5  UNL     1     115.905  58.224  19.995  1.00  0.00     0.184 A 
HETATM    2  C6  UNL     1     116.091  59.124  21.051  1.00  0.00     0.193 A 
HETATM    3  N6  UNL     1     117.138  59.913  20.674  1.00  0.00    -0.281 N 
HETATM    4  C7  UNL     1     117.669  60.990  21.487  1.00  0.00     0.163 C 
HETATM    5  C8  UNL     1     117.553  59.503  19.458  1.00  0.00     0.337 A 
HETATM    6  O2  UNL     1     118.501  60.012  18.817  1.00  0.00    -0.246 OA
HETATM    7  N7  UNL     1     116.807  58.476  19.038  1.00  0.00    -0.237 N 
ENDROOT
BRANCH   1   8
HETATM    8  N5  UNL     1     114.904  57.232  19.996  1.00  0.00    -0.267 N 
ATOM      9  H5  UNL     1     114.441  56.971  19.126  1.00  0.00     0.190 HD
BRANCH   8  10
HETATM   10  N4  UNL     1     114.553  56.611  21.182  1.00  0.00    -0.240 N 
HETATM   11  N3  UNL     1     114.476  55.384  21.394  1.00  0.00    -0.273 N 
ATOM     12  H3  UNL     1     114.200  55.107  22.336  1.00  0.00     0.190 HD
ATOM     13  H4  UNL     1     114.334  57.223  21.968  1.00  0.00     0.208 HD
BRANCH  11  14
HETATM   14  C4  UNL     1     114.727  54.337  20.483  1.00  0.00     0.123 C 
HETATM   15  N2  UNL     1     113.844  53.496  20.078  1.00  0.00    -0.352 N 
HETATM   16  C3  UNL     1     114.419  52.545  19.146  1.00  0.00     0.397 C 
ATOM     17  H2  UNL     1     112.867  53.497  20.372  1.00  0.00     0.162 HD
HETATM   18  N1  UNL     1     115.821  52.632  19.391  1.00  0.00     0.112 N 
HETATM   19  C12 UNL     1     116.024  53.984  19.814  1.00  0.00     0.351 C 
BRANCH  18  20
HETATM   20  C2  UNL     1     116.681  52.133  18.382  1.00  0.00     0.270 C 
HETATM   21  C1  UNL     1     116.145  52.111  16.991  1.00  0.00     0.037 C 
ENDBRANCH  18  20
ENDBRANCH  11  14
ENDBRANCH   8  10
ENDBRANCH   1   8
BRANCH   2  22
HETATM   22  O1  UNL     1     115.382  59.217  22.232  1.00  0.00    -0.343 OA
ATOM     23  H1  UNL     1     115.306  59.961  22.816  1.00  0.00     0.219 HD
ENDBRANCH   2  22
BRANCH   7  24
HETATM   24  C9  UNL     1     116.944  57.793  17.827  1.00  0.00     0.135 A 
HETATM   25  C10 UNL     1     116.555  58.201  16.542  1.00  0.00     0.164 A 
HETATM   26  N8  UNL     1     115.926  59.462  16.298  1.00  0.00    -0.079 NA
HETATM   27  N9  UNL     1     116.887  57.222  15.706  1.00  0.00    -0.263 N 
HETATM   28  N10 UNL     1     117.455  56.222  16.338  1.00  0.00    -0.183 N 
ATOM     29  H9  UNL     1     116.721  57.246  14.699  1.00  0.00     0.190 HD
HETATM   30  C11 UNL     1     117.504  56.542  17.636  1.00  0.00     0.169 A 
BRANCH  28  31
HETATM   31  N11 UNL     1     117.913  55.046  15.744  1.00  0.00    -0.322 N 
ATOM     32 2H11 UNL     1     117.355  54.239  15.468  1.00  0.00     0.179 HD
ATOM     33 1H11 UNL     1     118.884  54.845  15.504  1.00  0.00     0.179 HD
ENDBRANCH  28  31
BRANCH  30  34
HETATM   34  N12 UNL     1     118.001  55.782  18.547  1.00  0.00    -0.381 N 
ATOM     35 2H12 UNL     1     117.883  54.769  18.572  1.00  0.00     0.157 HD
ATOM     36 1H12 UNL     1     118.563  56.080  19.343  1.00  0.00     0.157 HD
ENDBRANCH  30  34
ENDBRANCH   7  24
TORSDOF 8
ENDMDL
MODEL 5
REMARK VINA RESULT: -7.107564428      3.030      7.783
REMARK  8 active torsions:
REMARK  status: ('A' for Active; 'I' for Inactive)
REMARK    1  A    between atoms: C2_2  and  N1_3 
REMARK    2  A    between atoms: C4_7  and  N3_8 
REMARK    3  A    between atoms: N4_10  and  N5_12 
REMARK    4  A    between atoms: N5_12  and  C5_14 
REMARK    5  A    between atoms: C6_15  and  O1_16 
REMARK    6  A    between atoms: N7_22  and  C9_23 
REMARK    7  A    between atoms: N10_28  and  N11_29 
REMARK    8  A    between atoms: C11_32  and  N12_33 
ROOT
HETATM    1  C5  UNL     1     117.234  54.768  16.710  1.00  0.00     0.184 A 
HETATM    2  C6  UNL     1     117.537  55.903  17.470  1.00  0.00     0.193 A 
HETATM    3  N6  UNL     1     117.305  55.542  18.766  1.00  0.00    -0.281 N 
HETATM    4  C7  UNL     1     117.494  56.432  19.896  1.00  0.00     0.163 C 
HETATM    5  C8  UNL     1     116.885  54.261  18.774  1.00  0.00     0.337 A 
HETATM    6  O2  UNL     1     116.583  53.615  19.803  1.00  0.00    -0.246 OA
HETATM    7  N7  UNL     1     116.840  53.782  17.527  1.00  0.00    -0.237 N 
ENDROOT
BRANCH   1   8
HETATM    8  N5  UNL     1     117.348  54.730  15.306  1.00  0.00    -0.267 N 
ATOM      9  H5  UNL     1     116.541  54.944  14.720  1.00  0.00     0.190 HD
BRANCH   8  10
HETATM   10  N4  UNL     1     118.559  54.399  14.724  1.00  0.00    -0.240 N 
HETATM   11  N3  UNL     1     119.295  55.143  14.046  1.00  0.00    -0.273 N 
ATOM     12  H3  UNL     1     120.157  54.726  13.694  1.00  0.00     0.190 HD
ATOM     13  H4  UNL     1     118.885  53.443  14.865  1.00  0.00     0.208 HD
BRANCH  11  14
HETATM   14  C4  UNL     1     119.075  56.495  13.709  1.00  0.00     0.123 C 
HETATM   15  N2  UNL     1     119.318  57.490  14.484  1.00  0.00    -0.352 N 
HETATM   16  C3  UNL     1     118.983  58.745  13.842  1.00  0.00     0.397 C 
ATOM     17  H2  UNL     1     119.698  57.407  15.427  1.00  0.00     0.162 HD
HETATM   18  N1  UNL     1     118.101  58.366  12.788  1.00  0.00     0.112 N 
HETATM   19  C12 UNL     1     118.528  57.050  12.424  1.00  0.00     0.351 C 
BRANCH  18  20
HETATM   20  C2  UNL     1     117.914  59.299  11.740  1.00  0.00     0.270 C 
HETATM   21  C1  UNL     1     117.949  60.743  12.110  1.00  0.00     0.037 C 
ENDBRANCH  18  20
ENDBRANCH  11  14
ENDBRANCH   8  10
ENDBRANCH   1   8
BRANCH   2  22
HETATM   22  O1  UNL     1     117.978  57.135  17.033  1.00  0.00    -0.343 OA
ATOM     23  H1  UNL     1     118.836  57.528  17.143  1.00  0.00     0.219 HD
ENDBRANCH   2  22
BRANCH   7  24
HETATM   24  C9  UNL     1     116.454  52.495  17.146  1.00  0.00     0.135 A 
HETATM   25  C10 UNL     1     117.187  51.536  16.431  1.00  0.00     0.164 A 
HETATM   26  N8  UNL     1     118.520  51.777  15.974  1.00  0.00    -0.079 NA
HETATM   27  N9  UNL     1     116.410  50.465  16.306  1.00  0.00    -0.263 N 
HETATM   28  N10 UNL     1     115.242  50.651  16.876  1.00  0.00    -0.183 N 
ATOM     29  H9  UNL     1     116.685  49.608  15.826  1.00  0.00     0.190 HD
HETATM   30  C11 UNL     1     115.240  51.882  17.398  1.00  0.00     0.169 A 
BRANCH  28  31
HETATM   31  N11 UNL     1     114.204  49.719  16.915  1.00  0.00    -0.322 N 
ATOM     32 2H11 UNL     1     114.290  48.707  17.007  1.00  0.00     0.179 HD
ATOM     33 1H11 UNL     1     113.210  49.939  16.857  1.00  0.00     0.179 HD
ENDBRANCH  28  31
BRANCH  30  34
HETATM   34  N12 UNL     1     114.245  52.393  18.033  1.00  0.00    -0.381 N 
ATOM     35 2H12 UNL     1     114.072  53.395  18.111  1.00  0.00     0.157 HD
ATOM     36 1H12 UNL     1     113.516  51.880  18.529  1.00  0.00     0.157 HD
ENDBRANCH  30  34
ENDBRANCH   7  24
TORSDOF 8
ENDMDL
