MODEL 1
REMARK VINA RESULT: -7.758633858      0.000      0.000
REMARK  8 active torsions:
REMARK  status: ('A' for Active; 'I' for Inactive)
REMARK    1  A    between atoms: N1_1  and  C1_4 
REMARK    2  A    between atoms: C2_7  and  N3_8 
REMARK    3  A    between atoms: C4_13  and  S1_14 
REMARK    4  A    between atoms: S1_14  and  C5_15 
REMARK    5  A    between atoms: C5_15  and  C6_16 
REMARK    6  A    between atoms: C6_16  and  N4_17 
REMARK    7  A    between atoms: C7_20  and  N6_21 
REMARK    8  A    between atoms: N7_24  and  N8_25 
ROOT
HETATM    1  C1  UNL     1     116.995  60.586  22.410  1.00  0.00     0.679 A 
HETATM    2  N2  UNL     1     115.795  59.985  22.510  1.00  0.00    -0.168 N 
ATOM      3  H2  UNL     1     115.227  60.133  23.345  1.00  0.00     0.186 HD
HETATM    4  C2  UNL     1     115.336  59.200  21.535  1.00  0.00     0.226 A 
HETATM    5  C3  UNL     1     116.116  59.007  20.406  1.00  0.00     0.173 A 
HETATM    6  O3  UNL     1     115.953  58.320  19.318  1.00  0.00    -0.280 OA
HETATM    7  C4  UNL     1     116.979  58.443  18.519  1.00  0.00     0.189 A 
HETATM    8  N9  UNL     1     117.860  59.249  19.111  1.00  0.00    -0.314 N 
ATOM      9  H9  UNL     1     118.764  59.533  18.732  1.00  0.00     0.170 HD
HETATM   10  C9  UNL     1     117.343  59.623  20.309  1.00  0.00     0.161 A 
HETATM   11  N10 UNL     1     117.747  60.396  21.314  1.00  0.00    -0.174 N 
ATOM     12  H10 UNL     1     118.654  60.858  21.250  1.00  0.00     0.186 HD
ENDROOT
BRANCH   7  13
HETATM   13  S1  UNL     1     117.069  57.623  16.936  1.00  0.00    -0.085 SA
BRANCH  13  14
HETATM   14  C5  UNL     1     117.287  55.846  17.118  1.00  0.00     0.105 C 
BRANCH  14  15
HETATM   15  C6  UNL     1     117.634  55.574  18.583  1.00  0.00     0.165 C 
BRANCH  15  16
HETATM   16  N4  UNL     1     116.512  54.949  19.232  1.00  0.00    -0.226 N 
HETATM   17  N5  UNL     1     115.752  55.476  20.165  1.00  0.00    -0.124 N 
HETATM   18  C7  UNL     1     114.822  54.575  20.505  1.00  0.00     0.716 A 
ATOM     19  H5  UNL     1     115.854  56.410  20.562  1.00  0.00     0.206 HD
HETATM   20  N7  UNL     1     115.019  53.475  19.763  1.00  0.00    -0.036 N 
HETATM   21  C8  UNL     1     116.068  53.715  18.976  1.00  0.00     0.377 A 
HETATM   22  O4  UNL     1     116.554  52.908  18.137  1.00  0.00    -0.242 OA
BRANCH  18  23
HETATM   23  N6  UNL     1     113.878  54.726  21.404  1.00  0.00    -0.231 N 
ATOM     24  H62 UNL     1     113.019  55.262  21.276  1.00  0.00     0.174 HD
ATOM     25  H61 UNL     1     113.867  54.335  22.346  1.00  0.00     0.174 HD
ENDBRANCH  18  23
BRANCH  20  26
HETATM   26  N8  UNL     1     114.248  52.311  19.829  1.00  0.00    -0.320 N 
ATOM     27  H82 UNL     1     113.343  52.136  19.391  1.00  0.00     0.178 HD
ATOM     28  H81 UNL     1     114.504  51.465  20.338  1.00  0.00     0.178 HD
ENDBRANCH  20  26
ENDBRANCH  15  16
ENDBRANCH  14  15
ENDBRANCH  13  14
ENDBRANCH   7  13
BRANCH   4  29
HETATM   29  N3  UNL     1     114.085  58.542  21.583  1.00  0.00    -0.094 N 
HETATM   30  O1  UNL     1     113.163  58.852  20.814  1.00  0.00    -0.530 OA
HETATM   31  O2  UNL     1     113.877  57.544  22.492  1.00  0.00    -0.530 OA
ENDBRANCH   4  29
BRANCH   1  32
HETATM   32  N1  UNL     1     117.415  61.351  23.386  1.00  0.00    -0.234 N 
ATOM     33  H12 UNL     1     116.991  61.295  24.312  1.00  0.00     0.174 HD
ATOM     34  H11 UNL     1     118.176  62.008  23.215  1.00  0.00     0.174 HD
ENDBRANCH   1  32
TORSDOF 8
ENDMDL
MODEL 2
REMARK VINA RESULT: -7.629820996      2.354      3.175
REMARK  8 active torsions:
REMARK  status: ('A' for Active; 'I' for Inactive)
REMARK    1  A    between atoms: N1_1  and  C1_4 
REMARK    2  A    between atoms: C2_7  and  N3_8 
REMARK    3  A    between atoms: C4_13  and  S1_14 
REMARK    4  A    between atoms: S1_14  and  C5_15 
REMARK    5  A    between atoms: C5_15  and  C6_16 
REMARK    6  A    between atoms: C6_16  and  N4_17 
REMARK    7  A    between atoms: C7_20  and  N6_21 
REMARK    8  A    between atoms: N7_24  and  N8_25 
ROOT
HETATM    1  C1  UNL     1     115.114  58.583  21.393  1.00  0.00     0.679 A 
HETATM    2  N2  UNL     1     114.593  57.370  21.654  1.00  0.00    -0.168 N 
ATOM      3  H2  UNL     1     113.959  57.254  22.445  1.00  0.00     0.186 HD
HETATM    4  C2  UNL     1     114.892  56.316  20.893  1.00  0.00     0.226 A 
HETATM    5  C3  UNL     1     115.754  56.485  19.822  1.00  0.00     0.173 A 
HETATM    6  O3  UNL     1     116.226  55.679  18.922  1.00  0.00    -0.280 OA
HETATM    7  C4  UNL     1     117.022  56.301  18.094  1.00  0.00     0.189 A 
HETATM    8  N9  UNL     1     117.077  57.579  18.468  1.00  0.00    -0.314 N 
ATOM      9  H9  UNL     1     117.619  58.315  18.014  1.00  0.00     0.170 HD
HETATM   10  C9  UNL     1     116.284  57.728  19.560  1.00  0.00     0.161 A 
HETATM   11  N10 UNL     1     115.948  58.743  20.353  1.00  0.00    -0.174 N 
ATOM     12  H10 UNL     1     116.335  59.668  20.166  1.00  0.00     0.186 HD
ENDROOT
BRANCH   7  13
HETATM   13  S1  UNL     1     117.836  55.474  16.738  1.00  0.00    -0.085 SA
BRANCH  13  14
HETATM   14  C5  UNL     1     116.830  54.139  16.072  1.00  0.00     0.105 C 
BRANCH  14  15
HETATM   15  C6  UNL     1     117.351  52.831  16.668  1.00  0.00     0.165 C 
BRANCH  15  16
HETATM   16  N4  UNL     1     116.262  52.117  17.281  1.00  0.00    -0.226 N 
HETATM   17  N5  UNL     1     115.565  52.499  18.328  1.00  0.00    -0.124 N 
HETATM   18  C7  UNL     1     114.646  51.559  18.583  1.00  0.00     0.716 A 
ATOM     19  H5  UNL     1     115.701  53.362  18.855  1.00  0.00     0.206 HD
HETATM   20  N7  UNL     1     114.786  50.584  17.672  1.00  0.00    -0.036 N 
HETATM   21  C8  UNL     1     115.789  50.937  16.869  1.00  0.00     0.377 A 
HETATM   22  O4  UNL     1     116.215  50.266  15.890  1.00  0.00    -0.242 OA
BRANCH  18  23
HETATM   23  N6  UNL     1     113.758  51.575  19.550  1.00  0.00    -0.231 N 
ATOM     24  H62 UNL     1     113.650  50.855  20.264  1.00  0.00     0.174 HD
ATOM     25  H61 UNL     1     113.059  52.298  19.722  1.00  0.00     0.174 HD
ENDBRANCH  18  23
BRANCH  20  26
HETATM   26  N8  UNL     1     114.006  49.425  17.608  1.00  0.00    -0.320 N 
ATOM     27  H82 UNL     1     114.021  48.627  18.243  1.00  0.00     0.178 HD
ATOM     28  H81 UNL     1     113.304  49.229  16.894  1.00  0.00     0.178 HD
ENDBRANCH  20  26
ENDBRANCH  15  16
ENDBRANCH  14  15
ENDBRANCH  13  14
ENDBRANCH   7  13
BRANCH   4  29
HETATM   29  N3  UNL     1     114.377  55.018  21.117  1.00  0.00    -0.094 N 
HETATM   30  O1  UNL     1     114.964  54.009  20.698  1.00  0.00    -0.530 OA
HETATM   31  O2  UNL     1     113.208  54.861  21.807  1.00  0.00    -0.530 OA
ENDBRANCH   4  29
BRANCH   1  32
HETATM   32  N1  UNL     1     114.799  59.597  22.160  1.00  0.00    -0.234 N 
ATOM     33  H12 UNL     1     113.888  59.641  22.618  1.00  0.00     0.174 HD
ATOM     34  H11 UNL     1     115.474  60.348  22.300  1.00  0.00     0.174 HD
ENDBRANCH   1  32
TORSDOF 8
ENDMDL
MODEL 3
REMARK VINA RESULT: -7.556287328      2.966      6.174
REMARK  8 active torsions:
REMARK  status: ('A' for Active; 'I' for Inactive)
REMARK    1  A    between atoms: N1_1  and  C1_4 
REMARK    2  A    between atoms: C2_7  and  N3_8 
REMARK    3  A    between atoms: C4_13  and  S1_14 
REMARK    4  A    between atoms: S1_14  and  C5_15 
REMARK    5  A    between atoms: C5_15  and  C6_16 
REMARK    6  A    between atoms: C6_16  and  N4_17 
REMARK    7  A    between atoms: C7_20  and  N6_21 
REMARK    8  A    between atoms: N7_24  and  N8_25 
ROOT
HETATM    1  C1  UNL     1     117.772  56.443  13.648  1.00  0.00     0.679 A 
HETATM    2  N2  UNL     1     117.666  57.472  14.510  1.00  0.00    -0.168 N 
ATOM      3  H2  UNL     1     117.766  58.427  14.167  1.00  0.00     0.186 HD
HETATM    4  C2  UNL     1     117.431  57.260  15.805  1.00  0.00     0.226 A 
HETATM    5  C3  UNL     1     117.297  55.959  16.259  1.00  0.00     0.173 A 
HETATM    6  O3  UNL     1     117.073  55.441  17.427  1.00  0.00    -0.280 OA
HETATM    7  C4  UNL     1     117.027  54.137  17.370  1.00  0.00     0.189 A 
HETATM    8  N9  UNL     1     117.232  53.779  16.103  1.00  0.00    -0.314 N 
ATOM      9  H9  UNL     1     117.254  52.824  15.745  1.00  0.00     0.170 HD
HETATM   10  C9  UNL     1     117.406  54.910  15.374  1.00  0.00     0.161 A 
HETATM   11  N10 UNL     1     117.640  55.183  14.092  1.00  0.00    -0.174 N 
ATOM     12  H10 UNL     1     117.721  54.413  13.428  1.00  0.00     0.186 HD
ENDROOT
BRANCH   7  13
HETATM   13  S1  UNL     1     116.734  53.121  18.808  1.00  0.00    -0.085 SA
BRANCH  13  14
HETATM   14  C5  UNL     1     116.585  54.111  20.303  1.00  0.00     0.105 C 
BRANCH  14  15
HETATM   15  C6  UNL     1     115.152  54.642  20.360  1.00  0.00     0.165 C 
BRANCH  15  16
HETATM   16  N4  UNL     1     115.178  56.074  20.507  1.00  0.00    -0.226 N 
HETATM   17  N5  UNL     1     115.957  56.913  19.865  1.00  0.00    -0.124 N 
HETATM   18  C7  UNL     1     115.673  58.153  20.286  1.00  0.00     0.716 A 
ATOM     19  H5  UNL     1     116.658  56.665  19.167  1.00  0.00     0.206 HD
HETATM   20  N7  UNL     1     114.699  58.065  21.204  1.00  0.00    -0.036 N 
HETATM   21  C8  UNL     1     114.398  56.774  21.336  1.00  0.00     0.377 A 
HETATM   22  O4  UNL     1     113.524  56.301  22.113  1.00  0.00    -0.242 OA
BRANCH  18  23
HETATM   23  N6  UNL     1     116.239  59.266  19.880  1.00  0.00    -0.231 N 
ATOM     24  H62 UNL     1     116.326  59.565  18.909  1.00  0.00     0.174 HD
ATOM     25  H61 UNL     1     116.666  59.980  20.470  1.00  0.00     0.174 HD
ENDBRANCH  18  23
BRANCH  20  26
HETATM   26  N8  UNL     1     114.130  59.150  21.879  1.00  0.00    -0.320 N 
ATOM     27  H82 UNL     1     114.251  59.408  22.858  1.00  0.00     0.178 HD
ATOM     28  H81 UNL     1     113.504  59.838  21.461  1.00  0.00     0.178 HD
ENDBRANCH  20  26
ENDBRANCH  15  16
ENDBRANCH  14  15
ENDBRANCH  13  14
ENDBRANCH   7  13
BRANCH   4  29
HETATM   29  N3  UNL     1     117.310  58.299  16.758  1.00  0.00    -0.094 N 
HETATM   30  O1  UNL     1     118.089  58.388  17.718  1.00  0.00    -0.530 OA
HETATM   31  O2  UNL     1     116.317  59.228  16.627  1.00  0.00    -0.530 OA
ENDBRANCH   4  29
BRANCH   1  32
HETATM   32  N1  UNL     1     118.001  56.686  12.381  1.00  0.00    -0.234 N 
ATOM     33  H12 UNL     1     118.822  57.218  12.093  1.00  0.00     0.174 HD
ATOM     34  H11 UNL     1     117.351  56.337  11.678  1.00  0.00     0.174 HD
ENDBRANCH   1  32
TORSDOF 8
ENDMDL
MODEL 4
REMARK VINA RESULT: -7.456613731      1.256      1.822
REMARK  8 active torsions:
REMARK  status: ('A' for Active; 'I' for Inactive)
REMARK    1  A    between atoms: N1_1  and  C1_4 
REMARK    2  A    between atoms: C2_7  and  N3_8 
REMARK    3  A    between atoms: C4_13  and  S1_14 
REMARK    4  A    between atoms: S1_14  and  C5_15 
REMARK    5  A    between atoms: C5_15  and  C6_16 
REMARK    6  A    between atoms: C6_16  and  N4_17 
REMARK    7  A    between atoms: C7_20  and  N6_21 
REMARK    8  A    between atoms: N7_24  and  N8_25 
ROOT
HETATM    1  C1  UNL     1     117.240  60.445  22.231  1.00  0.00     0.679 A 
HETATM    2  N2  UNL     1     116.004  59.934  22.393  1.00  0.00    -0.168 N 
ATOM      3  H2  UNL     1     115.471  60.165  23.232  1.00  0.00     0.186 HD
HETATM    4  C2  UNL     1     115.467  59.133  21.472  1.00  0.00     0.226 A 
HETATM    5  C3  UNL     1     116.200  58.827  20.338  1.00  0.00     0.173 A 
HETATM    6  O3  UNL     1     115.962  58.097  19.293  1.00  0.00    -0.280 OA
HETATM    7  C4  UNL     1     116.971  58.107  18.464  1.00  0.00     0.189 A 
HETATM    8  N9  UNL     1     117.921  58.880  18.990  1.00  0.00    -0.314 N 
ATOM      9  H9  UNL     1     118.830  59.081  18.574  1.00  0.00     0.170 HD
HETATM   10  C9  UNL     1     117.463  59.351  20.177  1.00  0.00     0.161 A 
HETATM   11  N10 UNL     1     117.947  60.147  21.129  1.00  0.00    -0.174 N 
ATOM     12  H10 UNL     1     118.881  60.541  21.018  1.00  0.00     0.186 HD
ENDROOT
BRANCH   7  13
HETATM   13  S1  UNL     1     116.961  57.201  16.926  1.00  0.00    -0.085 SA
BRANCH  13  14
HETATM   14  C5  UNL     1     117.586  55.527  17.136  1.00  0.00     0.105 C 
BRANCH  14  15
HETATM   15  C6  UNL     1     117.196  55.064  18.540  1.00  0.00     0.165 C 
BRANCH  15  16
HETATM   16  N4  UNL     1     116.426  53.852  18.447  1.00  0.00    -0.226 N 
HETATM   17  N5  UNL     1     116.439  52.988  17.458  1.00  0.00    -0.124 N 
HETATM   18  C7  UNL     1     115.584  52.000  17.753  1.00  0.00     0.716 A 
ATOM     19  H5  UNL     1     117.004  53.057  16.611  1.00  0.00     0.206 HD
HETATM   20  N7  UNL     1     115.038  52.269  18.949  1.00  0.00    -0.036 N 
HETATM   21  C8  UNL     1     115.564  53.417  19.372  1.00  0.00     0.377 A 
HETATM   22  O4  UNL     1     115.290  53.992  20.462  1.00  0.00    -0.242 OA
BRANCH  18  23
HETATM   23  N6  UNL     1     115.317  50.949  17.014  1.00  0.00    -0.231 N 
ATOM     24  H62 UNL     1     115.352  50.919  15.995  1.00  0.00     0.174 HD
ATOM     25  H61 UNL     1     115.041  50.026  17.348  1.00  0.00     0.174 HD
ENDBRANCH  18  23
BRANCH  20  26
HETATM   26  N8  UNL     1     114.094  51.469  19.600  1.00  0.00    -0.320 N 
ATOM     27  H82 UNL     1     113.085  51.449  19.451  1.00  0.00     0.178 HD
ATOM     28  H81 UNL     1     114.305  50.786  20.327  1.00  0.00     0.178 HD
ENDBRANCH  20  26
ENDBRANCH  15  16
ENDBRANCH  14  15
ENDBRANCH  13  14
ENDBRANCH   7  13
BRANCH   4  29
HETATM   29  N3  UNL     1     114.176  58.567  21.586  1.00  0.00    -0.094 N 
HETATM   30  O1  UNL     1     113.253  58.906  20.829  1.00  0.00    -0.530 OA
HETATM   31  O2  UNL     1     113.928  57.626  22.546  1.00  0.00    -0.530 OA
ENDBRANCH   4  29
BRANCH   1  32
HETATM   32  N1  UNL     1     117.737  61.229  23.154  1.00  0.00    -0.234 N 
ATOM     33  H12 UNL     1     117.341  61.246  24.094  1.00  0.00     0.174 HD
ATOM     34  H11 UNL     1     118.531  61.828  22.928  1.00  0.00     0.174 HD
ENDBRANCH   1  32
TORSDOF 8
ENDMDL
MODEL 5
REMARK VINA RESULT: -7.391673083      2.225      6.434
REMARK  8 active torsions:
REMARK  status: ('A' for Active; 'I' for Inactive)
REMARK    1  A    between atoms: N1_1  and  C1_4 
REMARK    2  A    between atoms: C2_7  and  N3_8 
REMARK    3  A    between atoms: C4_13  and  S1_14 
REMARK    4  A    between atoms: S1_14  and  C5_15 
REMARK    5  A    between atoms: C5_15  and  C6_16 
REMARK    6  A    between atoms: C6_16  and  N4_17 
REMARK    7  A    between atoms: C7_20  and  N6_21 
REMARK    8  A    between atoms: N7_24  and  N8_25 
ROOT
HETATM    1  C1  UNL     1     114.811  50.890  17.958  1.00  0.00     0.679 A 
HETATM    2  N2  UNL     1     114.625  51.676  19.035  1.00  0.00    -0.168 N 
ATOM      3  H2  UNL     1     114.040  51.345  19.803  1.00  0.00     0.186 HD
HETATM    4  C2  UNL     1     115.192  52.880  19.112  1.00  0.00     0.226 A 
HETATM    5  C3  UNL     1     115.982  53.318  18.063  1.00  0.00     0.173 A 
HETATM    6  O3  UNL     1     116.650  54.409  17.845  1.00  0.00    -0.280 OA
HETATM    7  C4  UNL     1     117.259  54.372  16.690  1.00  0.00     0.189 A 
HETATM    8  N9  UNL     1     116.977  53.202  16.119  1.00  0.00    -0.314 N 
ATOM      9  H9  UNL     1     117.308  52.882  15.209  1.00  0.00     0.170 HD
HETATM   10  C9  UNL     1     116.170  52.511  16.964  1.00  0.00     0.161 A 
HETATM   11  N10 UNL     1     115.579  51.318  16.943  1.00  0.00    -0.174 N 
ATOM     12  H10 UNL     1     115.713  50.712  16.134  1.00  0.00     0.186 HD
ENDROOT
BRANCH   7  13
HETATM   13  S1  UNL     1     118.265  55.720  16.090  1.00  0.00    -0.085 SA
BRANCH  13  14
HETATM   14  C5  UNL     1     118.403  57.039  17.306  1.00  0.00     0.105 C 
BRANCH  14  15
HETATM   15  C6  UNL     1     117.107  57.849  17.254  1.00  0.00     0.165 C 
BRANCH  15  16
HETATM   16  N4  UNL     1     116.557  57.957  18.580  1.00  0.00    -0.226 N 
HETATM   17  N5  UNL     1     115.697  57.138  19.141  1.00  0.00    -0.124 N 
HETATM   18  C7  UNL     1     115.437  57.587  20.376  1.00  0.00     0.716 A 
ATOM     19  H5  UNL     1     115.297  56.304  18.711  1.00  0.00     0.206 HD
HETATM   20  N7  UNL     1     116.154  58.704  20.570  1.00  0.00    -0.036 N 
HETATM   21  C8  UNL     1     116.846  58.927  19.453  1.00  0.00     0.377 A 
HETATM   22  O4  UNL     1     117.635  59.892  19.259  1.00  0.00    -0.242 OA
BRANCH  18  23
HETATM   23  N6  UNL     1     114.626  57.042  21.252  1.00  0.00    -0.231 N 
ATOM     24  H62 UNL     1     114.914  56.569  22.109  1.00  0.00     0.174 HD
ATOM     25  H61 UNL     1     113.608  57.014  21.203  1.00  0.00     0.174 HD
ENDBRANCH  18  23
BRANCH  20  26
HETATM   26  N8  UNL     1     116.151  59.469  21.740  1.00  0.00    -0.320 N 
ATOM     27  H82 UNL     1     116.955  59.758  22.298  1.00  0.00     0.178 HD
ATOM     28  H81 UNL     1     115.319  59.844  22.195  1.00  0.00     0.178 HD
ENDBRANCH  20  26
ENDBRANCH  15  16
ENDBRANCH  14  15
ENDBRANCH  13  14
ENDBRANCH   7  13
BRANCH   4  29
HETATM   29  N3  UNL     1     115.033  53.750  20.216  1.00  0.00    -0.094 N 
HETATM   30  O1  UNL     1     113.913  53.994  20.690  1.00  0.00    -0.530 OA
HETATM   31  O2  UNL     1     116.129  54.340  20.779  1.00  0.00    -0.530 OA
ENDBRANCH   4  29
BRANCH   1  32
HETATM   32  N1  UNL     1     114.240  49.712  17.915  1.00  0.00    -0.234 N 
ATOM     33  H12 UNL     1     114.244  49.100  18.731  1.00  0.00     0.174 HD
ATOM     34  H11 UNL     1     113.786  49.407  17.055  1.00  0.00     0.174 HD
ENDBRANCH   1  32
TORSDOF 8
ENDMDL
