MODEL 1
REMARK VINA RESULT: -7.475396751      0.000      0.000
REMARK  11 active torsions:
REMARK  status: ('A' for Active; 'I' for Inactive)
REMARK    1  A    between atoms: N2_3  and  C2_5 
REMARK    2  A    between atoms: C3_8  and  C4_9 
REMARK    3  A    between atoms: C4_9  and  O1_10 
REMARK    4  A    between atoms: C4_9  and  O2_12 
REMARK    5  A    between atoms: C5_14  and  C6_15 
REMARK    6  A    between atoms: C6_15  and  O3_16 
REMARK    7  A    between atoms: C6_15  and  N4_18 
REMARK    8  A    between atoms: N4_18  and  O4_20 
REMARK    9  A    between atoms: O4_20  and  C7_21 
REMARK   10  A    between atoms: C7_21  and  C8_23 
REMARK   11  A    between atoms: C9_29  and  N7_30 
ROOT
HETATM    1  N1  UNL     1     116.126  48.736  14.776  1.00  0.00    -0.172 NA
HETATM    2  C1  UNL     1     115.400  49.138  15.582  1.00  0.00     0.183 C 
HETATM    3  N2  UNL     1     114.531  49.645  16.578  1.00  0.00    -0.273 N 
ATOM      4  H2  UNL     1     113.641  49.196  16.795  1.00  0.00     0.180 HD
ENDROOT
BRANCH   3   5
HETATM    5  C2  UNL     1     114.937  50.731  17.211  1.00  0.00     0.159 A 
HETATM    6  N3  UNL     1     115.860  51.605  16.871  1.00  0.00    -0.334 N 
HETATM    7  C3  UNL     1     116.085  52.646  17.654  1.00  0.00     0.088 A 
ATOM      8  H3  UNL     1     116.397  51.481  16.012  1.00  0.00     0.168 HD
HETATM    9  C5  UNL     1     115.346  52.777  18.784  1.00  0.00     0.088 A 
HETATM   10  S1  UNL     1     114.336  51.342  18.665  1.00  0.00    -0.047 SA
BRANCH   7  11
HETATM   11  C4  UNL     1     117.235  53.604  17.324  1.00  0.00     0.306 C 
BRANCH  11  12
HETATM   12  O1  UNL     1     117.763  53.217  16.059  1.00  0.00    -0.366 OA
ATOM     13  H1  UNL     1     118.169  53.985  15.673  1.00  0.00     0.213 HD
ENDBRANCH  11  12
BRANCH  11  14
HETATM   14  O2  UNL     1     116.841  54.889  17.266  1.00  0.00    -0.366 OA
ATOM     15  H2  UNL     1     117.457  55.441  16.799  1.00  0.00     0.213 HD
ENDBRANCH  11  14
ENDBRANCH   7  11
BRANCH   9  16
HETATM   16  C6  UNL     1     115.256  53.762  19.860  1.00  0.00     0.180 C 
BRANCH  16  17
HETATM   17  O3  UNL     1     114.038  54.019  20.256  1.00  0.00    -0.344 OA
ATOM     18  H3  UNL     1     113.836  54.944  20.331  1.00  0.00     0.219 HD
ENDBRANCH  16  17
BRANCH  16  19
HETATM   19  N4  UNL     1     116.260  54.461  20.509  1.00  0.00    -0.234 N 
ATOM     20  H4  UNL     1     116.671  54.067  21.356  1.00  0.00     0.197 HD
BRANCH  19  21
HETATM   21  O4  UNL     1     116.725  55.694  20.038  1.00  0.00    -0.191 OA
BRANCH  21  22
HETATM   22  C7  UNL     1     115.831  56.689  19.761  1.00  0.00     0.337 C 
HETATM   23  O5  UNL     1     115.670  57.071  18.560  1.00  0.00    -0.255 OA
BRANCH  22  24
HETATM   24  C8  UNL     1     115.028  57.360  20.788  1.00  0.00     0.178 A 
HETATM   25  N5  UNL     1     114.185  56.732  21.657  1.00  0.00    -0.232 N 
HETATM   26  O6  UNL     1     113.656  57.636  22.412  1.00  0.00    -0.155 OA
ATOM     27  H5  UNL     1     114.004  55.729  21.702  1.00  0.00     0.197 HD
HETATM   28  N6  UNL     1     114.079  58.816  22.117  1.00  0.00    -0.224 N 
HETATM   29  C9  UNL     1     114.953  58.690  21.091  1.00  0.00     0.156 A 
ATOM     30  H6  UNL     1     113.805  59.687  22.573  1.00  0.00     0.198 HD
BRANCH  29  31
HETATM   31  N7  UNL     1     115.562  59.664  20.546  1.00  0.00    -0.382 N 
ATOM     32  H72 UNL     1     116.453  60.040  20.873  1.00  0.00     0.157 HD
ATOM     33  H71 UNL     1     115.286  60.213  19.732  1.00  0.00     0.157 HD
ENDBRANCH  29  31
ENDBRANCH  22  24
ENDBRANCH  21  22
ENDBRANCH  19  21
ENDBRANCH  16  19
ENDBRANCH   9  16
ENDBRANCH   3   5
TORSDOF 11
ENDMDL
MODEL 2
REMARK VINA RESULT: -7.423049183      2.608      7.165
REMARK  11 active torsions:
REMARK  status: ('A' for Active; 'I' for Inactive)
REMARK    1  A    between atoms: N2_3  and  C2_5 
REMARK    2  A    between atoms: C3_8  and  C4_9 
REMARK    3  A    between atoms: C4_9  and  O1_10 
REMARK    4  A    between atoms: C4_9  and  O2_12 
REMARK    5  A    between atoms: C5_14  and  C6_15 
REMARK    6  A    between atoms: C6_15  and  O3_16 
REMARK    7  A    between atoms: C6_15  and  N4_18 
REMARK    8  A    between atoms: N4_18  and  O4_20 
REMARK    9  A    between atoms: O4_20  and  C7_21 
REMARK   10  A    between atoms: C7_21  and  C8_23 
REMARK   11  A    between atoms: C9_29  and  N7_30 
ROOT
HETATM    1  N1  UNL     1     118.556  57.902  16.639  1.00  0.00    -0.172 NA
HETATM    2  C1  UNL     1     118.506  57.844  17.793  1.00  0.00     0.183 C 
HETATM    3  N2  UNL     1     118.419  57.769  19.205  1.00  0.00    -0.273 N 
ATOM      4  H2  UNL     1     119.186  58.066  19.808  1.00  0.00     0.180 HD
ENDROOT
BRANCH   3   5
HETATM    5  C2  UNL     1     117.290  57.292  19.697  1.00  0.00     0.159 A 
HETATM    6  N3  UNL     1     116.225  57.934  20.128  1.00  0.00    -0.334 N 
HETATM    7  C3  UNL     1     115.184  57.242  20.558  1.00  0.00     0.088 A 
ATOM      8  H3  UNL     1     116.203  58.954  20.130  1.00  0.00     0.168 HD
HETATM    9  C5  UNL     1     115.252  55.888  20.535  1.00  0.00     0.088 A 
HETATM   10  S1  UNL     1     116.869  55.668  19.880  1.00  0.00    -0.047 SA
BRANCH   7  11
HETATM   11  C4  UNL     1     113.987  57.982  21.168  1.00  0.00     0.306 C 
BRANCH  11  12
HETATM   12  O1  UNL     1     113.985  57.711  22.566  1.00  0.00    -0.366 OA
ATOM     13  H1  UNL     1     114.325  58.481  23.006  1.00  0.00     0.213 HD
ENDBRANCH  11  12
BRANCH  11  14
HETATM   14  O2  UNL     1     114.045  59.312  20.975  1.00  0.00    -0.366 OA
ATOM     15  H2  UNL     1     113.208  59.682  20.719  1.00  0.00     0.213 HD
ENDBRANCH  11  14
ENDBRANCH   7  11
BRANCH   9  16
HETATM   16  C6  UNL     1     114.342  54.795  20.872  1.00  0.00     0.180 C 
BRANCH  16  17
HETATM   17  O3  UNL     1     113.456  55.092  21.785  1.00  0.00    -0.344 OA
ATOM     18  H3  UNL     1     113.670  54.782  22.656  1.00  0.00     0.219 HD
ENDBRANCH  16  17
BRANCH  16  19
HETATM   19  N4  UNL     1     114.285  53.503  20.378  1.00  0.00    -0.234 N 
ATOM     20  H4  UNL     1     114.046  52.740  21.011  1.00  0.00     0.197 HD
BRANCH  19  21
HETATM   21  O4  UNL     1     114.547  53.215  19.033  1.00  0.00    -0.191 OA
BRANCH  21  22
HETATM   22  C7  UNL     1     115.397  52.193  18.718  1.00  0.00     0.337 C 
HETATM   23  O5  UNL     1     116.597  52.225  19.135  1.00  0.00    -0.255 OA
BRANCH  22  24
HETATM   24  C8  UNL     1     115.002  51.036  17.908  1.00  0.00     0.178 A 
HETATM   25  N5  UNL     1     113.910  50.252  18.144  1.00  0.00    -0.232 N 
HETATM   26  O6  UNL     1     113.880  49.339  17.231  1.00  0.00    -0.155 OA
ATOM     27  H5  UNL     1     113.239  50.366  18.904  1.00  0.00     0.197 HD
HETATM   28  N6  UNL     1     114.863  49.452  16.406  1.00  0.00    -0.224 N 
HETATM   29  C9  UNL     1     115.602  50.517  16.796  1.00  0.00     0.156 A 
ATOM     30  H6  UNL     1     115.049  48.850  15.604  1.00  0.00     0.198 HD
BRANCH  29  31
HETATM   31  N7  UNL     1     116.653  50.916  16.202  1.00  0.00    -0.382 N 
ATOM     32  H72 UNL     1     117.376  51.489  16.636  1.00  0.00     0.157 HD
ATOM     33  H71 UNL     1     116.944  50.744  15.240  1.00  0.00     0.157 HD
ENDBRANCH  29  31
ENDBRANCH  22  24
ENDBRANCH  21  22
ENDBRANCH  19  21
ENDBRANCH  16  19
ENDBRANCH   9  16
ENDBRANCH   3   5
TORSDOF 11
ENDMDL
MODEL 3
REMARK VINA RESULT: -7.287815857      2.587      6.891
REMARK  11 active torsions:
REMARK  status: ('A' for Active; 'I' for Inactive)
REMARK    1  A    between atoms: N2_3  and  C2_5 
REMARK    2  A    between atoms: C3_8  and  C4_9 
REMARK    3  A    between atoms: C4_9  and  O1_10 
REMARK    4  A    between atoms: C4_9  and  O2_12 
REMARK    5  A    between atoms: C5_14  and  C6_15 
REMARK    6  A    between atoms: C6_15  and  O3_16 
REMARK    7  A    between atoms: C6_15  and  N4_18 
REMARK    8  A    between atoms: N4_18  and  O4_20 
REMARK    9  A    between atoms: O4_20  and  C7_21 
REMARK   10  A    between atoms: C7_21  and  C8_23 
REMARK   11  A    between atoms: C9_29  and  N7_30 
ROOT
HETATM    1  N1  UNL     1     113.635  57.602  21.838  1.00  0.00    -0.172 NA
HETATM    2  C1  UNL     1     114.678  57.960  21.487  1.00  0.00     0.183 C 
HETATM    3  N2  UNL     1     115.953  58.380  21.038  1.00  0.00    -0.273 N 
ATOM      4  H2  UNL     1     116.556  58.973  21.609  1.00  0.00     0.180 HD
ENDROOT
BRANCH   3   5
HETATM    5  C2  UNL     1     116.319  57.962  19.840  1.00  0.00     0.159 A 
HETATM    6  N3  UNL     1     116.465  58.641  18.722  1.00  0.00    -0.334 N 
HETATM    7  C3  UNL     1     116.872  58.013  17.633  1.00  0.00     0.088 A 
ATOM      8  H3  UNL     1     116.267  59.642  18.697  1.00  0.00     0.168 HD
HETATM    9  C5  UNL     1     117.130  56.684  17.710  1.00  0.00     0.088 A 
HETATM   10  S1  UNL     1     116.753  56.391  19.403  1.00  0.00    -0.047 SA
BRANCH   7  11
HETATM   11  C4  UNL     1     116.934  58.773  16.302  1.00  0.00     0.306 C 
BRANCH  11  12
HETATM   12  O1  UNL     1     115.702  59.471  16.152  1.00  0.00    -0.366 OA
ATOM     13  H1  UNL     1     115.355  59.627  17.022  1.00  0.00     0.213 HD
ENDBRANCH  11  12
BRANCH  11  14
HETATM   14  O2  UNL     1     117.951  59.652  16.253  1.00  0.00    -0.366 OA
ATOM     15  H2  UNL     1     118.797  59.230  16.166  1.00  0.00     0.213 HD
ENDBRANCH  11  14
ENDBRANCH   7  11
BRANCH   9  16
HETATM   16  C6  UNL     1     117.616  55.663  16.785  1.00  0.00     0.180 C 
BRANCH  16  17
HETATM   17  O3  UNL     1     118.700  55.995  16.135  1.00  0.00    -0.344 OA
ATOM     18  H3  UNL     1     118.824  56.931  16.030  1.00  0.00     0.219 HD
ENDBRANCH  16  17
BRANCH  16  19
HETATM   19  N4  UNL     1     117.101  54.411  16.493  1.00  0.00    -0.234 N 
ATOM     20  H4  UNL     1     116.553  54.287  15.641  1.00  0.00     0.197 HD
BRANCH  19  21
HETATM   21  O4  UNL     1     117.309  53.312  17.334  1.00  0.00    -0.191 OA
BRANCH  21  22
HETATM   22  C7  UNL     1     116.382  52.309  17.372  1.00  0.00     0.337 C 
HETATM   23  O5  UNL     1     116.401  51.404  16.480  1.00  0.00    -0.255 OA
BRANCH  22  24
HETATM   24  C8  UNL     1     115.343  52.211  18.401  1.00  0.00     0.178 A 
HETATM   25  N5  UNL     1     115.085  53.160  19.347  1.00  0.00    -0.232 N 
HETATM   26  O6  UNL     1     114.107  52.733  20.073  1.00  0.00    -0.155 OA
ATOM     27  H5  UNL     1     115.578  54.046  19.461  1.00  0.00     0.197 HD
HETATM   28  N6  UNL     1     113.690  51.577  19.687  1.00  0.00    -0.224 N 
HETATM   29  C9  UNL     1     114.446  51.205  18.627  1.00  0.00     0.156 A 
ATOM     30  H6  UNL     1     112.930  51.039  20.104  1.00  0.00     0.198 HD
BRANCH  29  31
HETATM   31  N7  UNL     1     114.305  50.111  17.997  1.00  0.00    -0.382 N 
ATOM     32  H72 UNL     1     113.920  50.035  17.055  1.00  0.00     0.157 HD
ATOM     33  H71 UNL     1     114.538  49.166  18.302  1.00  0.00     0.157 HD
ENDBRANCH  29  31
ENDBRANCH  22  24
ENDBRANCH  21  22
ENDBRANCH  19  21
ENDBRANCH  16  19
ENDBRANCH   9  16
ENDBRANCH   3   5
TORSDOF 11
ENDMDL
MODEL 4
REMARK VINA RESULT: -7.202306411      2.962      8.219
REMARK  11 active torsions:
REMARK  status: ('A' for Active; 'I' for Inactive)
REMARK    1  A    between atoms: N2_3  and  C2_5 
REMARK    2  A    between atoms: C3_8  and  C4_9 
REMARK    3  A    between atoms: C4_9  and  O1_10 
REMARK    4  A    between atoms: C4_9  and  O2_12 
REMARK    5  A    between atoms: C5_14  and  C6_15 
REMARK    6  A    between atoms: C6_15  and  O3_16 
REMARK    7  A    between atoms: C6_15  and  N4_18 
REMARK    8  A    between atoms: N4_18  and  O4_20 
REMARK    9  A    between atoms: O4_20  and  C7_21 
REMARK   10  A    between atoms: C7_21  and  C8_23 
REMARK   11  A    between atoms: C9_29  and  N7_30 
ROOT
HETATM    1  N1  UNL     1     119.864  62.024  21.941  1.00  0.00    -0.172 NA
HETATM    2  C1  UNL     1     118.889  61.599  22.395  1.00  0.00     0.183 C 
HETATM    3  N2  UNL     1     117.689  61.068  22.928  1.00  0.00    -0.273 N 
ATOM      4  H2  UNL     1     117.330  61.357  23.838  1.00  0.00     0.180 HD
ENDROOT
BRANCH   3   5
HETATM    5  C2  UNL     1     117.062  60.177  22.182  1.00  0.00     0.159 A 
HETATM    6  N3  UNL     1     115.810  59.772  22.232  1.00  0.00    -0.334 N 
HETATM    7  C3  UNL     1     115.385  58.877  21.356  1.00  0.00     0.088 A 
ATOM      8  H3  UNL     1     115.175  60.144  22.938  1.00  0.00     0.168 HD
HETATM    9  C5  UNL     1     116.260  58.411  20.431  1.00  0.00     0.088 A 
HETATM   10  S1  UNL     1     117.703  59.307  20.885  1.00  0.00    -0.047 SA
BRANCH   7  11
HETATM   11  C4  UNL     1     113.964  58.316  21.481  1.00  0.00     0.306 C 
BRANCH  11  12
HETATM   12  O1  UNL     1     114.039  57.133  22.269  1.00  0.00    -0.366 OA
ATOM     13  H1  UNL     1     114.683  56.563  21.867  1.00  0.00     0.213 HD
ENDBRANCH  11  12
BRANCH  11  14
HETATM   14  O2  UNL     1     113.112  59.182  22.060  1.00  0.00    -0.366 OA
ATOM     15  H2  UNL     1     113.555  59.830  22.596  1.00  0.00     0.213 HD
ENDBRANCH  11  14
ENDBRANCH   7  11
BRANCH   9  16
HETATM   16  C6  UNL     1     116.186  57.482  19.304  1.00  0.00     0.180 C 
BRANCH  16  17
HETATM   17  O3  UNL     1     116.108  58.058  18.134  1.00  0.00    -0.344 OA
ATOM     18  H3  UNL     1     116.315  57.489  17.402  1.00  0.00     0.219 HD
ENDBRANCH  16  17
BRANCH  16  19
HETATM   19  N4  UNL     1     116.180  56.098  19.295  1.00  0.00    -0.234 N 
ATOM     20  H4  UNL     1     116.421  55.607  18.434  1.00  0.00     0.197 HD
BRANCH  19  21
HETATM   21  O4  UNL     1     115.851  55.353  20.433  1.00  0.00    -0.191 OA
BRANCH  21  22
HETATM   22  C7  UNL     1     115.007  54.285  20.318  1.00  0.00     0.337 C 
HETATM   23  O5  UNL     1     113.901  54.291  20.943  1.00  0.00    -0.255 OA
BRANCH  22  24
HETATM   24  C8  UNL     1     115.306  53.106  19.499  1.00  0.00     0.178 A 
HETATM   25  N5  UNL     1     116.545  52.762  19.044  1.00  0.00    -0.232 N 
HETATM   26  O6  UNL     1     116.425  51.670  18.366  1.00  0.00    -0.155 OA
ATOM     27  H5  UNL     1     117.412  53.276  19.210  1.00  0.00     0.197 HD
HETATM   28  N6  UNL     1     115.205  51.258  18.333  1.00  0.00    -0.224 N 
HETATM   29  C9  UNL     1     114.458  52.138  19.040  1.00  0.00     0.156 A 
ATOM     30  H6  UNL     1     114.864  50.420  17.860  1.00  0.00     0.198 HD
BRANCH  29  31
HETATM   31  N7  UNL     1     113.203  52.036  19.212  1.00  0.00    -0.382 N 
ATOM     32  H72 UNL     1     112.557  51.655  18.520  1.00  0.00     0.157 HD
ATOM     33  H71 UNL     1     112.648  52.303  20.025  1.00  0.00     0.157 HD
ENDBRANCH  29  31
ENDBRANCH  22  24
ENDBRANCH  21  22
ENDBRANCH  19  21
ENDBRANCH  16  19
ENDBRANCH   9  16
ENDBRANCH   3   5
TORSDOF 11
ENDMDL
MODEL 5
REMARK VINA RESULT: -7.176499216      2.523      8.035
REMARK  11 active torsions:
REMARK  status: ('A' for Active; 'I' for Inactive)
REMARK    1  A    between atoms: N2_3  and  C2_5 
REMARK    2  A    between atoms: C3_8  and  C4_9 
REMARK    3  A    between atoms: C4_9  and  O1_10 
REMARK    4  A    between atoms: C4_9  and  O2_12 
REMARK    5  A    between atoms: C5_14  and  C6_15 
REMARK    6  A    between atoms: C6_15  and  O3_16 
REMARK    7  A    between atoms: C6_15  and  N4_18 
REMARK    8  A    between atoms: N4_18  and  O4_20 
REMARK    9  A    between atoms: O4_20  and  C7_21 
REMARK   10  A    between atoms: C7_21  and  C8_23 
REMARK   11  A    between atoms: C9_29  and  N7_30 
ROOT
HETATM    1  N1  UNL     1     117.517  62.555  20.603  1.00  0.00    -0.172 NA
HETATM    2  C1  UNL     1     117.884  61.518  20.962  1.00  0.00     0.183 C 
HETATM    3  N2  UNL     1     118.308  60.239  21.397  1.00  0.00    -0.273 N 
ATOM      4  H2  UNL     1     119.187  60.104  21.895  1.00  0.00     0.180 HD
ENDROOT
BRANCH   3   5
HETATM    5  C2  UNL     1     117.501  59.230  21.122  1.00  0.00     0.159 A 
HETATM    6  N3  UNL     1     116.197  59.131  21.276  1.00  0.00    -0.334 N 
HETATM    7  C3  UNL     1     115.584  58.022  20.902  1.00  0.00     0.088 A 
ATOM      8  H3  UNL     1     115.666  59.903  21.680  1.00  0.00     0.168 HD
HETATM    9  C5  UNL     1     116.326  57.022  20.364  1.00  0.00     0.088 A 
HETATM   10  S1  UNL     1     117.926  57.749  20.434  1.00  0.00    -0.047 SA
BRANCH   7  11
HETATM   11  C4  UNL     1     114.086  57.855  21.185  1.00  0.00     0.306 C 
BRANCH  11  12
HETATM   12  O1  UNL     1     113.928  57.749  22.596  1.00  0.00    -0.366 OA
ATOM     13  H1  UNL     1     114.597  58.289  22.999  1.00  0.00     0.213 HD
ENDBRANCH  11  12
BRANCH  11  14
HETATM   14  O2  UNL     1     113.354  58.889  20.733  1.00  0.00    -0.366 OA
ATOM     15  H2  UNL     1     112.420  58.724  20.777  1.00  0.00     0.213 HD
ENDBRANCH  11  14
ENDBRANCH   7  11
BRANCH   9  16
HETATM   16  C6  UNL     1     116.044  55.700  19.808  1.00  0.00     0.180 C 
BRANCH  16  17
HETATM   17  O3  UNL     1     116.640  55.453  18.672  1.00  0.00    -0.344 OA
ATOM     18  H3  UNL     1     116.167  55.757  17.907  1.00  0.00     0.219 HD
ENDBRANCH  16  17
BRANCH  16  19
HETATM   19  N4  UNL     1     115.242  54.684  20.299  1.00  0.00    -0.234 N 
ATOM     20  H4  UNL     1     114.449  54.922  20.895  1.00  0.00     0.197 HD
BRANCH  19  21
HETATM   21  O4  UNL     1     115.489  53.339  20.001  1.00  0.00    -0.191 OA
BRANCH  21  22
HETATM   22  C7  UNL     1     114.591  52.642  19.244  1.00  0.00     0.337 C 
HETATM   23  O5  UNL     1     113.348  52.750  19.488  1.00  0.00    -0.255 OA
BRANCH  22  24
HETATM   24  C8  UNL     1     114.980  51.756  18.143  1.00  0.00     0.178 A 
HETATM   25  N5  UNL     1     114.329  50.609  17.792  1.00  0.00    -0.232 N 
HETATM   26  O6  UNL     1     114.950  50.099  16.782  1.00  0.00    -0.155 OA
ATOM     27  H5  UNL     1     113.500  50.225  18.246  1.00  0.00     0.197 HD
HETATM   28  N6  UNL     1     115.963  50.812  16.431  1.00  0.00    -0.224 N 
HETATM   29  C9  UNL     1     116.021  51.876  17.266  1.00  0.00     0.156 A 
ATOM     30  H6  UNL     1     116.604  50.613  15.663  1.00  0.00     0.198 HD
BRANCH  29  31
HETATM   31  N7  UNL     1     116.905  52.788  17.204  1.00  0.00    -0.382 N 
ATOM     32  H72 UNL     1     117.905  52.614  17.099  1.00  0.00     0.157 HD
ATOM     33  H71 UNL     1     116.780  53.799  17.246  1.00  0.00     0.157 HD
ENDBRANCH  29  31
ENDBRANCH  22  24
ENDBRANCH  21  22
ENDBRANCH  19  21
ENDBRANCH  16  19
ENDBRANCH   9  16
ENDBRANCH   3   5
TORSDOF 11
ENDMDL
