MODEL 1
REMARK VINA RESULT: -7.784491720      0.000      0.000
REMARK  8 active torsions:
REMARK  status: ('A' for Active; 'I' for Inactive)
REMARK    1  A    between atoms: S1_2  and  N1_4 
REMARK    2  A    between atoms: S1_2  and  C21_33 
REMARK    3  A    between atoms: N1_4  and  C1_6 
REMARK    4  A    between atoms: C3_8  and  C4_9 
REMARK    5  A    between atoms: C4_9  and  S2_10 
REMARK    6  A    between atoms: C4_9  and  C10_18 
REMARK    7  A    between atoms: S2_10  and  C5_11 
REMARK    8  A    between atoms: C20_30  and  O3_31 
ROOT
HETATM    1  C1  UNL     1      48.752  11.777  -1.730  1.00  0.00     0.076 A 
HETATM    2  C2  UNL     1      47.458  12.242  -1.802  1.00  0.00     0.041 A 
HETATM    3  C3  UNL     1      46.631  12.164  -0.702  1.00  0.00    -0.037 A 
HETATM    4  C18 UNL     1      47.118  11.618   0.457  1.00  0.00     0.011 A 
HETATM    5  C19 UNL     1      48.409  11.147   0.555  1.00  0.00     0.039 A 
HETATM    6  C20 UNL     1      49.228  11.226  -0.538  1.00  0.00     0.092 A 
ENDROOT
BRANCH   3   7
HETATM    7  C4  UNL     1      45.222  12.651  -0.713  1.00  0.00     0.122 C 
BRANCH   7   8
HETATM    8  S2  UNL     1      44.679  12.696   0.994  1.00  0.00    -0.098 SA
BRANCH   8   9
HETATM    9  C5  UNL     1      44.901  14.382   1.604  1.00  0.00     0.070 A 
HETATM   10  C6  UNL     1      45.918  14.711   2.475  1.00  0.00     0.037 A 
HETATM   11  C7  UNL     1      46.060  15.993   2.917  1.00  0.00     0.004 A 
HETATM   12  C8  UNL     1      45.193  16.985   2.504  1.00  0.00     0.017 A 
HETATM   13  C9  UNL     1      44.188  16.648   1.640  1.00  0.00     0.089 A 
HETATM   14  N2  UNL     1      44.066  15.381   1.216  1.00  0.00    -0.361 N 
ATOM     15  H2  UNL     1      43.308  15.156   0.572  1.00  0.00     0.165 HD
ENDBRANCH   8   9
ENDBRANCH   7   8
BRANCH   7  16
HETATM   16  C10 UNL     1      44.385  11.898  -1.639  1.00  0.00    -0.012 A 
HETATM   17  C11 UNL     1      43.855  12.460  -2.779  1.00  0.00     0.098 A 
HETATM   18  N3  UNL     1      43.164  11.495  -3.402  1.00  0.00    -0.365 N 
HETATM   19  C12 UNL     1      43.230  10.349  -2.711  1.00  0.00     0.043 A 
ATOM     20  H3  UNL     1      42.659  11.617  -4.280  1.00  0.00     0.165 HD
HETATM   21  C13 UNL     1      42.671   9.118  -2.978  1.00  0.00     0.030 A 
HETATM   22  C17 UNL     1      44.003  10.606  -1.593  1.00  0.00    -0.000 A 
HETATM   23  C14 UNL     1      42.860   8.063  -2.121  1.00  0.00     0.002 A 
HETATM   24  C15 UNL     1      43.628   8.298  -1.001  1.00  0.00     0.001 A 
HETATM   25  C16 UNL     1      44.190   9.525  -0.728  1.00  0.00     0.014 A 
ENDBRANCH   7  16
ENDBRANCH   3   7
BRANCH   1  26
HETATM   26  N1  UNL     1      49.636  11.862  -2.826  1.00  0.00    -0.278 N 
ATOM     27  H1  UNL     1      49.568  11.121  -3.523  1.00  0.00     0.179 HD
BRANCH  26  28
HETATM   28  S1  UNL     1      50.806  13.066  -3.112  1.00  0.00     0.263 S 
HETATM   29  O1  UNL     1      51.736  13.080  -1.925  1.00  0.00    -0.200 OA
HETATM   30  O2  UNL     1      51.660  12.647  -4.305  1.00  0.00    -0.200 OA
BRANCH  28  31
HETATM   31  C21 UNL     1      50.184  14.653  -3.354  1.00  0.00     0.080 A 
HETATM   32  C22 UNL     1      48.927  14.921  -3.811  1.00  0.00     0.027 A 
HETATM   33  C23 UNL     1      48.482  16.209  -3.982  1.00  0.00     0.025 A 
HETATM   34  C24 UNL     1      49.311  17.264  -3.690  1.00  0.00     0.034 A 
HETATM   35 CL1  UNL     1      48.745  18.907  -3.906  1.00  0.00    -0.084 Cl
HETATM   36  C25 UNL     1      50.593  17.036  -3.224  1.00  0.00     0.025 A 
HETATM   37  C26 UNL     1      51.013  15.733  -3.062  1.00  0.00     0.027 A 
ENDBRANCH  28  31
ENDBRANCH  26  28
ENDBRANCH   1  26
BRANCH   6  38
HETATM   38  O3  UNL     1      50.526  10.751  -0.438  1.00  0.00    -0.358 OA
ATOM     39  H3  UNL     1      50.754   9.881  -0.743  1.00  0.00     0.217 HD
ENDBRANCH   6  38
TORSDOF 8
ENDMDL
MODEL 2
REMARK VINA RESULT: -7.773380868      5.035      8.676
REMARK  8 active torsions:
REMARK  status: ('A' for Active; 'I' for Inactive)
REMARK    1  A    between atoms: S1_2  and  N1_4 
REMARK    2  A    between atoms: S1_2  and  C21_33 
REMARK    3  A    between atoms: N1_4  and  C1_6 
REMARK    4  A    between atoms: C3_8  and  C4_9 
REMARK    5  A    between atoms: C4_9  and  S2_10 
REMARK    6  A    between atoms: C4_9  and  C10_18 
REMARK    7  A    between atoms: S2_10  and  C5_11 
REMARK    8  A    between atoms: C20_30  and  O3_31 
ROOT
HETATM    1  C1  UNL     1      48.534   9.335   1.146  1.00  0.00     0.076 A 
HETATM    2  C2  UNL     1      47.337   9.949   1.441  1.00  0.00     0.041 A 
HETATM    3  C3  UNL     1      47.013  11.152   0.853  1.00  0.00    -0.037 A 
HETATM    4  C18 UNL     1      47.897  11.722  -0.026  1.00  0.00     0.011 A 
HETATM    5  C19 UNL     1      49.100  11.128  -0.338  1.00  0.00     0.039 A 
HETATM    6  C20 UNL     1      49.420   9.933   0.247  1.00  0.00     0.092 A 
ENDROOT
BRANCH   3   7
HETATM    7  C4  UNL     1      45.734  11.867   1.126  1.00  0.00     0.122 C 
BRANCH   7   8
HETATM    8  S2  UNL     1      44.977  12.197  -0.464  1.00  0.00    -0.098 SA
BRANCH   8   9
HETATM    9  C5  UNL     1      44.314  10.640  -1.099  1.00  0.00     0.070 A 
HETATM   10  C6  UNL     1      44.225   9.514  -0.309  1.00  0.00     0.037 A 
HETATM   11  C7  UNL     1      43.721   8.354  -0.816  1.00  0.00     0.004 A 
HETATM   12  C8  UNL     1      43.290   8.282  -2.126  1.00  0.00     0.017 A 
HETATM   13  C9  UNL     1      43.382   9.405  -2.901  1.00  0.00     0.089 A 
HETATM   14  N2  UNL     1      43.882  10.537  -2.382  1.00  0.00    -0.361 N 
ATOM     15  H2  UNL     1      43.940  11.360  -2.981  1.00  0.00     0.165 HD
ENDBRANCH   8   9
ENDBRANCH   7   8
BRANCH   7  16
HETATM   16  C10 UNL     1      45.920  13.015   2.005  1.00  0.00    -0.012 A 
HETATM   17  C11 UNL     1      46.748  12.975   3.105  1.00  0.00     0.098 A 
HETATM   18  N3  UNL     1      46.704  14.191   3.668  1.00  0.00    -0.365 N 
HETATM   19  C12 UNL     1      45.886  14.998   2.978  1.00  0.00     0.043 A 
ATOM     20  H3  UNL     1      47.220  14.464   4.505  1.00  0.00     0.165 HD
HETATM   21  C13 UNL     1      45.544  16.315   3.200  1.00  0.00     0.030 A 
HETATM   22  C17 UNL     1      45.389  14.251   1.925  1.00  0.00    -0.000 A 
HETATM   23  C14 UNL     1      44.669  16.962   2.363  1.00  0.00     0.002 A 
HETATM   24  C15 UNL     1      44.163  16.234   1.306  1.00  0.00     0.001 A 
HETATM   25  C16 UNL     1      44.501  14.919   1.079  1.00  0.00     0.014 A 
ENDBRANCH   7  16
ENDBRANCH   3   7
BRANCH   1  26
HETATM   26  N1  UNL     1      48.892   8.091   1.708  1.00  0.00    -0.278 N 
ATOM     27  H1  UNL     1      48.457   7.265   1.298  1.00  0.00     0.179 HD
BRANCH  26  28
HETATM   28  S1  UNL     1      49.971   7.819   2.997  1.00  0.00     0.263 S 
HETATM   29  O1  UNL     1      51.362   8.089   2.484  1.00  0.00    -0.200 OA
HETATM   30  O2  UNL     1      49.716   8.865   4.079  1.00  0.00    -0.200 OA
BRANCH  28  31
HETATM   31  C21 UNL     1      49.922   6.238   3.676  1.00  0.00     0.080 A 
HETATM   32  C22 UNL     1      49.106   5.239   3.231  1.00  0.00     0.027 A 
HETATM   33  C23 UNL     1      49.112   3.993   3.809  1.00  0.00     0.025 A 
HETATM   34  C24 UNL     1      49.954   3.731   4.862  1.00  0.00     0.034 A 
HETATM   35 CL1  UNL     1      49.964   2.144   5.601  1.00  0.00    -0.084 Cl
HETATM   36  C25 UNL     1      50.796   4.717   5.344  1.00  0.00     0.025 A 
HETATM   37  C26 UNL     1      50.770   5.957   4.745  1.00  0.00     0.027 A 
ENDBRANCH  28  31
ENDBRANCH  26  28
ENDBRANCH   1  26
BRANCH   6  38
HETATM   38  O3  UNL     1      50.631   9.336  -0.068  1.00  0.00    -0.358 OA
ATOM     39  H3  UNL     1      51.157   9.648  -0.795  1.00  0.00     0.217 HD
ENDBRANCH   6  38
TORSDOF 8
ENDMDL
MODEL 3
REMARK VINA RESULT: -7.727950383      5.260      7.376
REMARK  8 active torsions:
REMARK  status: ('A' for Active; 'I' for Inactive)
REMARK    1  A    between atoms: S1_2  and  N1_4 
REMARK    2  A    between atoms: S1_2  and  C21_33 
REMARK    3  A    between atoms: N1_4  and  C1_6 
REMARK    4  A    between atoms: C3_8  and  C4_9 
REMARK    5  A    between atoms: C4_9  and  S2_10 
REMARK    6  A    between atoms: C4_9  and  C10_18 
REMARK    7  A    between atoms: S2_10  and  C5_11 
REMARK    8  A    between atoms: C20_30  and  O3_31 
ROOT
HETATM    1  C1  UNL     1      49.078   8.778   1.219  1.00  0.00     0.076 A 
HETATM    2  C2  UNL     1      48.127   9.770   1.298  1.00  0.00     0.041 A 
HETATM    3  C3  UNL     1      47.966  10.659   0.257  1.00  0.00    -0.037 A 
HETATM    4  C18 UNL     1      48.765  10.538  -0.850  1.00  0.00     0.011 A 
HETATM    5  C19 UNL     1      49.723   9.554  -0.953  1.00  0.00     0.039 A 
HETATM    6  C20 UNL     1      49.881   8.672   0.081  1.00  0.00     0.092 A 
ENDROOT
BRANCH   3   7
HETATM    7  C4  UNL     1      46.954  11.753   0.277  1.00  0.00     0.122 C 
BRANCH   7   8
HETATM    8  S2  UNL     1      46.443  11.952   1.984  1.00  0.00    -0.098 SA
BRANCH   8   9
HETATM    9  C5  UNL     1      45.989  13.684   2.229  1.00  0.00     0.070 A 
HETATM   10  C6  UNL     1      46.787  14.549   2.946  1.00  0.00     0.037 A 
HETATM   11  C7  UNL     1      46.418  15.850   3.114  1.00  0.00     0.004 A 
HETATM   12  C8  UNL     1      45.241  16.328   2.573  1.00  0.00     0.017 A 
HETATM   13  C9  UNL     1      44.456  15.461   1.863  1.00  0.00     0.089 A 
HETATM   14  N2  UNL     1      44.838  14.184   1.709  1.00  0.00    -0.361 N 
ATOM     15  H2  UNL     1      44.235  13.558   1.176  1.00  0.00     0.165 HD
ENDBRANCH   8   9
ENDBRANCH   7   8
BRANCH   7  16
HETATM   16  C10 UNL     1      45.890  11.538  -0.695  1.00  0.00    -0.012 A 
HETATM   17  C11 UNL     1      45.616  12.439  -1.701  1.00  0.00     0.098 A 
HETATM   18  N3  UNL     1      44.606  11.926  -2.417  1.00  0.00    -0.365 N 
HETATM   19  C12 UNL     1      44.225  10.744  -1.913  1.00  0.00     0.043 A 
ATOM     20  H3  UNL     1      44.186  12.373  -3.233  1.00  0.00     0.165 HD
HETATM   21  C13 UNL     1      43.234   9.881  -2.326  1.00  0.00     0.030 A 
HETATM   22  C17 UNL     1      45.039  10.501  -0.821  1.00  0.00    -0.000 A 
HETATM   23  C14 UNL     1      43.002   8.708  -1.652  1.00  0.00     0.002 A 
HETATM   24  C15 UNL     1      43.803   8.446  -0.560  1.00  0.00     0.001 A 
HETATM   25  C16 UNL     1      44.795   9.304  -0.143  1.00  0.00     0.014 A 
ENDBRANCH   7  16
ENDBRANCH   3   7
BRANCH   1  26
HETATM   26  N1  UNL     1      49.257   7.834   2.252  1.00  0.00    -0.278 N 
ATOM     27  H1  UNL     1      48.595   7.059   2.280  1.00  0.00     0.179 HD
BRANCH  26  28
HETATM   28  S1  UNL     1      50.459   7.847   3.459  1.00  0.00     0.263 S 
HETATM   29  O1  UNL     1      51.763   8.199   2.791  1.00  0.00    -0.200 OA
HETATM   30  O2  UNL     1      50.167   8.988   4.430  1.00  0.00    -0.200 OA
BRANCH  28  31
HETATM   31  C21 UNL     1      50.653   6.369   4.320  1.00  0.00     0.080 A 
HETATM   32  C22 UNL     1      49.637   5.494   4.577  1.00  0.00     0.027 A 
HETATM   33  C23 UNL     1      49.850   4.326   5.267  1.00  0.00     0.025 A 
HETATM   34  C24 UNL     1      51.111   4.016   5.715  1.00  0.00     0.034 A 
HETATM   35 CL1  UNL     1      51.386   2.527   6.594  1.00  0.00    -0.084 Cl
HETATM   36  C25 UNL     1      52.167   4.876   5.476  1.00  0.00     0.025 A 
HETATM   37  C26 UNL     1      51.925   6.041   4.782  1.00  0.00     0.027 A 
ENDBRANCH  28  31
ENDBRANCH  26  28
ENDBRANCH   1  26
BRANCH   6  38
HETATM   38  O3  UNL     1      50.846   7.682  -0.024  1.00  0.00    -0.358 OA
ATOM     39  H3  UNL     1      51.743   7.895  -0.252  1.00  0.00     0.217 HD
ENDBRANCH   6  38
TORSDOF 8
ENDMDL
MODEL 4
REMARK VINA RESULT: -7.723583861      4.437      6.570
REMARK  8 active torsions:
REMARK  status: ('A' for Active; 'I' for Inactive)
REMARK    1  A    between atoms: S1_2  and  N1_4 
REMARK    2  A    between atoms: S1_2  and  C21_33 
REMARK    3  A    between atoms: N1_4  and  C1_6 
REMARK    4  A    between atoms: C3_8  and  C4_9 
REMARK    5  A    between atoms: C4_9  and  S2_10 
REMARK    6  A    between atoms: C4_9  and  C10_18 
REMARK    7  A    between atoms: S2_10  and  C5_11 
REMARK    8  A    between atoms: C20_30  and  O3_31 
ROOT
HETATM    1  C1  UNL     1      48.153  10.236   0.871  1.00  0.00     0.076 A 
HETATM    2  C2  UNL     1      46.932  10.864   0.764  1.00  0.00     0.041 A 
HETATM    3  C3  UNL     1      46.696  11.747  -0.267  1.00  0.00    -0.037 A 
HETATM    4  C18 UNL     1      47.692  11.987  -1.178  1.00  0.00     0.011 A 
HETATM    5  C19 UNL     1      48.922  11.372  -1.092  1.00  0.00     0.039 A 
HETATM    6  C20 UNL     1      49.154  10.495  -0.068  1.00  0.00     0.092 A 
ENDROOT
BRANCH   3   7
HETATM    7  C4  UNL     1      45.397  12.457  -0.442  1.00  0.00     0.122 C 
BRANCH   7   8
HETATM    8  S2  UNL     1      44.670  12.613   1.188  1.00  0.00    -0.098 SA
BRANCH   8   9
HETATM    9  C5  UNL     1      45.320  14.120   1.944  1.00  0.00     0.070 A 
HETATM   10  C6  UNL     1      46.513  14.130   2.634  1.00  0.00     0.037 A 
HETATM   11  C7  UNL     1      46.977  15.283   3.193  1.00  0.00     0.004 A 
HETATM   12  C8  UNL     1      46.265  16.461   3.082  1.00  0.00     0.017 A 
HETATM   13  C9  UNL     1      45.082  16.440   2.395  1.00  0.00     0.089 A 
HETATM   14  N2  UNL     1      44.643  15.294   1.852  1.00  0.00    -0.361 N 
ATOM     15  H2  UNL     1      43.758  15.306   1.346  1.00  0.00     0.165 HD
ENDBRANCH   8   9
ENDBRANCH   7   8
BRANCH   7  16
HETATM   16  C10 UNL     1      44.564  11.837  -1.466  1.00  0.00    -0.012 A 
HETATM   17  C11 UNL     1      44.169  12.509  -2.602  1.00  0.00     0.098 A 
HETATM   18  N3  UNL     1      43.441  11.648  -3.327  1.00  0.00    -0.365 N 
HETATM   19  C12 UNL     1      43.354  10.465  -2.704  1.00  0.00     0.043 A 
ATOM     20  H3  UNL     1      43.012  11.864  -4.228  1.00  0.00     0.165 HD
HETATM   21  C13 UNL     1      42.706   9.309  -3.083  1.00  0.00     0.030 A 
HETATM   22  C17 UNL     1      44.065  10.587  -1.524  1.00  0.00    -0.000 A 
HETATM   23  C14 UNL     1      42.738   8.195  -2.281  1.00  0.00     0.002 A 
HETATM   24  C15 UNL     1      43.442   8.296  -1.100  1.00  0.00     0.001 A 
HETATM   25  C16 UNL     1      44.092   9.448  -0.716  1.00  0.00     0.014 A 
ENDBRANCH   7  16
ENDBRANCH   3   7
BRANCH   1  26
HETATM   26  N1  UNL     1      48.426   9.308   1.898  1.00  0.00    -0.278 N 
ATOM     27  H1  UNL     1      48.666   9.696   2.810  1.00  0.00     0.179 HD
BRANCH  26  28
HETATM   28  S1  UNL     1      48.399   7.609   1.780  1.00  0.00     0.263 S 
HETATM   29  O1  UNL     1      46.954   7.180   1.808  1.00  0.00    -0.200 OA
HETATM   30  O2  UNL     1      48.927   7.204   0.407  1.00  0.00    -0.200 OA
BRANCH  28  31
HETATM   31  C21 UNL     1      49.255   6.772   3.017  1.00  0.00     0.080 A 
HETATM   32  C22 UNL     1      48.664   5.965   3.945  1.00  0.00     0.027 A 
HETATM   33  C23 UNL     1      49.398   5.317   4.908  1.00  0.00     0.025 A 
HETATM   34  C24 UNL     1      50.761   5.477   4.953  1.00  0.00     0.034 A 
HETATM   35 CL1  UNL     1      51.699   4.652   6.180  1.00  0.00    -0.084 Cl
HETATM   36  C25 UNL     1      51.399   6.287   4.031  1.00  0.00     0.025 A 
HETATM   37  C26 UNL     1      50.638   6.924   3.075  1.00  0.00     0.027 A 
ENDBRANCH  28  31
ENDBRANCH  26  28
ENDBRANCH   1  26
BRANCH   6  38
HETATM   38  O3  UNL     1      50.392   9.877   0.016  1.00  0.00    -0.358 OA
ATOM     39  H3  UNL     1      50.921   9.945   0.802  1.00  0.00     0.217 HD
ENDBRANCH   6  38
TORSDOF 8
ENDMDL
MODEL 5
REMARK VINA RESULT: -7.701631658      4.942      8.488
REMARK  8 active torsions:
REMARK  status: ('A' for Active; 'I' for Inactive)
REMARK    1  A    between atoms: S1_2  and  N1_4 
REMARK    2  A    between atoms: S1_2  and  C21_33 
REMARK    3  A    between atoms: N1_4  and  C1_6 
REMARK    4  A    between atoms: C3_8  and  C4_9 
REMARK    5  A    between atoms: C4_9  and  S2_10 
REMARK    6  A    between atoms: C4_9  and  C10_18 
REMARK    7  A    between atoms: S2_10  and  C5_11 
REMARK    8  A    between atoms: C20_30  and  O3_31 
ROOT
HETATM    1  C1  UNL     1      48.404   8.957   1.344  1.00  0.00     0.076 A 
HETATM    2  C2  UNL     1      47.234   9.655   1.547  1.00  0.00     0.041 A 
HETATM    3  C3  UNL     1      46.991  10.817   0.846  1.00  0.00    -0.037 A 
HETATM    4  C18 UNL     1      47.928  11.261  -0.051  1.00  0.00     0.011 A 
HETATM    5  C19 UNL     1      49.105  10.580  -0.272  1.00  0.00     0.039 A 
HETATM    6  C20 UNL     1      49.344   9.427   0.425  1.00  0.00     0.092 A 
ENDROOT
BRANCH   3   7
HETATM    7  C4  UNL     1      45.745  11.618   1.016  1.00  0.00     0.122 C 
BRANCH   7   8
HETATM    8  S2  UNL     1      45.138  11.984  -0.630  1.00  0.00    -0.098 SA
BRANCH   8   9
HETATM    9  C5  UNL     1      44.254  10.528  -1.232  1.00  0.00     0.070 A 
HETATM   10  C6  UNL     1      44.163   9.373  -0.486  1.00  0.00     0.037 A 
HETATM   11  C7  UNL     1      43.489   8.291  -0.967  1.00  0.00     0.004 A 
HETATM   12  C8  UNL     1      42.884   8.327  -2.208  1.00  0.00     0.017 A 
HETATM   13  C9  UNL     1      42.979   9.478  -2.940  1.00  0.00     0.089 A 
HETATM   14  N2  UNL     1      43.648  10.532  -2.448  1.00  0.00    -0.361 N 
ATOM     15  H2  UNL     1      43.704  11.379  -3.014  1.00  0.00     0.165 HD
ENDBRANCH   8   9
ENDBRANCH   7   8
BRANCH   7  16
HETATM   16  C10 UNL     1      45.939  12.759   1.903  1.00  0.00    -0.012 A 
HETATM   17  C11 UNL     1      46.774  12.709   2.997  1.00  0.00     0.098 A 
HETATM   18  N3  UNL     1      46.735  13.920   3.570  1.00  0.00    -0.365 N 
HETATM   19  C12 UNL     1      45.914  14.734   2.892  1.00  0.00     0.043 A 
ATOM     20  H3  UNL     1      47.257  14.185   4.406  1.00  0.00     0.165 HD
HETATM   21  C13 UNL     1      45.577  16.050   3.126  1.00  0.00     0.030 A 
HETATM   22  C17 UNL     1      45.410  13.996   1.836  1.00  0.00    -0.000 A 
HETATM   23  C14 UNL     1      44.698  16.705   2.300  1.00  0.00     0.002 A 
HETATM   24  C15 UNL     1      44.184  15.986   1.240  1.00  0.00     0.001 A 
HETATM   25  C16 UNL     1      44.518  14.672   1.001  1.00  0.00     0.014 A 
ENDBRANCH   7  16
ENDBRANCH   3   7
BRANCH   1  26
HETATM   26  N1  UNL     1      48.679   7.752   2.023  1.00  0.00    -0.278 N 
ATOM     27  H1  UNL     1      48.406   6.891   1.550  1.00  0.00     0.179 HD
BRANCH  26  28
HETATM   28  S1  UNL     1      49.418   7.578   3.548  1.00  0.00     0.263 S 
HETATM   29  O1  UNL     1      49.781   8.958   4.032  1.00  0.00    -0.200 OA
HETATM   30  O2  UNL     1      48.383   7.049   4.537  1.00  0.00    -0.200 OA
BRANCH  28  31
HETATM   31  C21 UNL     1      50.826   6.587   3.574  1.00  0.00     0.080 A 
HETATM   32  C22 UNL     1      51.820   6.646   2.642  1.00  0.00     0.027 A 
HETATM   33  C23 UNL     1      52.925   5.833   2.715  1.00  0.00     0.025 A 
HETATM   34  C24 UNL     1      53.046   4.933   3.746  1.00  0.00     0.034 A 
HETATM   35 CL1  UNL     1      54.453   3.896   3.842  1.00  0.00    -0.084 Cl
HETATM   36  C25 UNL     1      52.059   4.842   4.711  1.00  0.00     0.025 A 
HETATM   37  C26 UNL     1      50.962   5.670   4.613  1.00  0.00     0.027 A 
ENDBRANCH  28  31
ENDBRANCH  26  28
ENDBRANCH   1  26
BRANCH   6  38
HETATM   38  O3  UNL     1      50.530   8.744   0.201  1.00  0.00    -0.358 OA
ATOM     39  H3  UNL     1      50.530   7.815   0.003  1.00  0.00     0.217 HD
ENDBRANCH   6  38
TORSDOF 8
ENDMDL
