MODEL 1
REMARK VINA RESULT: -9.667767143      0.000      0.000
REMARK  8 active torsions:
REMARK  status: ('A' for Active; 'I' for Inactive)
REMARK    1  A    between atoms: O1_2  and  C2_3 
REMARK    2  A    between atoms: C5_8  and  C6_9 
REMARK    3  A    between atoms: C8_13  and  C9_14 
REMARK    4  A    between atoms: C13_18  and  N3_19 
REMARK    5  A    between atoms: C15_23  and  C16_24 
REMARK    6  A    between atoms: C19_27  and  O2_28 
REMARK    7  A    between atoms: O2_28  and  C20_29 
REMARK    8  A    between atoms: C20_29  and  C21_30 
ROOT
HETATM    1  C9  UNL     1      49.253   5.729   2.690  1.00  0.00    -0.006 A 
HETATM    2  C10 UNL     1      49.154   5.069   1.490  1.00  0.00     0.015 A 
HETATM    3  C11 UNL     1      48.529   5.629   0.383  1.00  0.00     0.017 A 
HETATM    4  C12 UNL     1      47.997   6.895   0.524  1.00  0.00     0.017 A 
HETATM    5  C13 UNL     1      47.372   7.489  -0.531  1.00  0.00     0.040 A 
HETATM    6  C14 UNL     1      46.847   8.764  -0.356  1.00  0.00     0.060 A 
HETATM    7  C15 UNL     1      46.947   9.414   0.834  1.00  0.00     0.045 A 
HETATM    8  N4  UNL     1      47.555   8.832   1.859  1.00  0.00    -0.355 N 
ATOM      9  H4  UNL     1      47.630   9.318   2.753  1.00  0.00     0.166 HD
HETATM   10  C29 UNL     1      48.078   7.585   1.715  1.00  0.00     0.046 A 
HETATM   11  C30 UNL     1      48.709   6.987   2.787  1.00  0.00     0.044 A 
ENDROOT
BRANCH   1  12
HETATM   12  C8  UNL     1      49.915   5.106   3.821  1.00  0.00     0.059 A 
HETATM   13  C7  UNL     1      49.724   5.470   5.156  1.00  0.00     0.120 A 
HETATM   14  N2  UNL     1      50.508   4.668   5.901  1.00  0.00    -0.349 N 
HETATM   15  C6  UNL     1      51.179   3.821   5.108  1.00  0.00     0.117 A 
ATOM     16  H2  UNL     1      50.580   4.700   6.918  1.00  0.00     0.167 HD
HETATM   17  N5  UNL     1      50.802   4.108   3.851  1.00  0.00    -0.340 N 
ATOM     18  H5  UNL     1      51.150   3.624   3.023  1.00  0.00     0.167 HD
BRANCH  15  19
HETATM   19  C5  UNL     1      52.144   2.780   5.540  1.00  0.00     0.026 A 
HETATM   20  C4  UNL     1      52.097   2.310   6.830  1.00  0.00     0.102 A 
HETATM   21  N1  UNL     1      52.966   1.374   7.216  1.00  0.00    -0.372 N 
HETATM   22  C3  UNL     1      53.875   0.897   6.355  1.00  0.00     0.124 A 
ATOM     23  H1  UNL     1      52.938   1.019   8.172  1.00  0.00     0.164 HD
HETATM   24  C2  UNL     1      53.973   1.326   5.051  1.00  0.00     0.084 A 
HETATM   25  C31 UNL     1      53.064   2.296   4.668  1.00  0.00     0.054 A 
BRANCH  24  26
HETATM   26  O1  UNL     1      54.924   0.813   4.180  1.00  0.00    -0.355 OA
HETATM   27  C1  UNL     1      55.904  -0.060   4.707  1.00  0.00     0.210 C 
ENDBRANCH  24  26
ENDBRANCH  15  19
ENDBRANCH   1  12
BRANCH   5  28
HETATM   28  N3  UNL     1      47.261   6.902  -1.669  1.00  0.00    -0.398 N 
ATOM     29  H32 UNL     1      47.460   5.905  -1.748  1.00  0.00     0.156 HD
ATOM     30  H31 UNL     1      46.975   7.407  -2.508  1.00  0.00     0.156 HD
ENDBRANCH   5  28
BRANCH   7  31
HETATM   31  C16 UNL     1      46.366  10.771   0.957  1.00  0.00    -0.009 A 
HETATM   32  C17 UNL     1      46.994  11.795   1.631  1.00  0.00     0.016 A 
HETATM   33  C18 UNL     1      46.413  13.069   1.727  1.00  0.00     0.037 A 
HETATM   34  C19 UNL     1      45.196  13.351   1.157  1.00  0.00     0.069 A 
HETATM   35  C27 UNL     1      44.564  12.335   0.483  1.00  0.00     0.037 A 
HETATM   36  C28 UNL     1      45.151  11.059   0.389  1.00  0.00     0.016 A 
BRANCH  34  37
HETATM   37  O2  UNL     1      44.635  14.628   1.266  1.00  0.00    -0.347 OA
BRANCH  37  38
HETATM   38  C20 UNL     1      44.149  15.042   2.517  1.00  0.00     0.214 C 
BRANCH  38  39
HETATM   39  C21 UNL     1      45.191  15.833   3.221  1.00  0.00    -0.034 A 
HETATM   40  C22 UNL     1      45.778  16.926   2.619  1.00  0.00     0.012 A 
HETATM   41  C23 UNL     1      46.748  17.633   3.317  1.00  0.00     0.043 A 
HETATM   42  C24 UNL     1      47.149  17.289   4.592  1.00  0.00     0.116 A 
HETATM   43  F1  UNL     1      48.105  18.029   5.217  1.00  0.00    -0.206 F 
HETATM   44  C25 UNL     1      46.553  16.192   5.185  1.00  0.00     0.043 A 
HETATM   45  C26 UNL     1      45.579  15.473   4.494  1.00  0.00     0.012 A 
ENDBRANCH  38  39
ENDBRANCH  37  38
ENDBRANCH  34  37
ENDBRANCH   7  31
TORSDOF 8
ENDMDL
MODEL 2
REMARK VINA RESULT: -9.481706500      1.891      2.446
REMARK  8 active torsions:
REMARK  status: ('A' for Active; 'I' for Inactive)
REMARK    1  A    between atoms: O1_2  and  C2_3 
REMARK    2  A    between atoms: C5_8  and  C6_9 
REMARK    3  A    between atoms: C8_13  and  C9_14 
REMARK    4  A    between atoms: C13_18  and  N3_19 
REMARK    5  A    between atoms: C15_23  and  C16_24 
REMARK    6  A    between atoms: C19_27  and  O2_28 
REMARK    7  A    between atoms: O2_28  and  C20_29 
REMARK    8  A    between atoms: C20_29  and  C21_30 
ROOT
HETATM    1  C9  UNL     1      48.270   5.573   1.119  1.00  0.00    -0.006 A 
HETATM    2  C10 UNL     1      48.450   5.209  -0.192  1.00  0.00     0.015 A 
HETATM    3  C11 UNL     1      48.094   6.037  -1.249  1.00  0.00     0.017 A 
HETATM    4  C12 UNL     1      47.540   7.263  -0.940  1.00  0.00     0.017 A 
HETATM    5  C13 UNL     1      47.172   8.113  -1.939  1.00  0.00     0.040 A 
HETATM    6  C14 UNL     1      46.618   9.340  -1.593  1.00  0.00     0.060 A 
HETATM    7  C15 UNL     1      46.441   9.696  -0.293  1.00  0.00     0.045 A 
HETATM    8  N4  UNL     1      46.799   8.867   0.677  1.00  0.00    -0.355 N 
ATOM      9  H4  UNL     1      46.667   9.132   1.653  1.00  0.00     0.166 HD
HETATM   10  C29 UNL     1      47.344   7.659   0.366  1.00  0.00     0.046 A 
HETATM   11  C30 UNL     1      47.715   6.802   1.383  1.00  0.00     0.044 A 
ENDROOT
BRANCH   1  12
HETATM   12  C8  UNL     1      48.656   4.677   2.192  1.00  0.00     0.059 A 
HETATM   13  C7  UNL     1      47.943   3.539   2.576  1.00  0.00     0.120 A 
HETATM   14  N2  UNL     1      48.615   2.977   3.600  1.00  0.00    -0.349 N 
HETATM   15  C6  UNL     1      49.710   3.699   3.879  1.00  0.00     0.117 A 
ATOM     16  H2  UNL     1      48.332   2.128   4.090  1.00  0.00     0.167 HD
HETATM   17  N5  UNL     1      49.711   4.725   3.011  1.00  0.00    -0.340 N 
ATOM     18  H5  UNL     1      50.428   5.450   2.981  1.00  0.00     0.167 HD
BRANCH  15  19
HETATM   19  C5  UNL     1      50.712   3.416   4.935  1.00  0.00     0.026 A 
HETATM   20  C4  UNL     1      51.601   2.384   4.762  1.00  0.00     0.102 A 
HETATM   21  N1  UNL     1      52.502   2.131   5.713  1.00  0.00    -0.372 N 
HETATM   22  C3  UNL     1      52.539   2.876   6.826  1.00  0.00     0.124 A 
ATOM     23  H1  UNL     1      53.167   1.366   5.593  1.00  0.00     0.164 HD
HETATM   24  C2  UNL     1      51.677   3.923   7.059  1.00  0.00     0.084 A 
HETATM   25  C31 UNL     1      50.750   4.171   6.062  1.00  0.00     0.054 A 
BRANCH  24  26
HETATM   26  O1  UNL     1      51.739   4.679   8.221  1.00  0.00    -0.355 OA
HETATM   27  C1  UNL     1      51.608   4.006   9.458  1.00  0.00     0.210 C 
ENDBRANCH  24  26
ENDBRANCH  15  19
ENDBRANCH   1  12
BRANCH   5  28
HETATM   28  N3  UNL     1      47.326   7.806  -3.178  1.00  0.00    -0.398 N 
ATOM     29  H32 UNL     1      48.036   8.282  -3.734  1.00  0.00     0.156 HD
ATOM     30  H31 UNL     1      46.754   7.094  -3.630  1.00  0.00     0.156 HD
ENDBRANCH   5  28
BRANCH   7  31
HETATM   31  C16 UNL     1      45.844  11.018   0.010  1.00  0.00    -0.009 A 
HETATM   32  C17 UNL     1      45.953  12.099  -0.836  1.00  0.00     0.016 A 
HETATM   33  C18 UNL     1      45.373  13.337  -0.514  1.00  0.00     0.037 A 
HETATM   34  C19 UNL     1      44.676  13.525   0.653  1.00  0.00     0.069 A 
HETATM   35  C27 UNL     1      44.563  12.451   1.501  1.00  0.00     0.037 A 
HETATM   36  C28 UNL     1      45.145  11.211   1.175  1.00  0.00     0.016 A 
BRANCH  34  37
HETATM   37  O2  UNL     1      44.106  14.767   0.953  1.00  0.00    -0.347 OA
BRANCH  37  38
HETATM   38  C20 UNL     1      43.969  15.133   2.303  1.00  0.00     0.214 C 
BRANCH  38  39
HETATM   39  C21 UNL     1      45.263  15.656   2.812  1.00  0.00    -0.034 A 
HETATM   40  C22 UNL     1      45.588  16.989   2.684  1.00  0.00     0.012 A 
HETATM   41  C23 UNL     1      46.810  17.430   3.174  1.00  0.00     0.043 A 
HETATM   42  C24 UNL     1      47.715  16.588   3.788  1.00  0.00     0.116 A 
HETATM   43  F1  UNL     1      48.894  17.090   4.247  1.00  0.00    -0.206 F 
HETATM   44  C25 UNL     1      47.378  15.253   3.911  1.00  0.00     0.043 A 
HETATM   45  C26 UNL     1      46.155  14.799   3.421  1.00  0.00     0.012 A 
ENDBRANCH  38  39
ENDBRANCH  37  38
ENDBRANCH  34  37
ENDBRANCH   7  31
TORSDOF 8
ENDMDL
MODEL 3
REMARK VINA RESULT: -9.462725586      1.862      2.482
REMARK  8 active torsions:
REMARK  status: ('A' for Active; 'I' for Inactive)
REMARK    1  A    between atoms: O1_2  and  C2_3 
REMARK    2  A    between atoms: C5_8  and  C6_9 
REMARK    3  A    between atoms: C8_13  and  C9_14 
REMARK    4  A    between atoms: C13_18  and  N3_19 
REMARK    5  A    between atoms: C15_23  and  C16_24 
REMARK    6  A    between atoms: C19_27  and  O2_28 
REMARK    7  A    between atoms: O2_28  and  C20_29 
REMARK    8  A    between atoms: C20_29  and  C21_30 
ROOT
HETATM    1  C9  UNL     1      49.283   6.549   1.141  1.00  0.00    -0.006 A 
HETATM    2  C10 UNL     1      48.887   5.881   0.009  1.00  0.00     0.015 A 
HETATM    3  C11 UNL     1      47.957   6.407  -0.878  1.00  0.00     0.017 A 
HETATM    4  C12 UNL     1      47.428   7.648  -0.585  1.00  0.00     0.017 A 
HETATM    5  C13 UNL     1      46.511   8.209  -1.422  1.00  0.00     0.040 A 
HETATM    6  C14 UNL     1      45.998   9.460  -1.097  1.00  0.00     0.060 A 
HETATM    7  C15 UNL     1      46.392  10.118   0.025  1.00  0.00     0.045 A 
HETATM    8  N4  UNL     1      47.284   9.568   0.837  1.00  0.00    -0.355 N 
ATOM      9  H4  UNL     1      47.581  10.061   1.680  1.00  0.00     0.166 HD
HETATM   10  C29 UNL     1      47.802   8.345   0.544  1.00  0.00     0.046 A 
HETATM   11  C30 UNL     1      48.731   7.781   1.395  1.00  0.00     0.044 A 
ENDROOT
BRANCH   1  12
HETATM   12  C8  UNL     1      50.258   5.961   2.040  1.00  0.00     0.059 A 
HETATM   13  C7  UNL     1      51.642   6.014   1.861  1.00  0.00     0.120 A 
HETATM   14  N2  UNL     1      52.201   5.358   2.896  1.00  0.00    -0.349 N 
HETATM   15  C6  UNL     1      51.245   4.898   3.715  1.00  0.00     0.117 A 
ATOM     16  H2  UNL     1      53.203   5.231   3.037  1.00  0.00     0.167 HD
HETATM   17  N5  UNL     1      50.075   5.276   3.173  1.00  0.00    -0.340 N 
ATOM     18  H5  UNL     1      49.161   5.067   3.576  1.00  0.00     0.167 HD
BRANCH  15  19
HETATM   19  C5  UNL     1      51.445   4.126   4.966  1.00  0.00     0.026 A 
HETATM   20  C4  UNL     1      51.554   2.759   4.904  1.00  0.00     0.102 A 
HETATM   21  N1  UNL     1      51.735   2.066   6.030  1.00  0.00    -0.372 N 
HETATM   22  C3  UNL     1      51.808   2.698   7.209  1.00  0.00     0.124 A 
ATOM     23  H1  UNL     1      51.817   1.050   5.993  1.00  0.00     0.164 HD
HETATM   24  C2  UNL     1      51.706   4.064   7.338  1.00  0.00     0.084 A 
HETATM   25  C31 UNL     1      51.520   4.766   6.161  1.00  0.00     0.054 A 
BRANCH  24  26
HETATM   26  O1  UNL     1      51.787   4.692   8.573  1.00  0.00    -0.355 OA
HETATM   27  C1  UNL     1      51.431   3.946   9.721  1.00  0.00     0.210 C 
ENDBRANCH  24  26
ENDBRANCH  15  19
ENDBRANCH   1  12
BRANCH   5  28
HETATM   28  N3  UNL     1      46.117   7.614  -2.490  1.00  0.00    -0.398 N 
ATOM     29  H32 UNL     1      45.166   7.250  -2.547  1.00  0.00     0.156 HD
ATOM     30  H31 UNL     1      46.731   7.491  -3.295  1.00  0.00     0.156 HD
ENDBRANCH   5  28
BRANCH   7  31
HETATM   31  C16 UNL     1      45.808  11.448   0.316  1.00  0.00    -0.009 A 
HETATM   32  C17 UNL     1      45.065  12.155  -0.604  1.00  0.00     0.016 A 
HETATM   33  C18 UNL     1      44.526  13.414  -0.291  1.00  0.00     0.037 A 
HETATM   34  C19 UNL     1      44.716  13.994   0.938  1.00  0.00     0.069 A 
HETATM   35  C27 UNL     1      45.455  13.295   1.859  1.00  0.00     0.037 A 
HETATM   36  C28 UNL     1      45.993  12.032   1.543  1.00  0.00     0.016 A 
BRANCH  34  37
HETATM   37  O2  UNL     1      44.170  15.250   1.226  1.00  0.00    -0.347 OA
BRANCH  37  38
HETATM   38  C20 UNL     1      43.834  15.543   2.559  1.00  0.00     0.214 C 
BRANCH  38  39
HETATM   39  C21 UNL     1      44.996  16.169   3.240  1.00  0.00    -0.034 A 
HETATM   40  C22 UNL     1      45.736  17.153   2.620  1.00  0.00     0.012 A 
HETATM   41  C23 UNL     1      46.814  17.707   3.299  1.00  0.00     0.043 A 
HETATM   42  C24 UNL     1      47.176  17.314   4.570  1.00  0.00     0.116 A 
HETATM   43  F1  UNL     1      48.245  17.901   5.175  1.00  0.00    -0.206 F 
HETATM   44  C25 UNL     1      46.427  16.326   5.182  1.00  0.00     0.043 A 
HETATM   45  C26 UNL     1      45.343  15.762   4.511  1.00  0.00     0.012 A 
ENDBRANCH  38  39
ENDBRANCH  37  38
ENDBRANCH  34  37
ENDBRANCH   7  31
TORSDOF 8
ENDMDL
MODEL 4
REMARK VINA RESULT: -9.423446491      1.472      2.005
REMARK  8 active torsions:
REMARK  status: ('A' for Active; 'I' for Inactive)
REMARK    1  A    between atoms: O1_2  and  C2_3 
REMARK    2  A    between atoms: C5_8  and  C6_9 
REMARK    3  A    between atoms: C8_13  and  C9_14 
REMARK    4  A    between atoms: C13_18  and  N3_19 
REMARK    5  A    between atoms: C15_23  and  C16_24 
REMARK    6  A    between atoms: C19_27  and  O2_28 
REMARK    7  A    between atoms: O2_28  and  C20_29 
REMARK    8  A    between atoms: C20_29  and  C21_30 
ROOT
HETATM    1  C9  UNL     1      49.679   6.797   2.001  1.00  0.00    -0.006 A 
HETATM    2  C10 UNL     1      49.382   6.045   0.893  1.00  0.00     0.015 A 
HETATM    3  C11 UNL     1      48.485   6.472  -0.078  1.00  0.00     0.017 A 
HETATM    4  C12 UNL     1      47.884   7.702   0.106  1.00  0.00     0.017 A 
HETATM    5  C13 UNL     1      46.996   8.167  -0.815  1.00  0.00     0.040 A 
HETATM    6  C14 UNL     1      46.410   9.409  -0.600  1.00  0.00     0.060 A 
HETATM    7  C15 UNL     1      46.706  10.152   0.500  1.00  0.00     0.045 A 
HETATM    8  N4  UNL     1      47.571   9.695   1.395  1.00  0.00    -0.355 N 
ATOM      9  H4  UNL     1      47.794  10.250   2.222  1.00  0.00     0.166 HD
HETATM   10  C29 UNL     1      48.159   8.482   1.209  1.00  0.00     0.046 A 
HETATM   11  C30 UNL     1      49.059   8.015   2.146  1.00  0.00     0.044 A 
ENDROOT
BRANCH   1  12
HETATM   12  C8  UNL     1      50.623   6.311   2.990  1.00  0.00     0.059 A 
HETATM   13  C7  UNL     1      51.606   7.091   3.604  1.00  0.00     0.120 A 
HETATM   14  N2  UNL     1      52.275   6.287   4.453  1.00  0.00    -0.349 N 
HETATM   15  C6  UNL     1      51.767   5.048   4.406  1.00  0.00     0.117 A 
ATOM     16  H2  UNL     1      53.054   6.578   5.044  1.00  0.00     0.167 HD
HETATM   17  N5  UNL     1      50.766   5.089   3.510  1.00  0.00    -0.340 N 
ATOM     18  H5  UNL     1      50.187   4.287   3.259  1.00  0.00     0.167 HD
BRANCH  15  19
HETATM   19  C5  UNL     1      52.223   3.872   5.187  1.00  0.00     0.026 A 
HETATM   20  C4  UNL     1      53.564   3.706   5.434  1.00  0.00     0.102 A 
HETATM   21  N1  UNL     1      53.972   2.648   6.137  1.00  0.00    -0.372 N 
HETATM   22  C3  UNL     1      53.084   1.756   6.596  1.00  0.00     0.124 A 
ATOM     23  H1  UNL     1      54.966   2.517   6.326  1.00  0.00     0.164 HD
HETATM   24  C2  UNL     1      51.729   1.866   6.382  1.00  0.00     0.084 A 
HETATM   25  C31 UNL     1      51.323   2.969   5.653  1.00  0.00     0.054 A 
BRANCH  24  26
HETATM   26  O1  UNL     1      50.832   0.927   6.871  1.00  0.00    -0.355 OA
HETATM   27  C1  UNL     1      49.503   1.344   7.117  1.00  0.00     0.210 C 
ENDBRANCH  24  26
ENDBRANCH  15  19
ENDBRANCH   1  12
BRANCH   5  28
HETATM   28  N3  UNL     1      46.694   7.491  -1.865  1.00  0.00    -0.398 N 
ATOM     29  H32 UNL     1      46.696   7.944  -2.779  1.00  0.00     0.156 HD
ATOM     30  H31 UNL     1      46.448   6.502  -1.816  1.00  0.00     0.156 HD
ENDBRANCH   5  28
BRANCH   7  31
HETATM   31  C16 UNL     1      46.047  11.467   0.673  1.00  0.00    -0.009 A 
HETATM   32  C17 UNL     1      45.136  11.970  -0.228  1.00  0.00     0.016 A 
HETATM   33  C18 UNL     1      44.531  13.222  -0.030  1.00  0.00     0.037 A 
HETATM   34  C19 UNL     1      44.821  13.998   1.065  1.00  0.00     0.069 A 
HETATM   35  C27 UNL     1      45.728  13.502   1.967  1.00  0.00     0.037 A 
HETATM   36  C28 UNL     1      46.332  12.246   1.766  1.00  0.00     0.016 A 
BRANCH  34  37
HETATM   37  O2  UNL     1      44.206  15.243   1.241  1.00  0.00    -0.347 OA
BRANCH  37  38
HETATM   38  C20 UNL     1      43.821  15.621   2.538  1.00  0.00     0.214 C 
BRANCH  38  39
HETATM   39  C21 UNL     1      44.979  16.230   3.244  1.00  0.00    -0.034 A 
HETATM   40  C22 UNL     1      45.753  17.194   2.635  1.00  0.00     0.012 A 
HETATM   41  C23 UNL     1      46.824  17.732   3.335  1.00  0.00     0.043 A 
HETATM   42  C24 UNL     1      47.147  17.343   4.619  1.00  0.00     0.116 A 
HETATM   43  F1  UNL     1      48.212  17.915   5.246  1.00  0.00    -0.206 F 
HETATM   44  C25 UNL     1      46.364  16.375   5.220  1.00  0.00     0.043 A 
HETATM   45  C26 UNL     1      45.286  15.827   4.526  1.00  0.00     0.012 A 
ENDBRANCH  38  39
ENDBRANCH  37  38
ENDBRANCH  34  37
ENDBRANCH   7  31
TORSDOF 8
ENDMDL
MODEL 5
REMARK VINA RESULT: -9.373526669      0.918      1.398
REMARK  8 active torsions:
REMARK  status: ('A' for Active; 'I' for Inactive)
REMARK    1  A    between atoms: O1_2  and  C2_3 
REMARK    2  A    between atoms: C5_8  and  C6_9 
REMARK    3  A    between atoms: C8_13  and  C9_14 
REMARK    4  A    between atoms: C13_18  and  N3_19 
REMARK    5  A    between atoms: C15_23  and  C16_24 
REMARK    6  A    between atoms: C19_27  and  O2_28 
REMARK    7  A    between atoms: O2_28  and  C20_29 
REMARK    8  A    between atoms: C20_29  and  C21_30 
ROOT
HETATM    1  C9  UNL     1      49.712   6.592   2.307  1.00  0.00    -0.006 A 
HETATM    2  C10 UNL     1      49.463   5.839   1.188  1.00  0.00     0.015 A 
HETATM    3  C11 UNL     1      48.617   6.270   0.174  1.00  0.00     0.017 A 
HETATM    4  C12 UNL     1      48.019   7.506   0.325  1.00  0.00     0.017 A 
HETATM    5  C13 UNL     1      47.181   7.975  -0.640  1.00  0.00     0.040 A 
HETATM    6  C14 UNL     1      46.596   9.223  -0.457  1.00  0.00     0.060 A 
HETATM    7  C15 UNL     1      46.845   9.967   0.654  1.00  0.00     0.045 A 
HETATM    8  N4  UNL     1      47.661   9.506   1.591  1.00  0.00    -0.355 N 
ATOM      9  H4  UNL     1      47.850  10.062   2.425  1.00  0.00     0.166 HD
HETATM   10  C29 UNL     1      48.247   8.288   1.437  1.00  0.00     0.046 A 
HETATM   11  C30 UNL     1      49.097   7.816   2.418  1.00  0.00     0.044 A 
ENDROOT
BRANCH   1  12
HETATM   12  C8  UNL     1      50.603   6.102   3.342  1.00  0.00     0.059 A 
HETATM   13  C7  UNL     1      51.432   6.907   4.127  1.00  0.00     0.120 A 
HETATM   14  N2  UNL     1      52.099   6.089   4.964  1.00  0.00    -0.349 N 
HETATM   15  C6  UNL     1      51.735   4.817   4.748  1.00  0.00     0.117 A 
ATOM     16  H2  UNL     1      52.781   6.393   5.660  1.00  0.00     0.167 HD
HETATM   17  N5  UNL     1      50.827   4.853   3.759  1.00  0.00    -0.340 N 
ATOM     18  H5  UNL     1      50.366   4.028   3.373  1.00  0.00     0.167 HD
BRANCH  15  19
HETATM   19  C5  UNL     1      52.238   3.618   5.461  1.00  0.00     0.026 A 
HETATM   20  C4  UNL     1      51.856   3.397   6.762  1.00  0.00     0.102 A 
HETATM   21  N1  UNL     1      52.310   2.317   7.401  1.00  0.00    -0.372 N 
HETATM   22  C3  UNL     1      53.130   1.458   6.782  1.00  0.00     0.124 A 
ATOM     23  H1  UNL     1      52.031   2.145   8.367  1.00  0.00     0.164 HD
HETATM   24  C2  UNL     1      53.549   1.623   5.481  1.00  0.00     0.084 A 
HETATM   25  C31 UNL     1      53.068   2.747   4.834  1.00  0.00     0.054 A 
BRANCH  24  26
HETATM   26  O1  UNL     1      54.399   0.716   4.864  1.00  0.00    -0.355 OA
HETATM   27  C1  UNL     1      55.193   1.176   3.788  1.00  0.00     0.210 C 
ENDBRANCH  24  26
ENDBRANCH  15  19
ENDBRANCH   1  12
BRANCH   5  28
HETATM   28  N3  UNL     1      46.924   7.298  -1.702  1.00  0.00    -0.398 N 
ATOM     29  H32 UNL     1      47.635   7.200  -2.425  1.00  0.00     0.156 HD
ATOM     30  H31 UNL     1      46.019   6.849  -1.847  1.00  0.00     0.156 HD
ENDBRANCH   5  28
BRANCH   7  31
HETATM   31  C16 UNL     1      46.190  11.288   0.790  1.00  0.00    -0.009 A 
HETATM   32  C17 UNL     1      45.191  11.719  -0.055  1.00  0.00     0.016 A 
HETATM   33  C18 UNL     1      44.593  12.979   0.106  1.00  0.00     0.037 A 
HETATM   34  C19 UNL     1      44.976  13.836   1.108  1.00  0.00     0.069 A 
HETATM   35  C27 UNL     1      45.971  13.413   1.954  1.00  0.00     0.037 A 
HETATM   36  C28 UNL     1      46.568  12.149   1.790  1.00  0.00     0.016 A 
BRANCH  34  37
HETATM   37  O2  UNL     1      44.366  15.087   1.249  1.00  0.00    -0.347 OA
BRANCH  37  38
HETATM   38  C20 UNL     1      43.931  15.480   2.527  1.00  0.00     0.214 C 
BRANCH  38  39
HETATM   39  C21 UNL     1      45.058  16.103   3.267  1.00  0.00    -0.034 A 
HETATM   40  C22 UNL     1      45.351  15.728   4.561  1.00  0.00     0.012 A 
HETATM   41  C23 UNL     1      46.413  16.341   5.211  1.00  0.00     0.043 A 
HETATM   42  C24 UNL     1      47.193  17.311   4.615  1.00  0.00     0.116 A 
HETATM   43  F1  UNL     1      48.221  17.868   5.312  1.00  0.00    -0.206 F 
HETATM   44  C25 UNL     1      46.891  17.679   3.317  1.00  0.00     0.043 A 
HETATM   45  C26 UNL     1      45.826  17.072   2.654  1.00  0.00     0.012 A 
ENDBRANCH  38  39
ENDBRANCH  37  38
ENDBRANCH  34  37
ENDBRANCH   7  31
TORSDOF 8
ENDMDL
