MODEL 1
REMARK VINA RESULT: -7.398898229      0.000      0.000
REMARK  10 active torsions:
REMARK  status: ('A' for Active; 'I' for Inactive)
REMARK    1  A    between atoms: C2_2  and  C3_3 
REMARK    2  A    between atoms: C3_3  and  C4_4 
REMARK    3  A    between atoms: C7_7  and  N1_8 
REMARK       I    between atoms: N1_8  and  C8_10 
REMARK    4  A    between atoms: C8_10  and  C9_12 
REMARK    5  A    between atoms: C9_12  and  C10_13 
REMARK    6  A    between atoms: C9_12  and  N2_16 
REMARK    7  A    between atoms: C10_13  and  O2_14 
REMARK    8  A    between atoms: C12_18  and  C13_19 
REMARK    9  A    between atoms: C16_23  and  O3_24 
REMARK   10  A    between atoms: C21_31  and  C22_32 
ROOT
HETATM    1  N2  UNL     1      50.318   6.791   3.357  1.00  0.00    -0.362 N 
HETATM    2  C11 UNL     1      51.147   7.416   4.333  1.00  0.00     0.135 C 
HETATM    3  C12 UNL     1      51.746   6.297   5.209  1.00  0.00     0.053 C 
HETATM    4  C14 UNL     1      50.869   5.169   4.936  1.00  0.00    -0.015 A 
HETATM    5  C15 UNL     1      50.025   5.463   3.850  1.00  0.00     0.075 A 
HETATM    6  C16 UNL     1      49.083   4.556   3.423  1.00  0.00     0.128 A 
HETATM    7  C17 UNL     1      48.940   3.316   4.057  1.00  0.00     0.121 A 
HETATM    8  O4  UNL     1      48.133   2.286   3.852  1.00  0.00    -0.319 OA
HETATM    9  C18 UNL     1      48.376   1.333   4.715  1.00  0.00     0.143 A 
HETATM   10  C19 UNL     1      49.403   1.751   5.543  1.00  0.00     0.039 A 
HETATM   11  C20 UNL     1      49.741   3.015   5.100  1.00  0.00     0.009 A 
HETATM   12  C21 UNL     1      50.698   3.945   5.530  1.00  0.00    -0.036 A 
ENDROOT
BRANCH   1  13
HETATM   13  C9  UNL     1      49.815   7.349   2.133  1.00  0.00     0.200 C 
BRANCH  13  14
HETATM   14  C8  UNL     1      48.729   8.362   2.401  1.00  0.00     0.243 C 
HETATM   15  N1  UNL     1      48.456   9.443   1.563  1.00  0.00    -0.355 N 
ATOM     16  H1  UNL     1      49.039   9.539   0.731  1.00  0.00     0.162 HD
HETATM   17  O1  UNL     1      48.049   8.200   3.444  1.00  0.00    -0.271 OA
BRANCH  15  18
HETATM   18  C7  UNL     1      47.443  10.427   1.754  1.00  0.00     0.084 C 
HETATM   19  C6  UNL     1      48.059  11.803   1.452  1.00  0.00     0.025 C 
HETATM   20  C5  UNL     1      47.054  12.796   2.063  1.00  0.00     0.006 C 
HETATM   21  C4  UNL     1      45.792  12.673   1.234  1.00  0.00    -0.014 C 
HETATM   22  C25 UNL     1      45.227  11.306   1.151  1.00  0.00     0.006 C 
HETATM   23  C24 UNL     1      46.286  10.261   0.824  1.00  0.00     0.025 C 
BRANCH  21  24
HETATM   24  C3  UNL     1      44.810  13.744   1.486  1.00  0.00     0.004 C 
BRANCH  24  25
HETATM   25  C2  UNL     1      45.256  14.982   2.167  1.00  0.00    -0.004 C 
HETATM   26  C1  UNL     1      44.580  16.257   1.808  1.00  0.00     0.005 C 
ENDBRANCH  24  25
ENDBRANCH  21  24
ENDBRANCH  15  18
ENDBRANCH  13  14
BRANCH  13  27
HETATM   27  C10 UNL     1      50.889   7.981   1.279  1.00  0.00     0.199 C 
BRANCH  27  28
HETATM   28  O2  UNL     1      51.253   9.240   1.680  1.00  0.00    -0.398 OA
ATOM     29  H2  UNL     1      51.895   9.252   2.380  1.00  0.00     0.209 HD
ENDBRANCH  27  28
ENDBRANCH  13  27
ENDBRANCH   1  13
BRANCH   3  30
HETATM   30  C13 UNL     1      53.175   6.179   4.812  1.00  0.00     0.125 C 
HETATM   31 CL1  UNL     1      53.478   5.126   3.429  1.00  0.00    -0.130 Cl
ENDBRANCH   3  30
BRANCH   6  32
HETATM   32  O3  UNL     1      48.210   4.761   2.366  1.00  0.00    -0.356 OA
ATOM     33  H3  UNL     1      48.055   4.141   1.663  1.00  0.00     0.218 HD
ENDBRANCH   6  32
BRANCH  12  34
HETATM   34  C22 UNL     1      51.521   3.497   6.672  1.00  0.00     0.036 C 
HETATM   35  C23 UNL     1      52.747   2.804   6.162  1.00  0.00     0.010 C 
ENDBRANCH  12  34
TORSDOF 10
ENDMDL
MODEL 2
REMARK VINA RESULT: -7.242382440      0.910      1.029
REMARK  10 active torsions:
REMARK  status: ('A' for Active; 'I' for Inactive)
REMARK    1  A    between atoms: C2_2  and  C3_3 
REMARK    2  A    between atoms: C3_3  and  C4_4 
REMARK    3  A    between atoms: C7_7  and  N1_8 
REMARK       I    between atoms: N1_8  and  C8_10 
REMARK    4  A    between atoms: C8_10  and  C9_12 
REMARK    5  A    between atoms: C9_12  and  C10_13 
REMARK    6  A    between atoms: C9_12  and  N2_16 
REMARK    7  A    between atoms: C10_13  and  O2_14 
REMARK    8  A    between atoms: C12_18  and  C13_19 
REMARK    9  A    between atoms: C16_23  and  O3_24 
REMARK   10  A    between atoms: C21_31  and  C22_32 
ROOT
HETATM    1  N2  UNL     1      50.586   6.198   3.668  1.00  0.00    -0.362 N 
HETATM    2  C11 UNL     1      51.348   6.572   4.813  1.00  0.00     0.135 C 
HETATM    3  C12 UNL     1      51.619   5.288   5.623  1.00  0.00     0.053 C 
HETATM    4  C14 UNL     1      50.622   4.363   5.105  1.00  0.00    -0.015 A 
HETATM    5  C15 UNL     1      50.011   4.902   3.958  1.00  0.00     0.075 A 
HETATM    6  C16 UNL     1      49.010   4.221   3.305  1.00  0.00     0.128 A 
HETATM    7  C17 UNL     1      48.574   2.972   3.764  1.00  0.00     0.121 A 
HETATM    8  O4  UNL     1      47.651   2.125   3.333  1.00  0.00    -0.319 OA
HETATM    9  C18 UNL     1      47.603   1.068   4.103  1.00  0.00     0.143 A 
HETATM   10  C19 UNL     1      48.546   1.219   5.103  1.00  0.00     0.039 A 
HETATM   11  C20 UNL     1      49.148   2.438   4.862  1.00  0.00     0.009 A 
HETATM   12  C21 UNL     1      50.166   3.140   5.522  1.00  0.00    -0.036 A 
ENDROOT
BRANCH   1  13
HETATM   13  C9  UNL     1      50.373   6.947   2.462  1.00  0.00     0.200 C 
BRANCH  13  14
HETATM   14  C8  UNL     1      49.241   7.932   2.626  1.00  0.00     0.243 C 
HETATM   15  N1  UNL     1      48.478   8.418   1.564  1.00  0.00    -0.355 N 
ATOM     16  H1  UNL     1      48.720   8.081   0.632  1.00  0.00     0.162 HD
HETATM   17  O1  UNL     1      48.993   8.321   3.795  1.00  0.00    -0.271 OA
BRANCH  15  18
HETATM   18  C7  UNL     1      47.395   9.339   1.652  1.00  0.00     0.084 C 
HETATM   19  C6  UNL     1      47.983  10.733   1.927  1.00  0.00     0.025 C 
HETATM   20  C5  UNL     1      46.771  11.555   2.403  1.00  0.00     0.006 C 
HETATM   21  C4  UNL     1      45.856  11.678   1.201  1.00  0.00    -0.014 C 
HETATM   22  C25 UNL     1      45.439  10.391   0.596  1.00  0.00     0.006 C 
HETATM   23  C24 UNL     1      46.614   9.445   0.384  1.00  0.00     0.025 C 
BRANCH  21  24
HETATM   24  C3  UNL     1      44.775  12.667   1.377  1.00  0.00     0.004 C 
BRANCH  24  25
HETATM   25  C2  UNL     1      45.032  14.082   1.021  1.00  0.00    -0.004 C 
HETATM   26  C1  UNL     1      45.334  15.034   2.122  1.00  0.00     0.005 C 
ENDBRANCH  24  25
ENDBRANCH  21  24
ENDBRANCH  15  18
ENDBRANCH  13  14
BRANCH  13  27
HETATM   27  C10 UNL     1      51.606   7.678   1.985  1.00  0.00     0.199 C 
BRANCH  27  28
HETATM   28  O2  UNL     1      51.465   9.041   1.942  1.00  0.00    -0.398 OA
ATOM     29  H2  UNL     1      52.012   9.507   2.564  1.00  0.00     0.209 HD
ENDBRANCH  27  28
ENDBRANCH  13  27
ENDBRANCH   1  13
BRANCH   3  30
HETATM   30  C13 UNL     1      53.052   4.955   5.410  1.00  0.00     0.125 C 
HETATM   31 CL1  UNL     1      53.378   3.931   4.010  1.00  0.00    -0.130 Cl
ENDBRANCH   3  30
BRANCH   6  32
HETATM   32  O3  UNL     1      48.353   4.675   2.173  1.00  0.00    -0.356 OA
ATOM     33  H3  UNL     1      47.508   4.360   1.873  1.00  0.00     0.218 HD
ENDBRANCH   6  32
BRANCH  12  34
HETATM   34  C22 UNL     1      50.723   2.448   6.703  1.00  0.00     0.036 C 
HETATM   35  C23 UNL     1      51.849   1.559   6.276  1.00  0.00     0.010 C 
ENDBRANCH  12  34
TORSDOF 10
ENDMDL
MODEL 3
REMARK VINA RESULT: -7.044883745      1.306      1.781
REMARK  10 active torsions:
REMARK  status: ('A' for Active; 'I' for Inactive)
REMARK    1  A    between atoms: C2_2  and  C3_3 
REMARK    2  A    between atoms: C3_3  and  C4_4 
REMARK    3  A    between atoms: C7_7  and  N1_8 
REMARK       I    between atoms: N1_8  and  C8_10 
REMARK    4  A    between atoms: C8_10  and  C9_12 
REMARK    5  A    between atoms: C9_12  and  C10_13 
REMARK    6  A    between atoms: C9_12  and  N2_16 
REMARK    7  A    between atoms: C10_13  and  O2_14 
REMARK    8  A    between atoms: C12_18  and  C13_19 
REMARK    9  A    between atoms: C16_23  and  O3_24 
REMARK   10  A    between atoms: C21_31  and  C22_32 
ROOT
HETATM    1  N2  UNL     1      49.212   6.748   2.572  1.00  0.00    -0.362 N 
HETATM    2  C11 UNL     1      49.834   7.788   3.321  1.00  0.00     0.135 C 
HETATM    3  C12 UNL     1      50.760   7.117   4.356  1.00  0.00     0.053 C 
HETATM    4  C14 UNL     1      50.258   5.752   4.401  1.00  0.00    -0.015 A 
HETATM    5  C15 UNL     1      49.343   5.537   3.355  1.00  0.00     0.075 A 
HETATM    6  C16 UNL     1      48.709   4.325   3.209  1.00  0.00     0.128 A 
HETATM    7  C17 UNL     1      48.960   3.273   4.097  1.00  0.00     0.121 A 
HETATM    8  O4  UNL     1      48.496   2.035   4.182  1.00  0.00    -0.319 OA
HETATM    9  C18 UNL     1      49.032   1.412   5.200  1.00  0.00     0.143 A 
HETATM   10  C19 UNL     1      49.902   2.284   5.831  1.00  0.00     0.039 A 
HETATM   11  C20 UNL     1      49.835   3.459   5.107  1.00  0.00     0.009 A 
HETATM   12  C21 UNL     1      50.475   4.697   5.249  1.00  0.00    -0.036 A 
ENDROOT
BRANCH   1  13
HETATM   13  C9  UNL     1      48.541   6.846   1.307  1.00  0.00     0.200 C 
BRANCH  13  14
HETATM   14  C8  UNL     1      48.221   8.282   0.970  1.00  0.00     0.243 C 
HETATM   15  N1  UNL     1      47.069   8.939   1.401  1.00  0.00    -0.355 N 
ATOM     16  H1  UNL     1      46.416   8.399   1.969  1.00  0.00     0.162 HD
HETATM   17  O1  UNL     1      49.055   8.896   0.259  1.00  0.00    -0.271 OA
BRANCH  15  18
HETATM   18  C7  UNL     1      46.713  10.292   1.126  1.00  0.00     0.084 C 
HETATM   19  C6  UNL     1      45.212  10.326   0.794  1.00  0.00     0.025 C 
HETATM   20  C5  UNL     1      45.015  11.701   0.131  1.00  0.00     0.006 C 
HETATM   21  C4  UNL     1      45.263  12.726   1.219  1.00  0.00    -0.014 C 
HETATM   22  C25 UNL     1      46.581  12.626   1.886  1.00  0.00     0.006 C 
HETATM   23  C24 UNL     1      46.916  11.198   2.295  1.00  0.00     0.025 C 
BRANCH  21  24
HETATM   24  C3  UNL     1      44.847  14.094   0.851  1.00  0.00     0.004 C 
BRANCH  24  25
HETATM   25  C2  UNL     1      44.830  15.144   1.895  1.00  0.00    -0.004 C 
HETATM   26  C1  UNL     1      44.453  16.524   1.488  1.00  0.00     0.005 C 
ENDBRANCH  24  25
ENDBRANCH  21  24
ENDBRANCH  15  18
ENDBRANCH  13  14
BRANCH  13  27
HETATM   27  C10 UNL     1      49.317   6.227   0.168  1.00  0.00     0.199 C 
BRANCH  27  28
HETATM   28  O2  UNL     1      48.583   6.047  -0.975  1.00  0.00    -0.398 OA
ATOM     29  H2  UNL     1      49.106   5.867  -1.748  1.00  0.00     0.209 HD
ENDBRANCH  27  28
ENDBRANCH  13  27
ENDBRANCH   1  13
BRANCH   3  30
HETATM   30  C13 UNL     1      52.149   7.331   3.871  1.00  0.00     0.125 C 
HETATM   31 CL1  UNL     1      52.721   6.141   2.699  1.00  0.00    -0.130 Cl
ENDBRANCH   3  30
BRANCH   6  32
HETATM   32  O3  UNL     1      47.794   4.026   2.212  1.00  0.00    -0.356 OA
ATOM     33  H3  UNL     1      46.962   3.589   2.353  1.00  0.00     0.218 HD
ENDBRANCH   6  32
BRANCH  12  34
HETATM   34  C22 UNL     1      51.418   4.775   6.384  1.00  0.00     0.036 C 
HETATM   35  C23 UNL     1      52.788   4.386   5.923  1.00  0.00     0.010 C 
ENDBRANCH  12  34
TORSDOF 10
ENDMDL
MODEL 4
REMARK VINA RESULT: -6.927660586      2.198      3.638
REMARK  10 active torsions:
REMARK  status: ('A' for Active; 'I' for Inactive)
REMARK    1  A    between atoms: C2_2  and  C3_3 
REMARK    2  A    between atoms: C3_3  and  C4_4 
REMARK    3  A    between atoms: C7_7  and  N1_8 
REMARK       I    between atoms: N1_8  and  C8_10 
REMARK    4  A    between atoms: C8_10  and  C9_12 
REMARK    5  A    between atoms: C9_12  and  C10_13 
REMARK    6  A    between atoms: C9_12  and  N2_16 
REMARK    7  A    between atoms: C10_13  and  O2_14 
REMARK    8  A    between atoms: C12_18  and  C13_19 
REMARK    9  A    between atoms: C16_23  and  O3_24 
REMARK   10  A    between atoms: C21_31  and  C22_32 
ROOT
HETATM    1  N2  UNL     1      49.210   8.509   1.289  1.00  0.00    -0.362 N 
HETATM    2  C11 UNL     1      50.302   9.057   0.557  1.00  0.00     0.135 C 
HETATM    3  C12 UNL     1      51.514   8.130   0.779  1.00  0.00     0.053 C 
HETATM    4  C14 UNL     1      51.132   7.377   1.963  1.00  0.00    -0.015 A 
HETATM    5  C15 UNL     1      49.777   7.605   2.266  1.00  0.00     0.075 A 
HETATM    6  C16 UNL     1      49.192   7.022   3.366  1.00  0.00     0.128 A 
HETATM    7  C17 UNL     1      49.928   6.185   4.212  1.00  0.00     0.121 A 
HETATM    8  O4  UNL     1      49.617   5.513   5.310  1.00  0.00    -0.319 OA
HETATM    9  C18 UNL     1      50.657   4.858   5.759  1.00  0.00     0.143 A 
HETATM   10  C19 UNL     1      51.722   5.107   4.912  1.00  0.00     0.039 A 
HETATM   11  C20 UNL     1      51.229   5.953   3.938  1.00  0.00     0.009 A 
HETATM   12  C21 UNL     1      51.818   6.552   2.816  1.00  0.00    -0.036 A 
ENDROOT
BRANCH   1  13
HETATM   13  C9  UNL     1      47.811   8.800   1.145  1.00  0.00     0.200 C 
BRANCH  13  14
HETATM   14  C8  UNL     1      47.444  10.078   1.858  1.00  0.00     0.243 C 
HETATM   15  N1  UNL     1      46.556  11.023   1.344  1.00  0.00    -0.355 N 
ATOM     16  H1  UNL     1      46.148  10.822   0.431  1.00  0.00     0.162 HD
HETATM   17  O1  UNL     1      47.984  10.278   2.975  1.00  0.00    -0.271 OA
BRANCH  15  18
HETATM   18  C7  UNL     1      46.162  12.241   1.970  1.00  0.00     0.084 C 
HETATM   19  C6  UNL     1      47.437  13.040   2.289  1.00  0.00     0.025 C 
HETATM   20  C5  UNL     1      46.960  14.103   3.296  1.00  0.00     0.006 C 
HETATM   21  C4  UNL     1      46.033  15.020   2.524  1.00  0.00    -0.014 C 
HETATM   22  C25 UNL     1      44.892  14.345   1.862  1.00  0.00     0.006 C 
HETATM   23  C24 UNL     1      45.324  13.107   1.087  1.00  0.00     0.025 C 
BRANCH  21  24
HETATM   24  C3  UNL     1      45.695  16.263   3.242  1.00  0.00     0.004 C 
BRANCH  24  25
HETATM   25  C2  UNL     1      46.676  17.374   3.255  1.00  0.00    -0.004 C 
HETATM   26  C1  UNL     1      47.492  17.567   4.483  1.00  0.00     0.005 C 
ENDBRANCH  24  25
ENDBRANCH  21  24
ENDBRANCH  15  18
ENDBRANCH  13  14
BRANCH  13  27
HETATM   27  C10 UNL     1      47.362   8.885  -0.295  1.00  0.00     0.199 C 
BRANCH  27  28
HETATM   28  O2  UNL     1      46.002   8.881  -0.458  1.00  0.00    -0.398 OA
ATOM     29  H2  UNL     1      45.593   8.042  -0.282  1.00  0.00     0.209 HD
ENDBRANCH  27  28
ENDBRANCH  13  27
ENDBRANCH   1  13
BRANCH   3  30
HETATM   30  C13 UNL     1      51.702   7.379  -0.491  1.00  0.00     0.125 C 
HETATM   31 CL1  UNL     1      50.736   5.909  -0.637  1.00  0.00    -0.130 Cl
ENDBRANCH   3  30
BRANCH   6  32
HETATM   32  O3  UNL     1      47.868   7.192   3.740  1.00  0.00    -0.356 OA
ATOM     33  H3  UNL     1      47.211   6.506   3.734  1.00  0.00     0.218 HD
ENDBRANCH   6  32
BRANCH  12  34
HETATM   34  C22 UNL     1      53.242   6.214   2.616  1.00  0.00     0.036 C 
HETATM   35  C23 UNL     1      53.349   4.993   1.756  1.00  0.00     0.010 C 
ENDBRANCH  12  34
TORSDOF 10
ENDMDL
MODEL 5
REMARK VINA RESULT: -6.868250779      3.504      5.238
REMARK  10 active torsions:
REMARK  status: ('A' for Active; 'I' for Inactive)
REMARK    1  A    between atoms: C2_2  and  C3_3 
REMARK    2  A    between atoms: C3_3  and  C4_4 
REMARK    3  A    between atoms: C7_7  and  N1_8 
REMARK       I    between atoms: N1_8  and  C8_10 
REMARK    4  A    between atoms: C8_10  and  C9_12 
REMARK    5  A    between atoms: C9_12  and  C10_13 
REMARK    6  A    between atoms: C9_12  and  N2_16 
REMARK    7  A    between atoms: C10_13  and  O2_14 
REMARK    8  A    between atoms: C12_18  and  C13_19 
REMARK    9  A    between atoms: C16_23  and  O3_24 
REMARK   10  A    between atoms: C21_31  and  C22_32 
ROOT
HETATM    1  N2  UNL     1      48.172   8.520  -0.292  1.00  0.00    -0.362 N 
HETATM    2  C11 UNL     1      48.656   8.256  -1.605  1.00  0.00     0.135 C 
HETATM    3  C12 UNL     1      49.831   7.265  -1.470  1.00  0.00     0.053 C 
HETATM    4  C14 UNL     1      50.196   7.387  -0.067  1.00  0.00    -0.015 A 
HETATM    5  C15 UNL     1      49.222   8.130   0.624  1.00  0.00     0.075 A 
HETATM    6  C16 UNL     1      49.364   8.406   1.964  1.00  0.00     0.128 A 
HETATM    7  C17 UNL     1      50.481   7.952   2.677  1.00  0.00     0.121 A 
HETATM    8  O4  UNL     1      50.854   8.073   3.942  1.00  0.00    -0.319 OA
HETATM    9  C18 UNL     1      51.997   7.469   4.143  1.00  0.00     0.143 A 
HETATM   10  C19 UNL     1      52.409   6.914   2.945  1.00  0.00     0.039 A 
HETATM   11  C20 UNL     1      51.425   7.236   2.031  1.00  0.00     0.009 A 
HETATM   12  C21 UNL     1      51.273   6.961   0.665  1.00  0.00    -0.036 A 
ENDROOT
BRANCH   1  13
HETATM   13  C9  UNL     1      46.913   9.096   0.090  1.00  0.00     0.200 C 
BRANCH  13  14
HETATM   14  C8  UNL     1      47.049  10.575   0.358  1.00  0.00     0.243 C 
HETATM   15  N1  UNL     1      46.437  11.227   1.428  1.00  0.00    -0.355 N 
ATOM     16  H1  UNL     1      45.865  10.654   2.049  1.00  0.00     0.162 HD
HETATM   17  O1  UNL     1      47.758  11.232  -0.445  1.00  0.00    -0.271 OA
BRANCH  15  18
HETATM   18  C7  UNL     1      46.533  12.614   1.741  1.00  0.00     0.084 C 
HETATM   19  C6  UNL     1      45.111  13.199   1.725  1.00  0.00     0.025 C 
HETATM   20  C5  UNL     1      45.342  14.720   1.663  1.00  0.00     0.006 C 
HETATM   21  C4  UNL     1      45.974  15.099   2.987  1.00  0.00    -0.014 C 
HETATM   22  C25 UNL     1      47.221  14.371   3.318  1.00  0.00     0.006 C 
HETATM   23  C24 UNL     1      47.088  12.869   3.103  1.00  0.00     0.025 C 
BRANCH  21  24
HETATM   24  C3  UNL     1      46.013  16.553   3.232  1.00  0.00     0.004 C 
BRANCH  24  25
HETATM   25  C2  UNL     1      47.326  17.220   3.393  1.00  0.00    -0.004 C 
HETATM   26  C1  UNL     1      47.746  17.607   4.766  1.00  0.00     0.005 C 
ENDBRANCH  24  25
ENDBRANCH  21  24
ENDBRANCH  15  18
ENDBRANCH  13  14
BRANCH  13  27
HETATM   27  C10 UNL     1      45.819   8.872  -0.928  1.00  0.00     0.199 C 
BRANCH  27  28
HETATM   28  O2  UNL     1      45.077   9.990  -1.206  1.00  0.00    -0.398 OA
ATOM     29  H2  UNL     1      44.236  10.016  -0.763  1.00  0.00     0.209 HD
ENDBRANCH  27  28
ENDBRANCH  13  27
ENDBRANCH   1  13
BRANCH   3  30
HETATM   30  C13 UNL     1      49.322   5.950  -1.944  1.00  0.00     0.125 C 
HETATM   31 CL1  UNL     1      48.959   4.788  -0.666  1.00  0.00    -0.130 Cl
ENDBRANCH   3  30
BRANCH   6  32
HETATM   32  O3  UNL     1      48.458   9.130   2.723  1.00  0.00    -0.356 OA
ATOM     33  H3  UNL     1      47.699   8.761   3.160  1.00  0.00     0.218 HD
ENDBRANCH   6  32
BRANCH  12  34
HETATM   34  C22 UNL     1      52.366   6.162   0.074  1.00  0.00     0.036 C 
HETATM   35  C23 UNL     1      53.353   7.075  -0.584  1.00  0.00     0.010 C 
ENDBRANCH  12  34
TORSDOF 10
ENDMDL
