MODEL 1
REMARK VINA RESULT: -8.299521772      0.000      0.000
REMARK  13 active torsions:
REMARK  status: ('A' for Active; 'I' for Inactive)
REMARK       I    between atoms: C2_2  and  N1_4 
REMARK    1  A    between atoms: N1_4  and  C3_6 
REMARK    2  A    between atoms: C3_6  and  C4_7 
REMARK    3  A    between atoms: C4_7  and  C6_9 
REMARK    4  A    between atoms: C6_9  and  C7_10 
REMARK    5  A    between atoms: C7_10  and  C8_12 
REMARK    6  A    between atoms: C8_12  and  O3_13 
REMARK    7  A    between atoms: C9_15  and  C10_16 
REMARK    8  A    between atoms: C9_15  and  N2_19 
REMARK    9  A    between atoms: C16_24  and  C17_25 
REMARK       I    between atoms: C17_25  and  N3_27 
REMARK   10  A    between atoms: C20_31  and  C21_32 
REMARK   11  A    between atoms: C21_32  and  N5_41 
REMARK   12  A    between atoms: N4_33  and  C22_35 
REMARK   13  A    between atoms: C22_35  and  C24_37 
ROOT
HETATM    1  N5  UNL     1      10.248  20.449  15.450  1.00  0.00    -0.281 N 
ATOM      2  H5  UNL     1      10.370  20.147  16.416  1.00  0.00     0.179 HD
HETATM    3  C28 UNL     1       9.197  21.302  15.166  1.00  0.00     0.183 C 
HETATM    4  N6  UNL     1       8.282  22.017  14.953  1.00  0.00    -0.172 NA
ENDROOT
BRANCH   1   5
HETATM    5  C21 UNL     1      11.154  19.973  14.496  1.00  0.00     0.110 C 
HETATM    6  N4  UNL     1      10.890  18.968  13.786  1.00  0.00    -0.372 N 
ATOM      7  H4  UNL     1      11.663  18.791  13.144  1.00  0.00     0.161 HD
BRANCH   5   8
HETATM    8  C20 UNL     1      12.432  20.626  14.259  1.00  0.00     0.165 C 
HETATM    9  N3  UNL     1      13.473  20.589  15.215  1.00  0.00    -0.329 N 
HETATM   10  C17 UNL     1      13.611  20.239  16.572  1.00  0.00     0.244 C 
HETATM   11  C18 UNL     1      14.666  21.059  14.434  1.00  0.00     0.200 C 
HETATM   12  O5  UNL     1      12.607  19.864  17.204  1.00  0.00    -0.271 OA
HETATM   13  S1  UNL     1      13.935  22.630  13.812  1.00  0.00    -0.147 SA
HETATM   14  C19 UNL     1      12.167  22.126  13.988  1.00  0.00     0.108 C 
BRANCH  10  15
HETATM   15  C16 UNL     1      14.919  20.313  17.236  1.00  0.00     0.185 C 
HETATM   16  N2  UNL     1      15.283  21.623  17.755  1.00  0.00    -0.301 N 
HETATM   17  C13 UNL     1      14.309  21.900  18.759  1.00  0.00     0.225 C 
HETATM   18  O4  UNL     1      13.879  22.999  19.176  1.00  0.00    -0.273 OA
HETATM   19  C14 UNL     1      13.811  20.585  19.312  1.00  0.00     0.106 C 
HETATM   20  C15 UNL     1      14.691  19.586  18.588  1.00  0.00     0.044 C 
BRANCH  16  21
HETATM   21  C9  UNL     1      16.399  22.462  17.436  1.00  0.00     0.076 C 
HETATM   22  C8  UNL     1      16.028  23.733  16.903  1.00  0.00     0.139 C 
BRANCH  22  23
HETATM   23  C7  UNL     1      16.768  24.939  16.626  1.00  0.00     0.184 C 
HETATM   24  O2  UNL     1      16.997  25.739  17.545  1.00  0.00    -0.290 OA
BRANCH  23  25
HETATM   25  C6  UNL     1      17.290  25.301  15.290  1.00  0.00     0.092 C 
BRANCH  25  26
HETATM   26  C4  UNL     1      18.723  25.689  15.345  1.00  0.00     0.007 C 
HETATM   27  C5  UNL     1      19.664  24.534  15.141  1.00  0.00     0.012 C 
BRANCH  26  28
HETATM   28  C3  UNL     1      19.122  26.821  14.437  1.00  0.00     0.127 C 
BRANCH  28  29
HETATM   29  N1  UNL     1      20.564  26.962  14.363  1.00  0.00    -0.361 N 
HETATM   30  C2  UNL     1      21.213  28.037  15.008  1.00  0.00     0.213 C 
HETATM   31  C1  UNL     1      22.706  28.131  14.897  1.00  0.00     0.117 C 
HETATM   32  O1  UNL     1      20.635  28.925  15.668  1.00  0.00    -0.274 OA
ATOM     33  H1  UNL     1      21.113  26.280  13.841  1.00  0.00     0.162 HD
ENDBRANCH  28  29
ENDBRANCH  26  28
ENDBRANCH  25  26
ENDBRANCH  23  25
ENDBRANCH  22  23
BRANCH  22  34
HETATM   34  O3  UNL     1      14.771  23.867  16.590  1.00  0.00    -0.355 OA
ATOM     35  H3  UNL     1      14.221  23.867  17.365  1.00  0.00     0.218 HD
ENDBRANCH  22  34
BRANCH  21  36
HETATM   36  C10 UNL     1      17.476  22.363  18.474  1.00  0.00    -0.058 C 
HETATM   37  C11 UNL     1      17.186  22.957  19.796  1.00  0.00     0.045 C 
HETATM   38  C12 UNL     1      18.882  22.559  18.013  1.00  0.00     0.045 C 
ENDBRANCH  21  36
ENDBRANCH  16  21
ENDBRANCH  10  15
ENDBRANCH   5   8
BRANCH   6  39
HETATM   39  C22 UNL     1       9.904  18.028  13.588  1.00  0.00     0.086 C 
HETATM   40  C23 UNL     1       8.945  18.525  12.493  1.00  0.00     0.033 C 
BRANCH  39  41
HETATM   41  C24 UNL     1      10.589  16.775  12.964  1.00  0.00    -0.031 C 
HETATM   42  C25 UNL     1      10.861  15.756  14.045  1.00  0.00     0.016 C 
HETATM   43  C26 UNL     1      11.870  17.166  12.283  1.00  0.00     0.016 C 
HETATM   44  C27 UNL     1       9.655  16.179  11.931  1.00  0.00     0.016 C 
ENDBRANCH  39  41
ENDBRANCH   6  39
ENDBRANCH   1   5
TORSDOF 13
ENDMDL
MODEL 2
REMARK VINA RESULT: -8.284429836      2.837     10.231
REMARK  13 active torsions:
REMARK  status: ('A' for Active; 'I' for Inactive)
REMARK       I    between atoms: C2_2  and  N1_4 
REMARK    1  A    between atoms: N1_4  and  C3_6 
REMARK    2  A    between atoms: C3_6  and  C4_7 
REMARK    3  A    between atoms: C4_7  and  C6_9 
REMARK    4  A    between atoms: C6_9  and  C7_10 
REMARK    5  A    between atoms: C7_10  and  C8_12 
REMARK    6  A    between atoms: C8_12  and  O3_13 
REMARK    7  A    between atoms: C9_15  and  C10_16 
REMARK    8  A    between atoms: C9_15  and  N2_19 
REMARK    9  A    between atoms: C16_24  and  C17_25 
REMARK       I    between atoms: C17_25  and  N3_27 
REMARK   10  A    between atoms: C20_31  and  C21_32 
REMARK   11  A    between atoms: C21_32  and  N5_41 
REMARK   12  A    between atoms: N4_33  and  C22_35 
REMARK   13  A    between atoms: C22_35  and  C24_37 
ROOT
HETATM    1  N5  UNL     1      21.806  25.926  16.047  1.00  0.00    -0.281 N 
ATOM      2  H5  UNL     1      21.940  25.046  15.551  1.00  0.00     0.179 HD
HETATM    3  C28 UNL     1      22.596  27.003  15.683  1.00  0.00     0.183 C 
HETATM    4  N6  UNL     1      23.295  27.897  15.360  1.00  0.00    -0.172 NA
ENDROOT
BRANCH   1   5
HETATM    5  C21 UNL     1      20.835  25.970  17.054  1.00  0.00     0.110 C 
HETATM    6  N4  UNL     1      21.153  25.963  18.271  1.00  0.00    -0.372 N 
ATOM      7  H4  UNL     1      20.311  26.017  18.844  1.00  0.00     0.161 HD
BRANCH   5   8
HETATM    8  C20 UNL     1      19.416  26.048  16.747  1.00  0.00     0.165 C 
HETATM    9  N3  UNL     1      18.471  25.212  17.385  1.00  0.00    -0.329 N 
HETATM   10  C17 UNL     1      18.498  24.050  18.181  1.00  0.00     0.244 C 
HETATM   11  C18 UNL     1      17.160  25.859  17.042  1.00  0.00     0.200 C 
HETATM   12  O5  UNL     1      19.593  23.522  18.442  1.00  0.00    -0.271 OA
HETATM   13  S1  UNL     1      17.388  25.900  15.215  1.00  0.00    -0.147 SA
HETATM   14  C19 UNL     1      19.233  25.805  15.230  1.00  0.00     0.108 C 
BRANCH  10  15
HETATM   15  C16 UNL     1      17.253  23.467  18.698  1.00  0.00     0.185 C 
HETATM   16  N2  UNL     1      16.625  22.473  17.840  1.00  0.00    -0.301 N 
HETATM   17  C13 UNL     1      17.568  21.405  17.772  1.00  0.00     0.225 C 
HETATM   18  O4  UNL     1      17.753  20.558  16.869  1.00  0.00    -0.273 OA
HETATM   19  C14 UNL     1      18.394  21.419  19.036  1.00  0.00     0.106 C 
HETATM   20  C15 UNL     1      17.729  22.522  19.833  1.00  0.00     0.044 C 
BRANCH  16  21
HETATM   21  C9  UNL     1      15.326  22.465  17.238  1.00  0.00     0.076 C 
HETATM   22  C8  UNL     1      15.354  22.487  15.811  1.00  0.00     0.139 C 
BRANCH  22  23
HETATM   23  C7  UNL     1      14.340  22.302  14.803  1.00  0.00     0.184 C 
HETATM   24  O2  UNL     1      13.598  23.248  14.503  1.00  0.00    -0.290 OA
BRANCH  23  25
HETATM   25  C6  UNL     1      14.115  21.032  14.080  1.00  0.00     0.092 C 
BRANCH  25  26
HETATM   26  C4  UNL     1      12.668  20.748  13.902  1.00  0.00     0.007 C 
HETATM   27  C5  UNL     1      12.397  19.503  13.102  1.00  0.00     0.012 C 
BRANCH  26  28
HETATM   28  C3  UNL     1      11.855  20.711  15.167  1.00  0.00     0.127 C 
BRANCH  28  29
HETATM   29  N1  UNL     1      11.604  19.349  15.601  1.00  0.00    -0.361 N 
HETATM   30  C2  UNL     1      10.908  19.097  16.803  1.00  0.00     0.213 C 
HETATM   31  C1  UNL     1      10.677  17.669  17.200  1.00  0.00     0.117 C 
HETATM   32  O1  UNL     1      10.467  19.978  17.569  1.00  0.00    -0.274 OA
ATOM     33  H1  UNL     1      11.933  18.569  15.033  1.00  0.00     0.162 HD
ENDBRANCH  28  29
ENDBRANCH  26  28
ENDBRANCH  25  26
ENDBRANCH  23  25
ENDBRANCH  22  23
BRANCH  22  34
HETATM   34  O3  UNL     1      16.518  22.720  15.275  1.00  0.00    -0.355 OA
ATOM     35  H3  UNL     1      16.865  23.560  15.554  1.00  0.00     0.218 HD
ENDBRANCH  22  34
BRANCH  21  36
HETATM   36  C10 UNL     1      14.389  21.545  17.961  1.00  0.00    -0.058 C 
HETATM   37  C11 UNL     1      14.158  21.819  19.395  1.00  0.00     0.045 C 
HETATM   38  C12 UNL     1      14.471  20.093  17.625  1.00  0.00     0.045 C 
ENDBRANCH  21  36
ENDBRANCH  16  21
ENDBRANCH  10  15
ENDBRANCH   5   8
BRANCH   6  39
HETATM   39  C22 UNL     1      22.261  25.908  19.087  1.00  0.00     0.086 C 
HETATM   40  C23 UNL     1      22.822  27.328  19.273  1.00  0.00     0.033 C 
BRANCH  39  41
HETATM   41  C24 UNL     1      21.762  25.499  20.505  1.00  0.00    -0.031 C 
HETATM   42  C25 UNL     1      21.936  24.011  20.694  1.00  0.00     0.016 C 
HETATM   43  C26 UNL     1      20.318  25.881  20.680  1.00  0.00     0.016 C 
HETATM   44  C27 UNL     1      22.585  26.240  21.539  1.00  0.00     0.016 C 
ENDBRANCH  39  41
ENDBRANCH   6  39
ENDBRANCH   1   5
TORSDOF 13
ENDMDL
MODEL 3
REMARK VINA RESULT: -8.198946785      3.118      4.966
REMARK  13 active torsions:
REMARK  status: ('A' for Active; 'I' for Inactive)
REMARK       I    between atoms: C2_2  and  N1_4 
REMARK    1  A    between atoms: N1_4  and  C3_6 
REMARK    2  A    between atoms: C3_6  and  C4_7 
REMARK    3  A    between atoms: C4_7  and  C6_9 
REMARK    4  A    between atoms: C6_9  and  C7_10 
REMARK    5  A    between atoms: C7_10  and  C8_12 
REMARK    6  A    between atoms: C8_12  and  O3_13 
REMARK    7  A    between atoms: C9_15  and  C10_16 
REMARK    8  A    between atoms: C9_15  and  N2_19 
REMARK    9  A    between atoms: C16_24  and  C17_25 
REMARK       I    between atoms: C17_25  and  N3_27 
REMARK   10  A    between atoms: C20_31  and  C21_32 
REMARK   11  A    between atoms: C21_32  and  N5_41 
REMARK   12  A    between atoms: N4_33  and  C22_35 
REMARK   13  A    between atoms: C22_35  and  C24_37 
ROOT
HETATM    1  N5  UNL     1      13.553  23.191  16.121  1.00  0.00    -0.281 N 
ATOM      2  H5  UNL     1      13.193  23.886  16.774  1.00  0.00     0.179 HD
HETATM    3  C28 UNL     1      12.961  23.108  14.872  1.00  0.00     0.183 C 
HETATM    4  N6  UNL     1      12.426  23.051  13.822  1.00  0.00    -0.172 NA
ENDROOT
BRANCH   1   5
HETATM    5  C21 UNL     1      14.613  22.382  16.543  1.00  0.00     0.110 C 
HETATM    6  N4  UNL     1      14.420  21.386  17.288  1.00  0.00    -0.372 N 
ATOM      7  H4  UNL     1      15.308  20.918  17.469  1.00  0.00     0.161 HD
BRANCH   5   8
HETATM    8  C20 UNL     1      15.983  22.633  16.127  1.00  0.00     0.165 C 
HETATM    9  N3  UNL     1      17.062  22.555  17.037  1.00  0.00    -0.329 N 
HETATM   10  C17 UNL     1      17.226  22.491  18.435  1.00  0.00     0.244 C 
HETATM   11  C18 UNL     1      18.263  22.535  16.136  1.00  0.00     0.200 C 
HETATM   12  O5  UNL     1      16.218  22.522  19.163  1.00  0.00    -0.271 OA
HETATM   13  S1  UNL     1      17.868  24.059  15.183  1.00  0.00    -0.147 SA
HETATM   14  C19 UNL     1      16.052  24.055  15.519  1.00  0.00     0.108 C 
BRANCH  10  15
HETATM   15  C16 UNL     1      18.566  22.387  19.028  1.00  0.00     0.185 C 
HETATM   16  N2  UNL     1      19.136  23.638  19.504  1.00  0.00    -0.301 N 
HETATM   17  C13 UNL     1      18.266  24.058  20.553  1.00  0.00     0.225 C 
HETATM   18  O4  UNL     1      18.016  25.211  20.973  1.00  0.00    -0.273 OA
HETATM   19  C14 UNL     1      17.620  22.832  21.154  1.00  0.00     0.106 C 
HETATM   20  C15 UNL     1      18.312  21.713  20.402  1.00  0.00     0.044 C 
BRANCH  16  21
HETATM   21  C9  UNL     1      20.339  24.309  19.113  1.00  0.00     0.076 C 
HETATM   22  C8  UNL     1      20.114  25.503  18.364  1.00  0.00     0.139 C 
BRANCH  22  23
HETATM   23  C7  UNL     1      20.977  26.576  17.936  1.00  0.00     0.184 C 
HETATM   24  O2  UNL     1      20.681  27.746  18.217  1.00  0.00    -0.290 OA
BRANCH  23  25
HETATM   25  C6  UNL     1      22.224  26.377  17.167  1.00  0.00     0.092 C 
BRANCH  25  26
HETATM   26  C4  UNL     1      22.706  27.644  16.561  1.00  0.00     0.007 C 
HETATM   27  C5  UNL     1      24.107  28.008  16.972  1.00  0.00     0.012 C 
BRANCH  26  28
HETATM   28  C3  UNL     1      22.590  27.730  15.064  1.00  0.00     0.127 C 
BRANCH  28  29
HETATM   29  N1  UNL     1      21.385  27.080  14.584  1.00  0.00    -0.361 N 
HETATM   30  C2  UNL     1      20.135  27.728  14.678  1.00  0.00     0.213 C 
HETATM   31  C1  UNL     1      18.924  27.007  14.165  1.00  0.00     0.117 C 
HETATM   32  O1  UNL     1      19.956  28.864  15.163  1.00  0.00    -0.274 OA
ATOM     33  H1  UNL     1      21.442  26.148  14.175  1.00  0.00     0.162 HD
ENDBRANCH  28  29
ENDBRANCH  26  28
ENDBRANCH  25  26
ENDBRANCH  23  25
ENDBRANCH  22  23
BRANCH  22  34
HETATM   34  O3  UNL     1      18.888  25.696  17.969  1.00  0.00    -0.355 OA
ATOM     35  H3  UNL     1      18.560  24.948  17.482  1.00  0.00     0.218 HD
ENDBRANCH  22  34
BRANCH  21  36
HETATM   36  C10 UNL     1      21.363  24.287  20.209  1.00  0.00    -0.058 C 
HETATM   37  C11 UNL     1      21.437  25.479  21.078  1.00  0.00     0.045 C 
HETATM   38  C12 UNL     1      22.690  23.686  19.884  1.00  0.00     0.045 C 
ENDBRANCH  21  36
ENDBRANCH  16  21
ENDBRANCH  10  15
ENDBRANCH   5   8
BRANCH   6  39
HETATM   39  C22 UNL     1      13.407  20.717  17.939  1.00  0.00     0.086 C 
HETATM   40  C23 UNL     1      12.449  20.116  16.898  1.00  0.00     0.033 C 
BRANCH  39  41
HETATM   41  C24 UNL     1      14.052  19.481  18.634  1.00  0.00    -0.031 C 
HETATM   42  C25 UNL     1      13.158  18.277  18.459  1.00  0.00     0.016 C 
HETATM   43  C26 UNL     1      14.270  19.759  20.095  1.00  0.00     0.016 C 
HETATM   44  C27 UNL     1      15.396  19.211  17.989  1.00  0.00     0.016 C 
ENDBRANCH  39  41
ENDBRANCH   6  39
ENDBRANCH   1   5
TORSDOF 13
ENDMDL
MODEL 4
REMARK VINA RESULT: -8.177054520      3.747      6.799
REMARK  13 active torsions:
REMARK  status: ('A' for Active; 'I' for Inactive)
REMARK       I    between atoms: C2_2  and  N1_4 
REMARK    1  A    between atoms: N1_4  and  C3_6 
REMARK    2  A    between atoms: C3_6  and  C4_7 
REMARK    3  A    between atoms: C4_7  and  C6_9 
REMARK    4  A    between atoms: C6_9  and  C7_10 
REMARK    5  A    between atoms: C7_10  and  C8_12 
REMARK    6  A    between atoms: C8_12  and  O3_13 
REMARK    7  A    between atoms: C9_15  and  C10_16 
REMARK    8  A    between atoms: C9_15  and  N2_19 
REMARK    9  A    between atoms: C16_24  and  C17_25 
REMARK       I    between atoms: C17_25  and  N3_27 
REMARK   10  A    between atoms: C20_31  and  C21_32 
REMARK   11  A    between atoms: C21_32  and  N5_41 
REMARK   12  A    between atoms: N4_33  and  C22_35 
REMARK   13  A    between atoms: C22_35  and  C24_37 
ROOT
HETATM    1  N5  UNL     1      16.156  20.378  17.756  1.00  0.00    -0.281 N 
ATOM      2  H5  UNL     1      17.142  20.165  17.602  1.00  0.00     0.179 HD
HETATM    3  C28 UNL     1      15.348  19.374  18.259  1.00  0.00     0.183 C 
HETATM    4  N6  UNL     1      14.681  18.492  18.674  1.00  0.00    -0.172 NA
ENDROOT
BRANCH   1   5
HETATM    5  C21 UNL     1      15.708  21.666  17.445  1.00  0.00     0.110 C 
HETATM    6  N4  UNL     1      14.901  21.868  16.501  1.00  0.00    -0.372 N 
ATOM      7  H4  UNL     1      14.684  22.863  16.445  1.00  0.00     0.161 HD
BRANCH   5   8
HETATM    8  C20 UNL     1      16.130  22.830  18.208  1.00  0.00     0.165 C 
HETATM    9  N3  UNL     1      16.708  23.958  17.582  1.00  0.00    -0.329 N 
HETATM   10  C17 UNL     1      17.248  24.270  16.319  1.00  0.00     0.244 C 
HETATM   11  C18 UNL     1      16.654  25.005  18.657  1.00  0.00     0.200 C 
HETATM   12  O5  UNL     1      17.294  23.384  15.447  1.00  0.00    -0.271 OA
HETATM   13  S1  UNL     1      17.512  24.040  19.969  1.00  0.00    -0.147 SA
HETATM   14  C19 UNL     1      17.157  22.368  19.269  1.00  0.00     0.108 C 
BRANCH  10  15
HETATM   15  C16 UNL     1      17.748  25.620  16.030  1.00  0.00     0.185 C 
HETATM   16  N2  UNL     1      19.195  25.771  16.069  1.00  0.00    -0.301 N 
HETATM   17  C13 UNL     1      19.676  24.934  15.019  1.00  0.00     0.225 C 
HETATM   18  O4  UNL     1      20.777  24.350  14.903  1.00  0.00    -0.273 OA
HETATM   19  C14 UNL     1      18.599  24.826  13.967  1.00  0.00     0.106 C 
HETATM   20  C15 UNL     1      17.543  25.773  14.499  1.00  0.00     0.044 C 
BRANCH  16  21
HETATM   21  C9  UNL     1      20.010  26.615  16.890  1.00  0.00     0.076 C 
HETATM   22  C8  UNL     1      20.711  25.914  17.917  1.00  0.00     0.139 C 
BRANCH  22  23
HETATM   23  C7  UNL     1      21.759  26.294  18.830  1.00  0.00     0.184 C 
HETATM   24  O2  UNL     1      21.567  27.224  19.628  1.00  0.00    -0.290 OA
BRANCH  23  25
HETATM   25  C6  UNL     1      23.083  25.638  18.889  1.00  0.00     0.092 C 
BRANCH  25  26
HETATM   26  C4  UNL     1      23.466  25.291  20.282  1.00  0.00     0.007 C 
HETATM   27  C5  UNL     1      22.579  24.248  20.903  1.00  0.00     0.012 C 
BRANCH  26  28
HETATM   28  C3  UNL     1      24.905  24.901  20.480  1.00  0.00     0.127 C 
BRANCH  28  29
HETATM   29  N1  UNL     1      25.111  23.484  20.246  1.00  0.00    -0.361 N 
HETATM   30  C2  UNL     1      25.679  23.032  19.035  1.00  0.00     0.213 C 
HETATM   31  C1  UNL     1      25.869  21.556  18.850  1.00  0.00     0.117 C 
HETATM   32  O1  UNL     1      26.038  23.773  18.097  1.00  0.00    -0.274 OA
ATOM     33  H1  UNL     1      24.843  22.809  20.962  1.00  0.00     0.162 HD
ENDBRANCH  28  29
ENDBRANCH  26  28
ENDBRANCH  25  26
ENDBRANCH  23  25
ENDBRANCH  22  23
BRANCH  22  34
HETATM   34  O3  UNL     1      20.355  24.674  18.094  1.00  0.00    -0.355 OA
ATOM     35  H3  UNL     1      20.826  24.092  17.508  1.00  0.00     0.218 HD
ENDBRANCH  22  34
BRANCH  21  36
HETATM   36  C10 UNL     1      20.711  27.663  16.078  1.00  0.00    -0.058 C 
HETATM   37  C11 UNL     1      19.950  28.262  14.961  1.00  0.00     0.045 C 
HETATM   38  C12 UNL     1      22.155  27.435  15.777  1.00  0.00     0.045 C 
ENDBRANCH  21  36
ENDBRANCH  16  21
ENDBRANCH  10  15
ENDBRANCH   5   8
BRANCH   6  39
HETATM   39  C22 UNL     1      14.214  21.192  15.518  1.00  0.00     0.086 C 
HETATM   40  C23 UNL     1      12.835  20.778  16.059  1.00  0.00     0.033 C 
BRANCH  39  41
HETATM   41  C24 UNL     1      13.896  22.223  14.393  1.00  0.00    -0.031 C 
HETATM   42  C25 UNL     1      12.555  21.905  13.778  1.00  0.00     0.016 C 
HETATM   43  C26 UNL     1      14.971  22.196  13.343  1.00  0.00     0.016 C 
HETATM   44  C27 UNL     1      13.857  23.608  15.006  1.00  0.00     0.016 C 
ENDBRANCH  39  41
ENDBRANCH   6  39
ENDBRANCH   1   5
TORSDOF 13
ENDMDL
MODEL 5
REMARK VINA RESULT: -8.076669742      3.849      6.747
REMARK  13 active torsions:
REMARK  status: ('A' for Active; 'I' for Inactive)
REMARK       I    between atoms: C2_2  and  N1_4 
REMARK    1  A    between atoms: N1_4  and  C3_6 
REMARK    2  A    between atoms: C3_6  and  C4_7 
REMARK    3  A    between atoms: C4_7  and  C6_9 
REMARK    4  A    between atoms: C6_9  and  C7_10 
REMARK    5  A    between atoms: C7_10  and  C8_12 
REMARK    6  A    between atoms: C8_12  and  O3_13 
REMARK    7  A    between atoms: C9_15  and  C10_16 
REMARK    8  A    between atoms: C9_15  and  N2_19 
REMARK    9  A    between atoms: C16_24  and  C17_25 
REMARK       I    between atoms: C17_25  and  N3_27 
REMARK   10  A    between atoms: C20_31  and  C21_32 
REMARK   11  A    between atoms: C21_32  and  N5_41 
REMARK   12  A    between atoms: N4_33  and  C22_35 
REMARK   13  A    between atoms: C22_35  and  C24_37 
ROOT
HETATM    1  N5  UNL     1      16.118  20.352  17.633  1.00  0.00    -0.281 N 
ATOM      2  H5  UNL     1      17.090  20.141  17.411  1.00  0.00     0.179 HD
HETATM    3  C28 UNL     1      15.343  19.343  18.178  1.00  0.00     0.183 C 
HETATM    4  N6  UNL     1      14.704  18.458  18.627  1.00  0.00    -0.172 NA
ENDROOT
BRANCH   1   5
HETATM    5  C21 UNL     1      15.651  21.644  17.366  1.00  0.00     0.110 C 
HETATM    6  N4  UNL     1      14.816  21.863  16.451  1.00  0.00    -0.372 N 
ATOM      7  H4  UNL     1      14.590  22.857  16.426  1.00  0.00     0.161 HD
BRANCH   5   8
HETATM    8  C20 UNL     1      16.087  22.792  18.144  1.00  0.00     0.165 C 
HETATM    9  N3  UNL     1      16.669  23.927  17.532  1.00  0.00    -0.329 N 
HETATM   10  C17 UNL     1      17.200  24.255  16.270  1.00  0.00     0.244 C 
HETATM   11  C18 UNL     1      16.631  24.957  18.624  1.00  0.00     0.200 C 
HETATM   12  O5  UNL     1      17.234  23.383  15.383  1.00  0.00    -0.271 OA
HETATM   13  S1  UNL     1      17.492  23.965  19.913  1.00  0.00    -0.147 SA
HETATM   14  C19 UNL     1      17.120  22.307  19.189  1.00  0.00     0.108 C 
BRANCH  10  15
HETATM   15  C16 UNL     1      17.708  25.607  15.999  1.00  0.00     0.185 C 
HETATM   16  N2  UNL     1      19.156  25.749  16.037  1.00  0.00    -0.301 N 
HETATM   17  C13 UNL     1      19.630  24.924  14.975  1.00  0.00     0.225 C 
HETATM   18  O4  UNL     1      20.727  24.335  14.848  1.00  0.00    -0.273 OA
HETATM   19  C14 UNL     1      18.549  24.836  13.923  1.00  0.00     0.106 C 
HETATM   20  C15 UNL     1      17.500  25.782  14.471  1.00  0.00     0.044 C 
BRANCH  16  21
HETATM   21  C9  UNL     1      19.978  26.576  16.868  1.00  0.00     0.076 C 
HETATM   22  C8  UNL     1      20.660  25.859  17.897  1.00  0.00     0.139 C 
BRANCH  22  23
HETATM   23  C7  UNL     1      21.707  26.219  18.820  1.00  0.00     0.184 C 
HETATM   24  O2  UNL     1      22.760  25.564  18.834  1.00  0.00    -0.290 OA
BRANCH  23  25
HETATM   25  C6  UNL     1      21.617  27.344  19.776  1.00  0.00     0.092 C 
BRANCH  25  26
HETATM   26  C4  UNL     1      21.430  26.868  21.170  1.00  0.00     0.007 C 
HETATM   27  C5  UNL     1      20.745  25.532  21.259  1.00  0.00     0.012 C 
BRANCH  26  28
HETATM   28  C3  UNL     1      22.672  26.846  22.019  1.00  0.00     0.127 C 
BRANCH  28  29
HETATM   29  N1  UNL     1      23.553  25.755  21.647  1.00  0.00    -0.361 N 
HETATM   30  C2  UNL     1      24.955  25.909  21.722  1.00  0.00     0.213 C 
HETATM   31  C1  UNL     1      25.816  24.747  21.326  1.00  0.00     0.117 C 
HETATM   32  O1  UNL     1      25.538  26.948  22.094  1.00  0.00    -0.274 OA
ATOM     33  H1  UNL     1      23.158  24.871  21.329  1.00  0.00     0.162 HD
ENDBRANCH  28  29
ENDBRANCH  26  28
ENDBRANCH  25  26
ENDBRANCH  23  25
ENDBRANCH  22  23
BRANCH  22  34
HETATM   34  O3  UNL     1      20.284  24.624  18.065  1.00  0.00    -0.355 OA
ATOM     35  H3  UNL     1      19.472  24.574  18.556  1.00  0.00     0.218 HD
ENDBRANCH  22  34
BRANCH  21  36
HETATM   36  C10 UNL     1      20.700  27.617  16.066  1.00  0.00    -0.058 C 
HETATM   37  C11 UNL     1      19.954  28.240  14.953  1.00  0.00     0.045 C 
HETATM   38  C12 UNL     1      22.140  27.363  15.766  1.00  0.00     0.045 C 
ENDBRANCH  21  36
ENDBRANCH  16  21
ENDBRANCH  10  15
ENDBRANCH   5   8
BRANCH   6  39
HETATM   39  C22 UNL     1      14.105  21.205  15.472  1.00  0.00     0.086 C 
HETATM   40  C23 UNL     1      12.751  20.755  16.047  1.00  0.00     0.033 C 
BRANCH  39  41
HETATM   41  C24 UNL     1      13.735  22.264  14.390  1.00  0.00    -0.031 C 
HETATM   42  C25 UNL     1      14.732  22.201  13.258  1.00  0.00     0.016 C 
HETATM   43  C26 UNL     1      13.716  23.640  14.992  1.00  0.00     0.016 C 
HETATM   44  C27 UNL     1      12.350  21.950  13.862  1.00  0.00     0.016 C 
ENDBRANCH  39  41
ENDBRANCH   6  39
ENDBRANCH   1   5
TORSDOF 13
ENDMDL
