MODEL 1
REMARK VINA RESULT: -5.926817814      0.000      0.000
REMARK  3 active torsions:
REMARK  status: ('A' for Active; 'I' for Inactive)
REMARK    1  A    between atoms: C2_2  and  C3_3 
REMARK    2  A    between atoms: C2_2  and  C4_10 
REMARK       I    between atoms: C3_3  and  N1_5 
REMARK    3  A    between atoms: N1_5  and  N2_7 
ROOT
HETATM    1  C1  UNL     1      23.106 -13.379  -5.248  1.00  0.00     0.020 C 
HETATM    2  C2  UNL     1      22.740 -12.347  -6.290  1.00  0.00     0.079 C 
ENDROOT
BRANCH   2   3
HETATM    3  C3  UNL     1      23.017 -12.984  -7.624  1.00  0.00     0.239 C 
HETATM    4  O1  UNL     1      22.352 -13.963  -8.037  1.00  0.00    -0.271 OA
HETATM    5  N1  UNL     1      24.045 -12.486  -8.451  1.00  0.00    -0.276 N 
ATOM      6  H1  UNL     1      24.607 -11.690  -8.148  1.00  0.00     0.189 HD
BRANCH   5   7
HETATM    7  N2  UNL     1      24.291 -13.086  -9.686  1.00  0.00    -0.343 N 
ATOM      8  H22 UNL     1      23.847 -12.704 -10.521  1.00  0.00     0.176 HD
ATOM      9  H21 UNL     1      24.908 -13.896  -9.741  1.00  0.00     0.176 HD
ENDBRANCH   5   7
ENDBRANCH   2   3
BRANCH   2  10
HETATM   10  C4  UNL     1      21.239 -12.048  -6.169  1.00  0.00    -0.002 C 
HETATM   11  C5  UNL     1      20.655 -12.782  -5.016  1.00  0.00     0.005 C 
HETATM   12  C6  UNL     1      19.174 -13.048  -5.261  1.00  0.00     0.000 C 
HETATM   13  C7  UNL     1      18.424 -11.969  -4.509  1.00  0.00     0.000 C 
HETATM   14  C8  UNL     1      18.628 -10.677  -5.287  1.00  0.00     0.000 C 
HETATM   15  C9  UNL     1      20.007 -10.126  -5.120  1.00  0.00     0.000 C 
HETATM   16  C10 UNL     1      20.970 -10.589  -6.182  1.00  0.00     0.005 C 
ENDBRANCH   2  10
TORSDOF 3
ENDMDL
MODEL 2
REMARK VINA RESULT: -5.359963472      1.736      2.955
REMARK  3 active torsions:
REMARK  status: ('A' for Active; 'I' for Inactive)
REMARK    1  A    between atoms: C2_2  and  C3_3 
REMARK    2  A    between atoms: C2_2  and  C4_10 
REMARK       I    between atoms: C3_3  and  N1_5 
REMARK    3  A    between atoms: N1_5  and  N2_7 
ROOT
HETATM    1  C1  UNL     1      21.153 -10.344  -6.338  1.00  0.00     0.020 C 
HETATM    2  C2  UNL     1      20.436 -11.674  -6.327  1.00  0.00     0.079 C 
ENDROOT
BRANCH   2   3
HETATM    3  C3  UNL     1      21.497 -12.718  -6.116  1.00  0.00     0.239 C 
HETATM    4  O1  UNL     1      21.392 -13.595  -5.226  1.00  0.00    -0.271 OA
HETATM    5  N1  UNL     1      22.652 -12.735  -6.927  1.00  0.00    -0.276 N 
ATOM      6  H1  UNL     1      22.772 -12.037  -7.662  1.00  0.00     0.189 HD
BRANCH   5   7
HETATM    7  N2  UNL     1      23.628 -13.709  -6.720  1.00  0.00    -0.343 N 
ATOM      8  H22 UNL     1      23.491 -14.641  -7.113  1.00  0.00     0.176 HD
ATOM      9  H21 UNL     1      24.464 -13.482  -6.182  1.00  0.00     0.176 HD
ENDBRANCH   5   7
ENDBRANCH   2   3
BRANCH   2  10
HETATM   10  C4  UNL     1      19.463 -11.689  -5.139  1.00  0.00    -0.002 C 
HETATM   11  C5  UNL     1      18.691 -10.420  -5.085  1.00  0.00     0.005 C 
HETATM   12  C6  UNL     1      18.263 -10.129  -3.651  1.00  0.00     0.000 C 
HETATM   13  C7  UNL     1      16.829 -10.602  -3.537  1.00  0.00     0.000 C 
HETATM   14  C8  UNL     1      16.874 -12.122  -3.532  1.00  0.00     0.000 C 
HETATM   15  C9  UNL     1      17.170 -12.686  -4.884  1.00  0.00     0.000 C 
HETATM   16  C10 UNL     1      18.638 -12.923  -5.126  1.00  0.00     0.005 C 
ENDBRANCH   2  10
TORSDOF 3
ENDMDL
MODEL 3
REMARK VINA RESULT: -5.126567693      5.873      7.381
REMARK  3 active torsions:
REMARK  status: ('A' for Active; 'I' for Inactive)
REMARK    1  A    between atoms: C2_2  and  C3_3 
REMARK    2  A    between atoms: C2_2  and  C4_10 
REMARK       I    between atoms: C3_3  and  N1_5 
REMARK    3  A    between atoms: N1_5  and  N2_7 
ROOT
HETATM    1  C1  UNL     1      25.199 -12.086  -9.648  1.00  0.00     0.020 C 
HETATM    2  C2  UNL     1      25.749 -11.936 -11.047  1.00  0.00     0.079 C 
ENDROOT
BRANCH   2   3
HETATM    3  C3  UNL     1      24.633 -12.323 -11.978  1.00  0.00     0.239 C 
HETATM    4  O1  UNL     1      24.794 -12.365 -13.220  1.00  0.00    -0.271 OA
HETATM    5  N1  UNL     1      23.360 -12.653 -11.466  1.00  0.00    -0.276 N 
ATOM      6  H1  UNL     1      23.191 -12.631 -10.460  1.00  0.00     0.189 HD
BRANCH   5   7
HETATM    7  N2  UNL     1      22.334 -13.011 -12.341  1.00  0.00    -0.343 N 
ATOM      8  H22 UNL     1      22.246 -12.520 -13.231  1.00  0.00     0.176 HD
ATOM      9  H21 UNL     1      21.686 -13.755 -12.083  1.00  0.00     0.176 HD
ENDBRANCH   5   7
ENDBRANCH   2   3
BRANCH   2  10
HETATM   10  C4  UNL     1      26.109 -10.460 -11.270  1.00  0.00    -0.002 C 
HETATM   11  C5  UNL     1      24.902  -9.604 -11.122  1.00  0.00     0.005 C 
HETATM   12  C6  UNL     1      25.058  -8.334 -11.951  1.00  0.00     0.000 C 
HETATM   13  C7  UNL     1      25.514  -7.258 -10.989  1.00  0.00     0.000 C 
HETATM   14  C8  UNL     1      26.964  -7.569 -10.647  1.00  0.00     0.000 C 
HETATM   15  C9  UNL     1      27.091  -8.738  -9.725  1.00  0.00     0.000 C 
HETATM   16  C10 UNL     1      27.271 -10.051 -10.443  1.00  0.00     0.005 C 
ENDBRANCH   2  10
TORSDOF 3
ENDMDL
MODEL 4
REMARK VINA RESULT: -4.951756298      6.444      8.447
REMARK  3 active torsions:
REMARK  status: ('A' for Active; 'I' for Inactive)
REMARK    1  A    between atoms: C2_2  and  C3_3 
REMARK    2  A    between atoms: C2_2  and  C4_10 
REMARK       I    between atoms: C3_3  and  N1_5 
REMARK    3  A    between atoms: N1_5  and  N2_7 
ROOT
HETATM    1  C1  UNL     1      27.823 -11.626 -10.844  1.00  0.00     0.020 C 
HETATM    2  C2  UNL     1      26.911 -10.423 -10.834  1.00  0.00     0.079 C 
ENDROOT
BRANCH   2   3
HETATM    3  C3  UNL     1      25.630 -10.875 -10.188  1.00  0.00     0.239 C 
HETATM    4  O1  UNL     1      24.528 -10.351 -10.471  1.00  0.00    -0.271 OA
HETATM    5  N1  UNL     1      25.642 -11.915  -9.235  1.00  0.00    -0.276 N 
ATOM      6  H1  UNL     1      26.521 -12.366  -8.980  1.00  0.00     0.189 HD
BRANCH   5   7
HETATM    7  N2  UNL     1      24.447 -12.325  -8.644  1.00  0.00    -0.343 N 
ATOM      8  H22 UNL     1      24.364 -12.309  -7.627  1.00  0.00     0.176 HD
ATOM      9  H21 UNL     1      23.673 -12.635  -9.230  1.00  0.00     0.176 HD
ENDBRANCH   5   7
ENDBRANCH   2   3
BRANCH   2  10
HETATM   10  C4  UNL     1      27.559  -9.331  -9.971  1.00  0.00    -0.002 C 
HETATM   11  C5  UNL     1      28.875  -9.790  -9.456  1.00  0.00     0.005 C 
HETATM   12  C6  UNL     1      29.199  -9.082  -8.145  1.00  0.00     0.000 C 
HETATM   13  C7  UNL     1      30.128  -7.941  -8.504  1.00  0.00     0.000 C 
HETATM   14  C8  UNL     1      29.276  -6.893  -9.205  1.00  0.00     0.000 C 
HETATM   15  C9  UNL     1      28.904  -7.301 -10.594  1.00  0.00     0.000 C 
HETATM   16  C10 UNL     1      27.584  -8.023 -10.673  1.00  0.00     0.005 C 
ENDBRANCH   2  10
TORSDOF 3
ENDMDL
MODEL 5
REMARK VINA RESULT: -4.890065033      5.856      7.266
REMARK  3 active torsions:
REMARK  status: ('A' for Active; 'I' for Inactive)
REMARK    1  A    between atoms: C2_2  and  C3_3 
REMARK    2  A    between atoms: C2_2  and  C4_10 
REMARK       I    between atoms: C3_3  and  N1_5 
REMARK    3  A    between atoms: N1_5  and  N2_7 
ROOT
HETATM    1  C1  UNL     1      25.066 -12.574  -9.540  1.00  0.00     0.020 C 
HETATM    2  C2  UNL     1      26.398 -12.355 -10.217  1.00  0.00     0.079 C 
ENDROOT
BRANCH   2   3
HETATM    3  C3  UNL     1      26.435 -13.303 -11.384  1.00  0.00     0.239 C 
HETATM    4  O1  UNL     1      27.477 -13.926 -11.695  1.00  0.00    -0.271 OA
HETATM    5  N1  UNL     1      25.280 -13.516 -12.165  1.00  0.00    -0.276 N 
ATOM      6  H1  UNL     1      24.413 -13.026 -11.942  1.00  0.00     0.189 HD
BRANCH   5   7
HETATM    7  N2  UNL     1      25.327 -14.398 -13.244  1.00  0.00    -0.343 N 
ATOM      8  H22 UNL     1      26.210 -14.530 -13.740  1.00  0.00     0.176 HD
ATOM      9  H21 UNL     1      24.485 -14.899 -13.526  1.00  0.00     0.176 HD
ENDBRANCH   5   7
ENDBRANCH   2   3
BRANCH   2  10
HETATM   10  C4  UNL     1      26.447 -10.910 -10.734  1.00  0.00    -0.002 C 
HETATM   11  C5  UNL     1      25.106 -10.277 -10.631  1.00  0.00     0.005 C 
HETATM   12  C6  UNL     1      24.961  -9.186 -11.686  1.00  0.00     0.000 C 
HETATM   13  C7  UNL     1      25.249  -7.878 -10.979  1.00  0.00     0.000 C 
HETATM   14  C8  UNL     1      26.749  -7.847 -10.722  1.00  0.00     0.000 C 
HETATM   15  C9  UNL     1      27.155  -8.771  -9.620  1.00  0.00     0.000 C 
HETATM   16  C10 UNL     1      27.550 -10.142 -10.104  1.00  0.00     0.005 C 
ENDBRANCH   2  10
TORSDOF 3
ENDMDL
