MODEL 1
REMARK VINA RESULT: -6.410601450      0.000      0.000
REMARK  3 active torsions:
REMARK  status: ('A' for Active; 'I' for Inactive)
REMARK    1  A    between atoms: N1_2  and  O1_3 
REMARK    2  A    between atoms: N1_2  and  N2_5 
REMARK       I    between atoms: N2_5  and  C2_7 
REMARK       I    between atoms: C2_7  and  N4_11 
REMARK    3  A    between atoms: N4_11  and  C3_13 
ROOT
HETATM    1  N2  UNL     1      23.102 -13.064  -6.623  1.00  0.00    -0.107 N 
ATOM      2  H2  UNL     1      23.785 -13.239  -5.887  1.00  0.00     0.208 HD
HETATM    3  C2  UNL     1      21.878 -12.399  -6.340  1.00  0.00     0.688 C 
HETATM    4  N3  UNL     1      21.824 -11.136  -6.537  1.00  0.00    -0.234 N 
ATOM      5  H31 UNL     1      20.945 -10.660  -6.334  1.00  0.00     0.174 HD
ATOM      6  H32 UNL     1      22.631 -10.620  -6.887  1.00  0.00     0.174 HD
HETATM    7  N4  UNL     1      20.753 -13.120  -5.853  1.00  0.00    -0.221 N 
ATOM      8  H4  UNL     1      20.618 -14.102  -6.095  1.00  0.00     0.178 HD
ENDROOT
BRANCH   1   9
HETATM    9  N1  UNL     1      23.342 -13.470  -7.937  1.00  0.00    -0.171 N 
HETATM   10  C1  UNL     1      24.449 -13.176  -8.514  1.00  0.00     0.178 C 
BRANCH   9  11
HETATM   11  O1  UNL     1      22.354 -14.184  -8.562  1.00  0.00    -0.269 OA
ATOM     12  H1  UNL     1      22.091 -15.051  -8.275  1.00  0.00     0.247 HD
ENDBRANCH   9  11
ENDBRANCH   1   9
BRANCH   7  13
HETATM   13  C3  UNL     1      19.809 -12.435  -5.010  1.00  0.00     0.099 C 
HETATM   14  C4  UNL     1      19.354 -13.303  -3.836  1.00  0.00     0.026 C 
HETATM   15  C5  UNL     1      18.176 -12.427  -3.376  1.00  0.00     0.002 C 
HETATM   16  C6  UNL     1      17.412 -12.334  -4.671  1.00  0.00     0.002 C 
HETATM   17  C7  UNL     1      18.518 -12.121  -5.685  1.00  0.00     0.026 C 
ENDBRANCH   7  13
TORSDOF 3
ENDMDL
MODEL 2
REMARK VINA RESULT: -5.640125979      1.584      1.988
REMARK  3 active torsions:
REMARK  status: ('A' for Active; 'I' for Inactive)
REMARK    1  A    between atoms: N1_2  and  O1_3 
REMARK    2  A    between atoms: N1_2  and  N2_5 
REMARK       I    between atoms: N2_5  and  C2_7 
REMARK       I    between atoms: C2_7  and  N4_11 
REMARK    3  A    between atoms: N4_11  and  C3_13 
ROOT
HETATM    1  N2  UNL     1      23.174 -13.421  -7.876  1.00  0.00    -0.107 N 
ATOM      2  H2  UNL     1      22.719 -14.286  -8.166  1.00  0.00     0.208 HD
HETATM    3  C2  UNL     1      22.748 -12.727  -6.712  1.00  0.00     0.688 C 
HETATM    4  N3  UNL     1      23.372 -12.955  -5.618  1.00  0.00    -0.234 N 
ATOM      5  H31 UNL     1      23.066 -12.457  -4.782  1.00  0.00     0.174 HD
ATOM      6  H32 UNL     1      24.150 -13.613  -5.579  1.00  0.00     0.174 HD
HETATM    7  N4  UNL     1      21.662 -11.810  -6.766  1.00  0.00    -0.221 N 
ATOM      8  H4  UNL     1      21.454 -11.299  -7.624  1.00  0.00     0.178 HD
ENDROOT
BRANCH   1   9
HETATM    9  N1  UNL     1      24.233 -12.886  -8.612  1.00  0.00    -0.171 N 
HETATM   10  C1  UNL     1      24.841 -13.599  -9.488  1.00  0.00     0.178 C 
BRANCH   9  11
HETATM   11  O1  UNL     1      24.580 -11.585  -8.354  1.00  0.00    -0.269 OA
ATOM     12  H1  UNL     1      24.029 -11.002  -7.844  1.00  0.00     0.247 HD
ENDBRANCH   9  11
ENDBRANCH   1   9
BRANCH   7  13
HETATM   13  C3  UNL     1      20.864 -11.618  -5.584  1.00  0.00     0.099 C 
HETATM   14  C4  UNL     1      19.625 -12.515  -5.580  1.00  0.00     0.026 C 
HETATM   15  C5  UNL     1      18.887 -11.840  -4.411  1.00  0.00     0.002 C 
HETATM   16  C6  UNL     1      18.869 -10.419  -4.911  1.00  0.00     0.002 C 
HETATM   17  C7  UNL     1      20.266 -10.258  -5.477  1.00  0.00     0.026 C 
ENDBRANCH   7  13
TORSDOF 3
ENDMDL
MODEL 3
REMARK VINA RESULT: -5.398937343      3.700      7.320
REMARK  3 active torsions:
REMARK  status: ('A' for Active; 'I' for Inactive)
REMARK    1  A    between atoms: N1_2  and  O1_3 
REMARK    2  A    between atoms: N1_2  and  N2_5 
REMARK       I    between atoms: N2_5  and  C2_7 
REMARK       I    between atoms: C2_7  and  N4_11 
REMARK    3  A    between atoms: N4_11  and  C3_13 
ROOT
HETATM    1  N2  UNL     1      24.621 -13.464  -8.553  1.00  0.00    -0.107 N 
ATOM      2  H2  UNL     1      25.352 -14.134  -8.317  1.00  0.00     0.208 HD
HETATM    3  C2  UNL     1      24.864 -12.411  -9.475  1.00  0.00     0.688 C 
HETATM    4  N3  UNL     1      24.534 -12.597 -10.697  1.00  0.00    -0.234 N 
ATOM      5  H31 UNL     1      24.710 -11.841 -11.359  1.00  0.00     0.174 HD
ATOM      6  H32 UNL     1      24.109 -13.473 -11.003  1.00  0.00     0.174 HD
HETATM    7  N4  UNL     1      25.457 -11.190  -9.048  1.00  0.00    -0.221 N 
ATOM      8  H4  UNL     1      25.325 -10.853  -8.095  1.00  0.00     0.178 HD
ENDROOT
BRANCH   1   9
HETATM    9  N1  UNL     1      23.352 -13.555  -7.978  1.00  0.00    -0.171 N 
HETATM   10  C1  UNL     1      23.147 -13.122  -6.788  1.00  0.00     0.178 C 
BRANCH   9  11
HETATM   11  O1  UNL     1      22.360 -14.122  -8.735  1.00  0.00    -0.269 OA
ATOM     12  H1  UNL     1      22.420 -14.194  -9.681  1.00  0.00     0.247 HD
ENDBRANCH   9  11
ENDBRANCH   1   9
BRANCH   7  13
HETATM   13  C3  UNL     1      26.246 -10.442  -9.991  1.00  0.00     0.099 C 
HETATM   14  C4  UNL     1      27.346  -9.632  -9.301  1.00  0.00     0.026 C 
HETATM   15  C5  UNL     1      27.743  -8.758 -10.502  1.00  0.00     0.002 C 
HETATM   16  C6  UNL     1      26.395  -8.181 -10.849  1.00  0.00     0.002 C 
HETATM   17  C7  UNL     1      25.482  -9.383 -10.708  1.00  0.00     0.026 C 
ENDBRANCH   7  13
TORSDOF 3
ENDMDL
MODEL 4
REMARK VINA RESULT: -5.296725471      1.594      2.177
REMARK  3 active torsions:
REMARK  status: ('A' for Active; 'I' for Inactive)
REMARK    1  A    between atoms: N1_2  and  O1_3 
REMARK    2  A    between atoms: N1_2  and  N2_5 
REMARK       I    between atoms: N2_5  and  C2_7 
REMARK       I    between atoms: C2_7  and  N4_11 
REMARK    3  A    between atoms: N4_11  and  C3_13 
ROOT
HETATM    1  N2  UNL     1      23.346 -13.454  -8.394  1.00  0.00    -0.107 N 
ATOM      2  H2  UNL     1      22.767 -14.161  -8.847  1.00  0.00     0.208 HD
HETATM    3  C2  UNL     1      22.997 -12.935  -7.118  1.00  0.00     0.688 C 
HETATM    4  N3  UNL     1      23.537 -13.467  -6.087  1.00  0.00    -0.234 N 
ATOM      5  H31 UNL     1      23.287 -13.094  -5.171  1.00  0.00     0.174 HD
ATOM      6  H32 UNL     1      24.198 -14.239  -6.175  1.00  0.00     0.174 HD
HETATM    7  N4  UNL     1      22.077 -11.857  -6.996  1.00  0.00    -0.221 N 
ATOM      8  H4  UNL     1      21.983 -11.165  -7.739  1.00  0.00     0.178 HD
ENDROOT
BRANCH   1   9
HETATM    9  N1  UNL     1      24.502 -12.970  -9.009  1.00  0.00    -0.171 N 
HETATM   10  C1  UNL     1      24.801 -11.725  -8.938  1.00  0.00     0.178 C 
BRANCH   9  11
HETATM   11  O1  UNL     1      25.281 -13.877  -9.678  1.00  0.00    -0.269 OA
ATOM     12  H1  UNL     1      24.928 -14.467 -10.335  1.00  0.00     0.247 HD
ENDBRANCH   9  11
ENDBRANCH   1   9
BRANCH   7  13
HETATM   13  C3  UNL     1      21.279 -11.765  -5.802  1.00  0.00     0.099 C 
HETATM   14  C4  UNL     1      20.156 -12.804  -5.782  1.00  0.00     0.026 C 
HETATM   15  C5  UNL     1      19.361 -12.225  -4.600  1.00  0.00     0.002 C 
HETATM   16  C6  UNL     1      19.165 -10.815  -5.094  1.00  0.00     0.002 C 
HETATM   17  C7  UNL     1      20.524 -10.486  -5.679  1.00  0.00     0.026 C 
ENDBRANCH   7  13
TORSDOF 3
ENDMDL
MODEL 5
REMARK VINA RESULT: -5.220460867      1.750      2.128
REMARK  3 active torsions:
REMARK  status: ('A' for Active; 'I' for Inactive)
REMARK    1  A    between atoms: N1_2  and  O1_3 
REMARK    2  A    between atoms: N1_2  and  N2_5 
REMARK       I    between atoms: N2_5  and  C2_7 
REMARK       I    between atoms: C2_7  and  N4_11 
REMARK    3  A    between atoms: N4_11  and  C3_13 
ROOT
HETATM    1  N2  UNL     1      21.553 -13.275  -6.878  1.00  0.00    -0.107 N 
ATOM      2  H2  UNL     1      20.992 -13.590  -7.669  1.00  0.00     0.208 HD
HETATM    3  C2  UNL     1      20.939 -12.874  -5.661  1.00  0.00     0.688 C 
HETATM    4  N3  UNL     1      20.832 -13.744  -4.730  1.00  0.00    -0.234 N 
ATOM      5  H31 UNL     1      20.391 -13.456  -3.856  1.00  0.00     0.174 HD
ATOM      6  H32 UNL     1      21.176 -14.697  -4.853  1.00  0.00     0.174 HD
HETATM    7  N4  UNL     1      20.459 -11.546  -5.490  1.00  0.00    -0.221 N 
ATOM      8  H4  UNL     1      20.894 -10.767  -5.984  1.00  0.00     0.178 HD
ENDROOT
BRANCH   1   9
HETATM    9  N1  UNL     1      22.945 -13.227  -6.961  1.00  0.00    -0.171 N 
HETATM   10  C1  UNL     1      23.544 -13.589  -8.036  1.00  0.00     0.178 C 
BRANCH   9  11
HETATM   11  O1  UNL     1      23.623 -12.782  -5.856  1.00  0.00    -0.269 OA
ATOM     12  H1  UNL     1      23.198 -12.652  -5.016  1.00  0.00     0.247 HD
ENDBRANCH   9  11
ENDBRANCH   1   9
BRANCH   7  13
HETATM   13  C3  UNL     1      19.346 -11.325  -4.605  1.00  0.00     0.099 C 
HETATM   14  C4  UNL     1      18.053 -11.934  -5.149  1.00  0.00     0.026 C 
HETATM   15  C5  UNL     1      17.079 -11.255  -4.171  1.00  0.00     0.002 C 
HETATM   16  C6  UNL     1      17.463  -9.816  -4.391  1.00  0.00     0.002 C 
HETATM   17  C7  UNL     1      18.976  -9.890  -4.451  1.00  0.00     0.026 C 
ENDBRANCH   7  13
TORSDOF 3
ENDMDL
