MODEL 1
REMARK VINA RESULT: -7.827276383      0.000      0.000
REMARK  3 active torsions:
REMARK  status: ('A' for Active; 'I' for Inactive)
REMARK    1  A    between atoms: O1_2  and  C2_3 
REMARK    2  A    between atoms: C2_3  and  C3_5 
REMARK    3  A    between atoms: C17_22  and  O5_23 
ROOT
HETATM    1  C3  UNL     1       5.311  35.141  26.552  1.00  0.00     0.124 C 
HETATM    2  C4  UNL     1       6.767  34.932  26.185  1.00  0.00     0.052 C 
HETATM    3  C5  UNL     1       6.921  34.005  25.039  1.00  0.00     0.155 C 
HETATM    4  O3  UNL     1       7.973  33.100  25.163  1.00  0.00    -0.348 OA
HETATM    5  C6  UNL     1       7.565  31.941  24.519  1.00  0.00     0.158 C 
HETATM    6  C7  UNL     1       7.811  30.705  25.358  1.00  0.00     0.078 C 
HETATM    7  C8  UNL     1       8.300  31.871  23.202  1.00  0.00     0.078 C 
HETATM    8  O4  UNL     1       6.221  32.039  24.252  1.00  0.00    -0.347 OA
HETATM    9  C9  UNL     1       5.760  33.000  25.112  1.00  0.00     0.163 C 
HETATM   10  C10 UNL     1       4.524  33.703  24.707  1.00  0.00     0.087 C 
HETATM   11  C11 UNL     1       3.349  33.105  25.380  1.00  0.00     0.233 C 
HETATM   12  C12 UNL     1       2.679  31.974  24.704  1.00  0.00     0.038 C 
HETATM   13  C13 UNL     1       1.255  32.166  25.260  1.00  0.00     0.037 C 
HETATM   14  C14 UNL     1       1.218  33.623  25.753  1.00  0.00     0.219 C 
HETATM   15  C15 UNL     1      -0.085  34.200  25.243  1.00  0.00     0.043 C 
HETATM   16  N1  UNL     1       2.360  34.174  25.122  1.00  0.00     0.101 N 
HETATM   17  C16 UNL     1       2.993  35.276  25.751  1.00  0.00     0.312 C 
HETATM   18  C17 UNL     1       4.452  35.117  25.296  1.00  0.00     0.105 C 
ENDROOT
BRANCH   1  19
HETATM   19  C2  UNL     1       5.096  36.372  27.338  1.00  0.00     0.265 C 
HETATM   20  O2  UNL     1       4.790  36.311  28.558  1.00  0.00    -0.265 OA
BRANCH  19  21
HETATM   21  O1  UNL     1       5.210  37.651  26.810  1.00  0.00    -0.326 OA
HETATM   22  C1  UNL     1       4.223  38.656  27.004  1.00  0.00     0.213 C 
ENDBRANCH  19  21
ENDBRANCH   1  19
BRANCH  18  23
HETATM   23  O5  UNL     1       4.826  36.081  24.396  1.00  0.00    -0.387 OA
ATOM     24  H5  UNL     1       4.576  36.953  24.680  1.00  0.00     0.210 HD
ENDBRANCH  18  23
TORSDOF 3
ENDMDL
MODEL 2
REMARK VINA RESULT: -7.804274772      2.216      5.185
REMARK  3 active torsions:
REMARK  status: ('A' for Active; 'I' for Inactive)
REMARK    1  A    between atoms: O1_2  and  C2_3 
REMARK    2  A    between atoms: C2_3  and  C3_5 
REMARK    3  A    between atoms: C17_22  and  O5_23 
ROOT
HETATM    1  C3  UNL     1       3.879  36.434  24.630  1.00  0.00     0.124 C 
HETATM    2  C4  UNL     1       2.469  36.974  24.762  1.00  0.00     0.052 C 
HETATM    3  C5  UNL     1       1.513  35.925  25.193  1.00  0.00     0.155 C 
HETATM    4  O3  UNL     1       0.280  35.964  24.546  1.00  0.00    -0.348 OA
HETATM    5  C6  UNL     1      -0.149  34.648  24.454  1.00  0.00     0.158 C 
HETATM    6  C7  UNL     1      -0.630  34.301  23.060  1.00  0.00     0.078 C 
HETATM    7  C8  UNL     1      -1.240  34.454  25.480  1.00  0.00     0.078 C 
HETATM    8  O4  UNL     1       0.897  33.822  24.783  1.00  0.00    -0.347 OA
HETATM    9  C9  UNL     1       2.019  34.591  24.621  1.00  0.00     0.163 C 
HETATM   10  C10 UNL     1       3.209  34.185  25.396  1.00  0.00     0.087 C 
HETATM   11  C11 UNL     1       4.124  33.384  24.552  1.00  0.00     0.233 C 
HETATM   12  C12 UNL     1       3.910  31.922  24.512  1.00  0.00     0.038 C 
HETATM   13  C13 UNL     1       5.352  31.471  24.213  1.00  0.00     0.037 C 
HETATM   14  C14 UNL     1       6.229  32.669  24.614  1.00  0.00     0.219 C 
HETATM   15  C15 UNL     1       7.381  32.092  25.410  1.00  0.00     0.043 C 
HETATM   16  N1  UNL     1       5.335  33.437  25.399  1.00  0.00     0.101 N 
HETATM   17  C16 UNL     1       5.551  34.837  25.463  1.00  0.00     0.312 C 
HETATM   18  C17 UNL     1       4.130  35.375  25.695  1.00  0.00     0.105 C 
ENDROOT
BRANCH   1  19
HETATM   19  C2  UNL     1       4.900  37.500  24.670  1.00  0.00     0.265 C 
HETATM   20  O2  UNL     1       5.506  37.849  23.623  1.00  0.00    -0.265 OA
BRANCH  19  21
HETATM   21  O1  UNL     1       5.259  38.178  25.827  1.00  0.00    -0.326 OA
HETATM   22  C1  UNL     1       6.166  39.274  25.828  1.00  0.00     0.213 C 
ENDBRANCH  19  21
ENDBRANCH   1  19
BRANCH  18  23
HETATM   23  O5  UNL     1       3.959  35.867  26.964  1.00  0.00    -0.387 OA
ATOM     24  H5  UNL     1       3.307  35.378  27.453  1.00  0.00     0.210 HD
ENDBRANCH  18  23
TORSDOF 3
ENDMDL
MODEL 3
REMARK VINA RESULT: -7.744475010      3.600      6.244
REMARK  3 active torsions:
REMARK  status: ('A' for Active; 'I' for Inactive)
REMARK    1  A    between atoms: O1_2  and  C2_3 
REMARK    2  A    between atoms: C2_3  and  C3_5 
REMARK    3  A    between atoms: C17_22  and  O5_23 
ROOT
HETATM    1  C3  UNL     1       0.802  36.548  23.243  1.00  0.00     0.124 C 
HETATM    2  C4  UNL     1      -0.300  35.600  23.672  1.00  0.00     0.052 C 
HETATM    3  C5  UNL     1       0.006  34.943  24.965  1.00  0.00     0.155 C 
HETATM    4  O3  UNL     1      -0.329  33.592  25.023  1.00  0.00    -0.348 OA
HETATM    5  C6  UNL     1       0.611  32.996  25.850  1.00  0.00     0.158 C 
HETATM    6  C7  UNL     1       1.185  31.732  25.245  1.00  0.00     0.078 C 
HETATM    7  C8  UNL     1      -0.060  32.720  27.174  1.00  0.00     0.078 C 
HETATM    8  O4  UNL     1       1.632  33.889  26.068  1.00  0.00    -0.347 OA
HETATM    9  C9  UNL     1       1.534  34.794  25.044  1.00  0.00     0.163 C 
HETATM   10  C10 UNL     1       2.111  36.131  25.294  1.00  0.00     0.087 C 
HETATM   11  C11 UNL     1       3.468  36.223  24.711  1.00  0.00     0.233 C 
HETATM   12  C12 UNL     1       4.604  35.805  25.560  1.00  0.00     0.038 C 
HETATM   13  C13 UNL     1       5.705  36.692  24.949  1.00  0.00     0.037 C 
HETATM   14  C14 UNL     1       4.947  37.807  24.209  1.00  0.00     0.219 C 
HETATM   15  C15 UNL     1       5.641  39.099  24.583  1.00  0.00     0.043 C 
HETATM   16  N1  UNL     1       3.646  37.690  24.758  1.00  0.00     0.101 N 
HETATM   17  C16 UNL     1       2.554  38.114  23.959  1.00  0.00     0.312 C 
HETATM   18  C17 UNL     1       1.413  37.218  24.466  1.00  0.00     0.105 C 
ENDROOT
BRANCH   1  19
HETATM   19  C2  UNL     1       0.343  37.540  22.250  1.00  0.00     0.265 C 
HETATM   20  O2  UNL     1       0.638  37.415  21.033  1.00  0.00    -0.265 OA
BRANCH  19  21
HETATM   21  O1  UNL     1      -0.426  38.650  22.572  1.00  0.00    -0.326 OA
HETATM   22  C1  UNL     1      -0.198  39.935  22.007  1.00  0.00     0.213 C 
ENDBRANCH  19  21
ENDBRANCH   1  19
BRANCH  18  23
HETATM   23  O5  UNL     1       0.483  37.916  25.192  1.00  0.00    -0.387 OA
ATOM     24  H5  UNL     1      -0.385  37.536  25.124  1.00  0.00     0.210 HD
ENDBRANCH  18  23
TORSDOF 3
ENDMDL
MODEL 4
REMARK VINA RESULT: -7.638129629      3.656      6.307
REMARK  3 active torsions:
REMARK  status: ('A' for Active; 'I' for Inactive)
REMARK    1  A    between atoms: O1_2  and  C2_3 
REMARK    2  A    between atoms: C2_3  and  C3_5 
REMARK    3  A    between atoms: C17_22  and  O5_23 
ROOT
HETATM    1  C3  UNL     1       0.769  36.511  23.124  1.00  0.00     0.124 C 
HETATM    2  C4  UNL     1      -0.330  35.561  23.557  1.00  0.00     0.052 C 
HETATM    3  C5  UNL     1      -0.041  34.942  24.872  1.00  0.00     0.155 C 
HETATM    4  O3  UNL     1      -0.360  33.589  24.960  1.00  0.00    -0.348 OA
HETATM    5  C6  UNL     1       0.571  33.027  25.821  1.00  0.00     0.158 C 
HETATM    6  C7  UNL     1       1.171  31.755  25.261  1.00  0.00     0.078 C 
HETATM    7  C8  UNL     1      -0.123  32.778  27.139  1.00  0.00     0.078 C 
HETATM    8  O4  UNL     1       1.576  33.938  26.034  1.00  0.00    -0.347 OA
HETATM    9  C9  UNL     1       1.487  34.814  24.985  1.00  0.00     0.163 C 
HETATM   10  C10 UNL     1       2.042  36.165  25.210  1.00  0.00     0.087 C 
HETATM   11  C11 UNL     1       3.409  36.259  24.651  1.00  0.00     0.233 C 
HETATM   12  C12 UNL     1       4.534  35.877  25.532  1.00  0.00     0.038 C 
HETATM   13  C13 UNL     1       5.636  36.762  24.919  1.00  0.00     0.037 C 
HETATM   14  C14 UNL     1       4.879  37.847  24.135  1.00  0.00     0.219 C 
HETATM   15  C15 UNL     1       5.550  39.157  24.487  1.00  0.00     0.043 C 
HETATM   16  N1  UNL     1       3.570  37.729  24.662  1.00  0.00     0.101 N 
HETATM   17  C16 UNL     1       2.488  38.117  23.831  1.00  0.00     0.312 C 
HETATM   18  C17 UNL     1       1.348  37.220  24.340  1.00  0.00     0.105 C 
ENDROOT
BRANCH   1  19
HETATM   19  C2  UNL     1       0.317  37.470  22.096  1.00  0.00     0.265 C 
HETATM   20  O2  UNL     1      -0.373  38.474  22.413  1.00  0.00    -0.265 OA
BRANCH  19  21
HETATM   21  O1  UNL     1       0.608  37.342  20.745  1.00  0.00    -0.326 OA
HETATM   22  C1  UNL     1       1.938  37.265  20.247  1.00  0.00     0.213 C 
ENDBRANCH  19  21
ENDBRANCH   1  19
BRANCH  18  23
HETATM   23  O5  UNL     1       0.396  37.926  25.029  1.00  0.00    -0.387 OA
ATOM     24  H5  UNL     1       0.525  37.879  25.969  1.00  0.00     0.210 HD
ENDBRANCH  18  23
TORSDOF 3
ENDMDL
MODEL 5
REMARK VINA RESULT: -7.558048082      2.529      5.441
REMARK  3 active torsions:
REMARK  status: ('A' for Active; 'I' for Inactive)
REMARK    1  A    between atoms: O1_2  and  C2_3 
REMARK    2  A    between atoms: C2_3  and  C3_5 
REMARK    3  A    between atoms: C17_22  and  O5_23 
ROOT
HETATM    1  C3  UNL     1       3.520  37.032  24.432  1.00  0.00     0.124 C 
HETATM    2  C4  UNL     1       2.083  37.515  24.404  1.00  0.00     0.052 C 
HETATM    3  C5  UNL     1       1.139  36.468  24.861  1.00  0.00     0.155 C 
HETATM    4  O3  UNL     1      -0.039  36.387  24.122  1.00  0.00    -0.348 OA
HETATM    5  C6  UNL     1      -0.408  35.050  24.125  1.00  0.00     0.158 C 
HETATM    6  C7  UNL     1      -0.761  34.552  22.739  1.00  0.00     0.078 C 
HETATM    7  C8  UNL     1      -1.568  34.901  25.079  1.00  0.00     0.078 C 
HETATM    8  O4  UNL     1       0.641  34.308  24.611  1.00  0.00    -0.347 OA
HETATM    9  C9  UNL     1       1.741  35.111  24.460  1.00  0.00     0.163 C 
HETATM   10  C10 UNL     1       2.881  34.836  25.359  1.00  0.00     0.087 C 
HETATM   11  C11 UNL     1       3.891  34.004  24.668  1.00  0.00     0.233 C 
HETATM   12  C12 UNL     1       3.739  32.536  24.754  1.00  0.00     0.038 C 
HETATM   13  C13 UNL     1       5.217  32.127  24.610  1.00  0.00     0.037 C 
HETATM   14  C14 UNL     1       6.012  33.398  24.958  1.00  0.00     0.219 C 
HETATM   15  C15 UNL     1       7.118  32.953  25.890  1.00  0.00     0.043 C 
HETATM   16  N1  UNL     1       5.028  34.193  25.595  1.00  0.00     0.101 N 
HETATM   17  C16 UNL     1       5.182  35.601  25.539  1.00  0.00     0.312 C 
HETATM   18  C17 UNL     1       3.726  36.091  25.610  1.00  0.00     0.105 C 
ENDROOT
BRANCH   1  19
HETATM   19  C2  UNL     1       4.491  38.145  24.445  1.00  0.00     0.265 C 
HETATM   20  O2  UNL     1       4.467  39.008  25.361  1.00  0.00    -0.265 OA
BRANCH  19  21
HETATM   21  O1  UNL     1       5.473  38.319  23.479  1.00  0.00    -0.326 OA
HETATM   22  C1  UNL     1       5.461  39.398  22.554  1.00  0.00     0.213 C 
ENDBRANCH  19  21
ENDBRANCH   1  19
BRANCH  18  23
HETATM   23  O5  UNL     1       3.435  36.690  26.809  1.00  0.00    -0.387 OA
ATOM     24  H5  UNL     1       4.150  36.616  27.430  1.00  0.00     0.210 HD
ENDBRANCH  18  23
TORSDOF 3
ENDMDL
