MODEL 1
REMARK VINA RESULT: -9.381949521      0.000      0.000
REMARK  14 active torsions:
REMARK  status: ('A' for Active; 'I' for Inactive)
REMARK    1  A    between atoms: C1_4  and  C2_5 
REMARK    2  A    between atoms: C1_4  and  N2_15 
REMARK    3  A    between atoms: C5_8  and  C6_9 
REMARK    4  A    between atoms: C11_18  and  C12_19 
REMARK    5  A    between atoms: C11_18  and  N4_31 
REMARK    6  A    between atoms: C12_19  and  C13_20 
REMARK    7  A    between atoms: C13_20  and  C14_21 
REMARK    8  A    between atoms: C14_21  and  C15_22 
REMARK    9  A    between atoms: C15_22  and  N3_23 
REMARK   10  A    between atoms: N3_23  and  S1_25 
REMARK   11  A    between atoms: S1_25  and  C16_28 
REMARK   12  A    between atoms: N4_31  and  S2_33 
REMARK   13  A    between atoms: S2_33  and  C19_36 
REMARK   14  A    between atoms: C19_36  and  C20_37 
ROOT
HETATM    1  N2  UNL     1      18.141  29.697  13.991  1.00  0.00    -0.364 N 
HETATM    2  C9  UNL     1      17.613  30.023  12.686  1.00  0.00     0.127 C 
HETATM    3  C10 UNL     1      18.505  29.221  11.785  1.00  0.00     0.053 C 
HETATM    4  C11 UNL     1      18.933  28.002  12.529  1.00  0.00     0.058 C 
HETATM    5  C25 UNL     1      18.368  28.262  13.956  1.00  0.00     0.156 C 
ENDROOT
BRANCH   4   6
HETATM    6  C12 UNL     1      20.416  28.109  12.805  1.00  0.00     0.033 C 
BRANCH   6   7
HETATM    7  C13 UNL     1      21.134  29.133  12.009  1.00  0.00     0.004 C 
BRANCH   7   8
HETATM    8  C14 UNL     1      22.300  29.775  12.780  1.00  0.00     0.020 C 
BRANCH   8   9
HETATM    9  C15 UNL     1      21.786  30.777  13.794  1.00  0.00     0.132 C 
BRANCH   9  10
HETATM   10  N3  UNL     1      22.650  31.096  14.882  1.00  0.00    -0.319 N 
ATOM     11  H3  UNL     1      22.941  30.432  15.600  1.00  0.00     0.172 HD
BRANCH  10  12
HETATM   12  S1  UNL     1      23.140  32.755  14.829  1.00  0.00     0.230 S 
HETATM   13  O1  UNL     1      24.601  32.869  14.627  1.00  0.00    -0.206 OA
HETATM   14  O2  UNL     1      22.475  33.484  13.684  1.00  0.00    -0.206 OA
BRANCH  12  15
HETATM   15  C16 UNL     1      22.661  33.594  16.330  1.00  0.00     0.129 A 
HETATM   16  C17 UNL     1      22.446  32.624  17.475  1.00  0.00     0.023 A 
HETATM   17  C18 UNL     1      21.253  33.210  16.838  1.00  0.00     0.023 A 
ENDBRANCH  12  15
ENDBRANCH  10  12
ENDBRANCH   9  10
ENDBRANCH   8   9
ENDBRANCH   7   8
ENDBRANCH   6   7
ENDBRANCH   4   6
BRANCH   4  18
HETATM   18  N4  UNL     1      18.364  26.816  12.075  1.00  0.00    -0.308 N 
ATOM     19  H4  UNL     1      17.371  26.688  12.265  1.00  0.00     0.173 HD
BRANCH  18  20
HETATM   20  S2  UNL     1      19.116  25.599  11.265  1.00  0.00     0.227 S 
HETATM   21  O3  UNL     1      19.473  24.320  11.967  1.00  0.00    -0.206 OA
HETATM   22  O4  UNL     1      17.941  25.028  10.354  1.00  0.00    -0.206 OA
BRANCH  20  23
HETATM   23  C19 UNL     1      20.347  25.961  10.089  1.00  0.00     0.167 C 
BRANCH  23  24
HETATM   24  C20 UNL     1      21.681  25.269  10.136  1.00  0.00     0.005 C 
HETATM   25  C21 UNL     1      22.601  25.873  11.112  1.00  0.00     0.032 C 
HETATM   26  C22 UNL     1      24.037  25.683  10.783  1.00  0.00     0.168 C 
HETATM   27  O5  UNL     1      24.418  25.521   9.497  1.00  0.00    -0.391 OA
HETATM   28  C23 UNL     1      23.495  25.755   8.516  1.00  0.00     0.168 C 
HETATM   29  C24 UNL     1      22.214  25.008   8.782  1.00  0.00     0.032 C 
ENDBRANCH  23  24
ENDBRANCH  20  23
ENDBRANCH  18  20
ENDBRANCH   4  18
BRANCH   1  30
HETATM   30  C1  UNL     1      18.320  30.636  15.032  1.00  0.00     0.107 C 
HETATM   31  N1  UNL     1      19.133  30.278  15.992  1.00  0.00    -0.385 N 
ATOM     32  H12 UNL     1      19.263  30.956  16.743  1.00  0.00     0.157 HD
ATOM     33  H11 UNL     1      19.630  29.404  15.824  1.00  0.00     0.157 HD
BRANCH  30  34
HETATM   34  C2  UNL     1      17.613  31.877  15.270  1.00  0.00     0.007 A 
HETATM   35  C3  UNL     1      16.601  32.077  16.135  1.00  0.00     0.016 A 
HETATM   36  C4  UNL     1      16.077  33.336  16.451  1.00  0.00     0.017 A 
HETATM   37  C5  UNL     1      16.613  34.465  15.847  1.00  0.00     0.048 A 
HETATM   38  C7  UNL     1      17.650  34.270  14.955  1.00  0.00     0.017 A 
HETATM   39  C8  UNL     1      18.148  33.034  14.665  1.00  0.00     0.016 A 
BRANCH  37  40
HETATM   40  C6  UNL     1      16.097  35.822  16.182  1.00  0.00     0.417 C 
HETATM   41  F1  UNL     1      14.773  35.715  16.637  1.00  0.00    -0.166 F 
HETATM   42  F2  UNL     1      16.076  36.608  15.061  1.00  0.00    -0.166 F 
HETATM   43  F3  UNL     1      16.848  36.419  17.182  1.00  0.00    -0.166 F 
ENDBRANCH  37  40
ENDBRANCH  30  34
ENDBRANCH   1  30
TORSDOF 14
ENDMDL
MODEL 2
REMARK VINA RESULT: -9.372236241      1.798      2.718
REMARK  14 active torsions:
REMARK  status: ('A' for Active; 'I' for Inactive)
REMARK    1  A    between atoms: C1_4  and  C2_5 
REMARK    2  A    between atoms: C1_4  and  N2_15 
REMARK    3  A    between atoms: C5_8  and  C6_9 
REMARK    4  A    between atoms: C11_18  and  C12_19 
REMARK    5  A    between atoms: C11_18  and  N4_31 
REMARK    6  A    between atoms: C12_19  and  C13_20 
REMARK    7  A    between atoms: C13_20  and  C14_21 
REMARK    8  A    between atoms: C14_21  and  C15_22 
REMARK    9  A    between atoms: C15_22  and  N3_23 
REMARK   10  A    between atoms: N3_23  and  S1_25 
REMARK   11  A    between atoms: S1_25  and  C16_28 
REMARK   12  A    between atoms: N4_31  and  S2_33 
REMARK   13  A    between atoms: S2_33  and  C19_36 
REMARK   14  A    between atoms: C19_36  and  C20_37 
ROOT
HETATM    1  N2  UNL     1      18.360  30.202  13.222  1.00  0.00    -0.364 N 
HETATM    2  C9  UNL     1      17.435  29.808  12.185  1.00  0.00     0.127 C 
HETATM    3  C10 UNL     1      18.260  28.840  11.388  1.00  0.00     0.053 C 
HETATM    4  C11 UNL     1      19.220  28.181  12.319  1.00  0.00     0.058 C 
HETATM    5  C25 UNL     1      18.999  28.967  13.644  1.00  0.00     0.156 C 
ENDROOT
BRANCH   4   6
HETATM    6  C12 UNL     1      20.617  28.641  11.966  1.00  0.00     0.033 C 
BRANCH   6   7
HETATM    7  C13 UNL     1      21.682  28.196  12.896  1.00  0.00     0.004 C 
BRANCH   7   8
HETATM    8  C14 UNL     1      22.867  29.175  12.953  1.00  0.00     0.020 C 
BRANCH   8   9
HETATM    9  C15 UNL     1      22.405  30.552  13.387  1.00  0.00     0.132 C 
BRANCH   9  10
HETATM   10  N3  UNL     1      22.762  30.970  14.702  1.00  0.00    -0.319 N 
ATOM     11  H3  UNL     1      22.819  30.346  15.507  1.00  0.00     0.172 HD
BRANCH  10  12
HETATM   12  S1  UNL     1      23.084  32.669  14.757  1.00  0.00     0.230 S 
HETATM   13  O1  UNL     1      24.538  32.935  14.690  1.00  0.00    -0.206 OA
HETATM   14  O2  UNL     1      22.447  33.383  13.587  1.00  0.00    -0.206 OA
BRANCH  12  15
HETATM   15  C16 UNL     1      22.398  33.384  16.242  1.00  0.00     0.129 A 
HETATM   16  C17 UNL     1      22.237  32.355  17.342  1.00  0.00     0.023 A 
HETATM   17  C18 UNL     1      21.022  32.801  16.638  1.00  0.00     0.023 A 
ENDBRANCH  12  15
ENDBRANCH  10  12
ENDBRANCH   9  10
ENDBRANCH   8   9
ENDBRANCH   7   8
ENDBRANCH   6   7
ENDBRANCH   4   6
BRANCH   4  18
HETATM   18  N4  UNL     1      18.943  26.843  12.585  1.00  0.00    -0.308 N 
ATOM     19  H4  UNL     1      18.634  26.625  13.532  1.00  0.00     0.173 HD
BRANCH  18  20
HETATM   20  S2  UNL     1      19.058  25.577  11.543  1.00  0.00     0.227 S 
HETATM   21  O3  UNL     1      19.788  24.326  11.938  1.00  0.00    -0.206 OA
HETATM   22  O4  UNL     1      17.579  24.986  11.572  1.00  0.00    -0.206 OA
BRANCH  20  23
HETATM   23  C19 UNL     1      19.304  25.863   9.844  1.00  0.00     0.167 C 
BRANCH  23  24
HETATM   24  C20 UNL     1      18.150  26.219   8.950  1.00  0.00     0.005 C 
HETATM   25  C21 UNL     1      17.682  25.080   8.145  1.00  0.00     0.032 C 
HETATM   26  C22 UNL     1      17.034  25.470   6.868  1.00  0.00     0.168 C 
HETATM   27  O5  UNL     1      17.370  26.635   6.270  1.00  0.00    -0.391 OA
HETATM   28  C23 UNL     1      18.456  27.315   6.746  1.00  0.00     0.168 C 
HETATM   29  C24 UNL     1      18.375  27.496   8.240  1.00  0.00     0.032 C 
ENDBRANCH  23  24
ENDBRANCH  20  23
ENDBRANCH  18  20
ENDBRANCH   4  18
BRANCH   1  30
HETATM   30  C1  UNL     1      18.511  31.527  13.690  1.00  0.00     0.107 C 
HETATM   31  N1  UNL     1      19.642  32.113  13.394  1.00  0.00    -0.385 N 
ATOM     32  H12 UNL     1      19.750  33.070  13.732  1.00  0.00     0.157 HD
ATOM     33  H11 UNL     1      20.244  31.584  12.764  1.00  0.00     0.157 HD
BRANCH  30  34
HETATM   34  C2  UNL     1      17.656  32.279  14.585  1.00  0.00     0.007 A 
HETATM   35  C3  UNL     1      16.822  31.779  15.516  1.00  0.00     0.016 A 
HETATM   36  C4  UNL     1      16.156  32.556  16.470  1.00  0.00     0.017 A 
HETATM   37  C5  UNL     1      16.347  33.931  16.478  1.00  0.00     0.048 A 
HETATM   38  C7  UNL     1      17.198  34.454  15.525  1.00  0.00     0.017 A 
HETATM   39  C8  UNL     1      17.841  33.678  14.606  1.00  0.00     0.016 A 
BRANCH  37  40
HETATM   40  C6  UNL     1      15.675  34.784  17.499  1.00  0.00     0.417 C 
HETATM   41  F1  UNL     1      16.535  35.830  17.868  1.00  0.00    -0.166 F 
HETATM   42  F2  UNL     1      15.420  34.054  18.628  1.00  0.00    -0.166 F 
HETATM   43  F3  UNL     1      14.506  35.342  17.005  1.00  0.00    -0.166 F 
ENDBRANCH  37  40
ENDBRANCH  30  34
ENDBRANCH   1  30
TORSDOF 14
ENDMDL
MODEL 3
REMARK VINA RESULT: -9.161595812      4.270      9.136
REMARK  14 active torsions:
REMARK  status: ('A' for Active; 'I' for Inactive)
REMARK    1  A    between atoms: C1_4  and  C2_5 
REMARK    2  A    between atoms: C1_4  and  N2_15 
REMARK    3  A    between atoms: C5_8  and  C6_9 
REMARK    4  A    between atoms: C11_18  and  C12_19 
REMARK    5  A    between atoms: C11_18  and  N4_31 
REMARK    6  A    between atoms: C12_19  and  C13_20 
REMARK    7  A    between atoms: C13_20  and  C14_21 
REMARK    8  A    between atoms: C14_21  and  C15_22 
REMARK    9  A    between atoms: C15_22  and  N3_23 
REMARK   10  A    between atoms: N3_23  and  S1_25 
REMARK   11  A    between atoms: S1_25  and  C16_28 
REMARK   12  A    between atoms: N4_31  and  S2_33 
REMARK   13  A    between atoms: S2_33  and  C19_36 
REMARK   14  A    between atoms: C19_36  and  C20_37 
ROOT
HETATM    1  N2  UNL     1      19.412  30.006  14.301  1.00  0.00    -0.364 N 
HETATM    2  C9  UNL     1      20.111  30.015  15.565  1.00  0.00     0.127 C 
HETATM    3  C10 UNL     1      21.322  30.840  15.239  1.00  0.00     0.053 C 
HETATM    4  C11 UNL     1      20.940  31.820  14.182  1.00  0.00     0.058 C 
HETATM    5  C25 UNL     1      19.494  31.373  13.816  1.00  0.00     0.156 C 
ENDROOT
BRANCH   4   6
HETATM    6  C12 UNL     1      21.664  31.451  12.907  1.00  0.00     0.033 C 
BRANCH   6   7
HETATM    7  C13 UNL     1      22.546  30.263  13.003  1.00  0.00     0.004 C 
BRANCH   7   8
HETATM    8  C14 UNL     1      22.487  29.378  11.747  1.00  0.00     0.020 C 
BRANCH   8   9
HETATM    9  C15 UNL     1      23.780  28.605  11.573  1.00  0.00     0.132 C 
BRANCH   9  10
HETATM   10  N3  UNL     1      23.851  27.702  10.474  1.00  0.00    -0.319 N 
ATOM     11  H3  UNL     1      23.932  27.989   9.498  1.00  0.00     0.172 HD
BRANCH  10  12
HETATM   12  S1  UNL     1      23.781  26.057  11.006  1.00  0.00     0.230 S 
HETATM   13  O1  UNL     1      24.935  25.732  11.873  1.00  0.00    -0.206 OA
HETATM   14  O2  UNL     1      22.531  25.797  11.813  1.00  0.00    -0.206 OA
BRANCH  12  15
HETATM   15  C16 UNL     1      23.737  24.951   9.605  1.00  0.00     0.129 A 
HETATM   16  C17 UNL     1      23.656  25.706   8.293  1.00  0.00     0.023 A 
HETATM   17  C18 UNL     1      22.433  25.041   8.780  1.00  0.00     0.023 A 
ENDBRANCH  12  15
ENDBRANCH  10  12
ENDBRANCH   9  10
ENDBRANCH   8   9
ENDBRANCH   7   8
ENDBRANCH   6   7
ENDBRANCH   4   6
BRANCH   4  18
HETATM   18  N4  UNL     1      20.862  33.140  14.616  1.00  0.00    -0.308 N 
ATOM     19  H4  UNL     1      20.937  33.858  13.897  1.00  0.00     0.173 HD
BRANCH  18  20
HETATM   20  S2  UNL     1      20.663  33.669  16.160  1.00  0.00     0.227 S 
HETATM   21  O3  UNL     1      21.822  33.698  17.114  1.00  0.00    -0.206 OA
HETATM   22  O4  UNL     1      20.507  35.240  15.956  1.00  0.00    -0.206 OA
BRANCH  20  23
HETATM   23  C19 UNL     1      19.216  33.268  17.041  1.00  0.00     0.167 C 
BRANCH  23  24
HETATM   24  C20 UNL     1      17.964  34.082  16.871  1.00  0.00     0.005 C 
HETATM   25  C21 UNL     1      17.431  34.580  18.149  1.00  0.00     0.032 C 
HETATM   26  C22 UNL     1      15.966  34.817  18.140  1.00  0.00     0.168 C 
HETATM   27  O5  UNL     1      15.175  34.113  17.300  1.00  0.00    -0.391 OA
HETATM   28  C23 UNL     1      15.721  33.049  16.639  1.00  0.00     0.168 C 
HETATM   29  C24 UNL     1      17.005  33.433  15.952  1.00  0.00     0.032 C 
ENDBRANCH  23  24
ENDBRANCH  20  23
ENDBRANCH  18  20
ENDBRANCH   4  18
BRANCH   1  30
HETATM   30  C1  UNL     1      18.775  28.868  13.755  1.00  0.00     0.107 C 
HETATM   31  N1  UNL     1      18.218  28.056  14.616  1.00  0.00    -0.385 N 
ATOM     32  H12 UNL     1      17.758  27.235  14.222  1.00  0.00     0.157 HD
ATOM     33  H11 UNL     1      18.213  28.395  15.578  1.00  0.00     0.157 HD
BRANCH  30  34
HETATM   34  C2  UNL     1      18.782  28.388  12.389  1.00  0.00     0.007 A 
HETATM   35  C3  UNL     1      19.533  27.389  11.888  1.00  0.00     0.016 A 
HETATM   36  C4  UNL     1      19.369  26.852  10.606  1.00  0.00     0.017 A 
HETATM   37  C5  UNL     1      18.381  27.365   9.777  1.00  0.00     0.048 A 
HETATM   38  C7  UNL     1      17.608  28.393  10.281  1.00  0.00     0.017 A 
HETATM   39  C8  UNL     1      17.782  28.899  11.536  1.00  0.00     0.016 A 
BRANCH  37  40
HETATM   40  C6  UNL     1      18.161  26.798   8.417  1.00  0.00     0.417 C 
HETATM   41  F1  UNL     1      18.103  27.843   7.483  1.00  0.00    -0.166 F 
HETATM   42  F2  UNL     1      16.959  26.145   8.368  1.00  0.00    -0.166 F 
HETATM   43  F3  UNL     1      19.193  25.948   8.049  1.00  0.00    -0.166 F 
ENDBRANCH  37  40
ENDBRANCH  30  34
ENDBRANCH   1  30
TORSDOF 14
ENDMDL
MODEL 4
REMARK VINA RESULT: -9.135831920      2.861      4.821
REMARK  14 active torsions:
REMARK  status: ('A' for Active; 'I' for Inactive)
REMARK    1  A    between atoms: C1_4  and  C2_5 
REMARK    2  A    between atoms: C1_4  and  N2_15 
REMARK    3  A    between atoms: C5_8  and  C6_9 
REMARK    4  A    between atoms: C11_18  and  C12_19 
REMARK    5  A    between atoms: C11_18  and  N4_31 
REMARK    6  A    between atoms: C12_19  and  C13_20 
REMARK    7  A    between atoms: C13_20  and  C14_21 
REMARK    8  A    between atoms: C14_21  and  C15_22 
REMARK    9  A    between atoms: C15_22  and  N3_23 
REMARK   10  A    between atoms: N3_23  and  S1_25 
REMARK   11  A    between atoms: S1_25  and  C16_28 
REMARK   12  A    between atoms: N4_31  and  S2_33 
REMARK   13  A    between atoms: S2_33  and  C19_36 
REMARK   14  A    between atoms: C19_36  and  C20_37 
ROOT
HETATM    1  N2  UNL     1      18.250  30.156  13.195  1.00  0.00    -0.364 N 
HETATM    2  C9  UNL     1      17.137  29.747  12.370  1.00  0.00     0.127 C 
HETATM    3  C10 UNL     1      17.791  28.775  11.432  1.00  0.00     0.053 C 
HETATM    4  C11 UNL     1      18.924  28.130  12.156  1.00  0.00     0.058 C 
HETATM    5  C25 UNL     1      18.969  28.929  13.491  1.00  0.00     0.156 C 
ENDROOT
BRANCH   4   6
HETATM    6  C12 UNL     1      20.218  28.594  11.524  1.00  0.00     0.033 C 
BRANCH   6   7
HETATM    7  C13 UNL     1      21.320  28.873  12.474  1.00  0.00     0.004 C 
BRANCH   7   8
HETATM    8  C14 UNL     1      22.548  29.501  11.792  1.00  0.00     0.020 C 
BRANCH   8   9
HETATM    9  C15 UNL     1      23.687  28.505  11.713  1.00  0.00     0.132 C 
BRANCH   9  10
HETATM   10  N3  UNL     1      23.723  27.653  10.571  1.00  0.00    -0.319 N 
ATOM     11  H3  UNL     1      23.739  27.986   9.607  1.00  0.00     0.172 HD
BRANCH  10  12
HETATM   12  S1  UNL     1      23.738  25.985  11.030  1.00  0.00     0.230 S 
HETATM   13  O1  UNL     1      24.927  25.672  11.852  1.00  0.00    -0.206 OA
HETATM   14  O2  UNL     1      22.521  25.637  11.857  1.00  0.00    -0.206 OA
BRANCH  12  15
HETATM   15  C16 UNL     1      23.701  24.941   9.582  1.00  0.00     0.129 A 
HETATM   16  C17 UNL     1      23.943  25.731   8.311  1.00  0.00     0.023 A 
HETATM   17  C18 UNL     1      22.566  25.287   8.592  1.00  0.00     0.023 A 
ENDBRANCH  12  15
ENDBRANCH  10  12
ENDBRANCH   9  10
ENDBRANCH   8   9
ENDBRANCH   7   8
ENDBRANCH   6   7
ENDBRANCH   4   6
BRANCH   4  18
HETATM   18  N4  UNL     1      18.717  26.794  12.485  1.00  0.00    -0.308 N 
ATOM     19  H4  UNL     1      18.414  26.605  13.440  1.00  0.00     0.173 HD
BRANCH  18  20
HETATM   20  S2  UNL     1      18.906  25.488  11.505  1.00  0.00     0.227 S 
HETATM   21  O3  UNL     1      19.670  24.284  11.976  1.00  0.00    -0.206 OA
HETATM   22  O4  UNL     1      17.450  24.844  11.523  1.00  0.00    -0.206 OA
BRANCH  20  23
HETATM   23  C19 UNL     1      19.189  25.707   9.802  1.00  0.00     0.167 C 
BRANCH  23  24
HETATM   24  C20 UNL     1      18.080  26.150   8.890  1.00  0.00     0.005 C 
HETATM   25  C21 UNL     1      17.566  25.059   8.047  1.00  0.00     0.032 C 
HETATM   26  C22 UNL     1      16.973  25.516   6.765  1.00  0.00     0.168 C 
HETATM   27  O5  UNL     1      17.392  26.672   6.203  1.00  0.00    -0.391 OA
HETATM   28  C23 UNL     1      18.504  27.275   6.721  1.00  0.00     0.168 C 
HETATM   29  C24 UNL     1      18.397  27.427   8.216  1.00  0.00     0.032 C 
ENDBRANCH  23  24
ENDBRANCH  20  23
ENDBRANCH  18  20
ENDBRANCH   4  18
BRANCH   1  30
HETATM   30  C1  UNL     1      18.482  31.487  13.611  1.00  0.00     0.107 C 
HETATM   31  N1  UNL     1      19.628  32.007  13.255  1.00  0.00    -0.385 N 
ATOM     32  H12 UNL     1      19.795  32.967  13.555  1.00  0.00     0.157 HD
ATOM     33  H11 UNL     1      20.179  31.427  12.622  1.00  0.00     0.157 HD
BRANCH  30  34
HETATM   34  C2  UNL     1      17.699  32.309  14.510  1.00  0.00     0.007 A 
HETATM   35  C3  UNL     1      16.710  31.899  15.327  1.00  0.00     0.016 A 
HETATM   36  C4  UNL     1      16.112  32.706  16.301  1.00  0.00     0.017 A 
HETATM   37  C5  UNL     1      16.544  34.017  16.454  1.00  0.00     0.048 A 
HETATM   38  C7  UNL     1      17.555  34.448  15.619  1.00  0.00     0.017 A 
HETATM   39  C8  UNL     1      18.128  33.643  14.678  1.00  0.00     0.016 A 
BRANCH  37  40
HETATM   40  C6  UNL     1      15.947  34.894  17.501  1.00  0.00     0.417 C 
HETATM   41  F1  UNL     1      16.906  35.826  17.926  1.00  0.00    -0.166 F 
HETATM   42  F2  UNL     1      15.596  34.149  18.594  1.00  0.00    -0.166 F 
HETATM   43  F3  UNL     1      14.853  35.593  17.015  1.00  0.00    -0.166 F 
ENDBRANCH  37  40
ENDBRANCH  30  34
ENDBRANCH   1  30
TORSDOF 14
ENDMDL
MODEL 5
REMARK VINA RESULT: -9.125364094      1.652      2.706
REMARK  14 active torsions:
REMARK  status: ('A' for Active; 'I' for Inactive)
REMARK    1  A    between atoms: C1_4  and  C2_5 
REMARK    2  A    between atoms: C1_4  and  N2_15 
REMARK    3  A    between atoms: C5_8  and  C6_9 
REMARK    4  A    between atoms: C11_18  and  C12_19 
REMARK    5  A    between atoms: C11_18  and  N4_31 
REMARK    6  A    between atoms: C12_19  and  C13_20 
REMARK    7  A    between atoms: C13_20  and  C14_21 
REMARK    8  A    between atoms: C14_21  and  C15_22 
REMARK    9  A    between atoms: C15_22  and  N3_23 
REMARK   10  A    between atoms: N3_23  and  S1_25 
REMARK   11  A    between atoms: S1_25  and  C16_28 
REMARK   12  A    between atoms: N4_31  and  S2_33 
REMARK   13  A    between atoms: S2_33  and  C19_36 
REMARK   14  A    between atoms: C19_36  and  C20_37 
ROOT
HETATM    1  N2  UNL     1      18.589  29.704  14.168  1.00  0.00    -0.364 N 
HETATM    2  C9  UNL     1      17.918  30.026  12.930  1.00  0.00     0.127 C 
HETATM    3  C10 UNL     1      18.673  29.183  11.944  1.00  0.00     0.053 C 
HETATM    4  C11 UNL     1      19.151  27.963  12.655  1.00  0.00     0.058 C 
HETATM    5  C25 UNL     1      18.769  28.263  14.134  1.00  0.00     0.156 C 
ENDROOT
BRANCH   4   6
HETATM    6  C12 UNL     1      20.659  28.028  12.750  1.00  0.00     0.033 C 
BRANCH   6   7
HETATM    7  C13 UNL     1      21.321  28.853  11.712  1.00  0.00     0.004 C 
BRANCH   7   8
HETATM    8  C14 UNL     1      22.516  29.651  12.262  1.00  0.00     0.020 C 
BRANCH   8   9
HETATM    9  C15 UNL     1      22.043  30.782  13.153  1.00  0.00     0.132 C 
BRANCH   9  10
HETATM   10  N3  UNL     1      22.744  30.977  14.378  1.00  0.00    -0.319 N 
ATOM     11  H3  UNL     1      23.102  30.221  14.962  1.00  0.00     0.172 HD
BRANCH  10  12
HETATM   12  S1  UNL     1      22.910  32.659  14.747  1.00  0.00     0.230 S 
HETATM   13  O1  UNL     1      24.324  33.008  15.004  1.00  0.00    -0.206 OA
HETATM   14  O2  UNL     1      22.442  33.519  13.595  1.00  0.00    -0.206 OA
BRANCH  12  15
HETATM   15  C16 UNL     1      21.905  33.088  16.160  1.00  0.00     0.129 A 
HETATM   16  C17 UNL     1      22.503  34.235  16.950  1.00  0.00     0.023 A 
HETATM   17  C18 UNL     1      22.615  32.879  17.517  1.00  0.00     0.023 A 
ENDBRANCH  12  15
ENDBRANCH  10  12
ENDBRANCH   9  10
ENDBRANCH   8   9
ENDBRANCH   7   8
ENDBRANCH   6   7
ENDBRANCH   4   6
BRANCH   4  18
HETATM   18  N4  UNL     1      18.497  26.788  12.294  1.00  0.00    -0.308 N 
ATOM     19  H4  UNL     1      17.589  26.624  12.728  1.00  0.00     0.173 HD
BRANCH  18  20
HETATM   20  S2  UNL     1      19.027  25.638  11.246  1.00  0.00     0.227 S 
HETATM   21  O3  UNL     1      20.043  24.620  11.679  1.00  0.00    -0.206 OA
HETATM   22  O4  UNL     1      17.769  24.665  11.155  1.00  0.00    -0.206 OA
BRANCH  20  23
HETATM   23  C19 UNL     1      19.303  26.038   9.575  1.00  0.00     0.167 C 
BRANCH  23  24
HETATM   24  C20 UNL     1      18.152  26.358   8.663  1.00  0.00     0.005 C 
HETATM   25  C21 UNL     1      17.793  25.234   7.784  1.00  0.00     0.032 C 
HETATM   26  C22 UNL     1      17.155  25.646   6.508  1.00  0.00     0.168 C 
HETATM   27  O5  UNL     1      17.424  26.863   5.983  1.00  0.00    -0.391 OA
HETATM   28  C23 UNL     1      18.442  27.591   6.530  1.00  0.00     0.168 C 
HETATM   29  C24 UNL     1      18.305  27.684   8.028  1.00  0.00     0.032 C 
ENDBRANCH  23  24
ENDBRANCH  20  23
ENDBRANCH  18  20
ENDBRANCH   4  18
BRANCH   1  30
HETATM   30  C1  UNL     1      18.919  30.653  15.162  1.00  0.00     0.107 C 
HETATM   31  N1  UNL     1      19.704  30.230  16.119  1.00  0.00    -0.385 N 
ATOM     32  H12 UNL     1      19.943  30.916  16.836  1.00  0.00     0.157 HD
ATOM     33  H11 UNL     1      20.078  29.292  15.979  1.00  0.00     0.157 HD
BRANCH  30  34
HETATM   34  C2  UNL     1      18.388  31.986  15.361  1.00  0.00     0.007 A 
HETATM   35  C3  UNL     1      18.683  33.089  14.648  1.00  0.00     0.016 A 
HETATM   36  C4  UNL     1      18.006  34.307  14.772  1.00  0.00     0.017 A 
HETATM   37  C5  UNL     1      16.963  34.414  15.681  1.00  0.00     0.048 A 
HETATM   38  C7  UNL     1      16.655  33.289  16.421  1.00  0.00     0.017 A 
HETATM   39  C8  UNL     1      17.325  32.109  16.281  1.00  0.00     0.016 A 
BRANCH  37  40
HETATM   40  C6  UNL     1      16.204  35.689  15.818  1.00  0.00     0.417 C 
HETATM   41  F1  UNL     1      16.025  36.260  14.548  1.00  0.00    -0.166 F 
HETATM   42  F2  UNL     1      16.920  36.585  16.565  1.00  0.00    -0.166 F 
HETATM   43  F3  UNL     1      14.953  35.478  16.375  1.00  0.00    -0.166 F 
ENDBRANCH  37  40
ENDBRANCH  30  34
ENDBRANCH   1  30
TORSDOF 14
ENDMDL
