MODEL 1
REMARK VINA RESULT: -8.657021503      0.000      0.000
REMARK  12 active torsions:
REMARK  status: ('A' for Active; 'I' for Inactive)
REMARK    1  A    between atoms: C1_2  and  C2_4 
REMARK    2  A    between atoms: C2_4  and  C3_5 
REMARK    3  A    between atoms: C2_4  and  N3_15 
REMARK    4  A    between atoms: C3_5  and  C4_6 
REMARK    5  A    between atoms: N3_15  and  C8_17 
REMARK    6  A    between atoms: C8_17  and  C9_18 
REMARK    7  A    between atoms: C9_18  and  O2_19 
REMARK    8  A    between atoms: O2_19  and  C10_20 
REMARK    9  A    between atoms: C17_27  and  C18_28 
REMARK   10  A    between atoms: N4_31  and  S1_32 
REMARK   11  A    between atoms: S1_32  and  C21_35 
REMARK   12  A    between atoms: C21_35  and  C22_36 
ROOT
HETATM    1  C10 UNL     1      21.894  33.249  16.682  1.00  0.00     0.069 A 
HETATM    2  C11 UNL     1      22.378  34.068  15.685  1.00  0.00     0.039 A 
HETATM    3  C12 UNL     1      22.387  33.613  14.386  1.00  0.00     0.040 A 
HETATM    4  C13 UNL     1      21.917  32.354  14.083  1.00  0.00     0.075 A 
HETATM    5  C14 UNL     1      21.427  31.519  15.074  1.00  0.00    -0.022 A 
HETATM    6  C15 UNL     1      21.411  31.956  16.370  1.00  0.00     0.046 A 
HETATM    7  C16 UNL     1      20.921  30.163  14.741  1.00  0.00     0.048 C 
HETATM    8  C17 UNL     1      20.389  30.194  13.348  1.00  0.00     0.019 C 
HETATM    9  C25 UNL     1      21.518  30.563  12.429  1.00  0.00     0.181 C 
HETATM   10  O5  UNL     1      21.920  31.877  12.768  1.00  0.00    -0.350 OA
ENDROOT
BRANCH   1  11
HETATM   11  O2  UNL     1      21.861  33.633  17.985  1.00  0.00    -0.350 OA
BRANCH  11  12
HETATM   12  C9  UNL     1      22.037  34.782  18.674  1.00  0.00     0.195 C 
BRANCH  12  13
HETATM   13  C8  UNL     1      20.899  35.813  18.577  1.00  0.00     0.141 C 
BRANCH  13  14
HETATM   14  N3  UNL     1      19.762  35.211  19.154  1.00  0.00    -0.407 N 
ATOM     15  H3  UNL     1      19.811  34.841  20.103  1.00  0.00     0.154 HD
BRANCH  14  16
HETATM   16  C2  UNL     1      18.560  35.116  18.429  1.00  0.00     0.168 C 
BRANCH  16  17
HETATM   17  C1  UNL     1      17.433  35.901  18.980  1.00  0.00     0.253 C 
HETATM   18  N1  UNL     1      16.186  35.221  19.228  1.00  0.00    -0.060 NA
HETATM   19  O1  UNL     1      17.494  37.096  19.242  1.00  0.00    -0.275 OA
ENDBRANCH  16  17
BRANCH  16  20
HETATM   20  C3  UNL     1      18.629  35.296  16.948  1.00  0.00     0.067 C 
BRANCH  20  21
HETATM   21  C4  UNL     1      17.768  34.390  16.135  1.00  0.00     0.195 C 
HETATM   22  C5  UNL     1      18.645  33.894  14.974  1.00  0.00     0.041 C 
HETATM   23  C6  UNL     1      17.835  32.721  14.467  1.00  0.00     0.113 C 
HETATM   24  C7  UNL     1      17.226  32.155  15.725  1.00  0.00     0.403 C 
HETATM   25  F1  UNL     1      15.900  31.806  15.476  1.00  0.00    -0.174 F 
HETATM   26  F2  UNL     1      17.909  31.020  16.169  1.00  0.00    -0.174 F 
HETATM   27  N2  UNL     1      17.342  33.180  16.735  1.00  0.00    -0.005 N 
ATOM     28  H22 UNL     1      17.949  32.896  17.504  1.00  0.00     0.284 HD
ATOM     29  H21 UNL     1      16.478  33.296  17.267  1.00  0.00     0.284 HD
ENDBRANCH  20  21
ENDBRANCH  16  20
ENDBRANCH  14  16
ENDBRANCH  13  14
ENDBRANCH  12  13
ENDBRANCH  11  12
ENDBRANCH   1  11
BRANCH   8  30
HETATM   30  C18 UNL     1      19.630  28.992  12.914  1.00  0.00     0.001 C 
HETATM   31  C19 UNL     1      18.958  29.237  11.580  1.00  0.00     0.051 C 
HETATM   32  C20 UNL     1      18.172  28.040  11.121  1.00  0.00     0.081 C 
HETATM   33  N4  UNL     1      18.002  27.000  12.045  1.00  0.00    -0.270 N 
HETATM   34  C23 UNL     1      17.987  27.269  13.424  1.00  0.00     0.081 C 
HETATM   35  C24 UNL     1      18.530  28.596  13.866  1.00  0.00     0.051 C 
BRANCH  33  36
HETATM   36  S1  UNL     1      18.355  25.426  11.547  1.00  0.00     0.236 S 
HETATM   37  O3  UNL     1      17.452  24.411  12.180  1.00  0.00    -0.205 OA
HETATM   38  O4  UNL     1      18.160  25.288  10.044  1.00  0.00    -0.205 OA
BRANCH  36  39
HETATM   39  C21 UNL     1      20.045  24.945  11.862  1.00  0.00     0.178 C 
BRANCH  39  40
HETATM   40  C22 UNL     1      20.979  25.727  10.984  1.00  0.00     0.131 C 
HETATM   41 CL1  UNL     1      22.146  26.675  11.904  1.00  0.00    -0.129 Cl
ENDBRANCH  39  40
ENDBRANCH  36  39
ENDBRANCH  33  36
ENDBRANCH   8  30
TORSDOF 12
ENDMDL
MODEL 2
REMARK VINA RESULT: -8.530877704      3.186      5.433
REMARK  12 active torsions:
REMARK  status: ('A' for Active; 'I' for Inactive)
REMARK    1  A    between atoms: C1_2  and  C2_4 
REMARK    2  A    between atoms: C2_4  and  C3_5 
REMARK    3  A    between atoms: C2_4  and  N3_15 
REMARK    4  A    between atoms: C3_5  and  C4_6 
REMARK    5  A    between atoms: N3_15  and  C8_17 
REMARK    6  A    between atoms: C8_17  and  C9_18 
REMARK    7  A    between atoms: C9_18  and  O2_19 
REMARK    8  A    between atoms: O2_19  and  C10_20 
REMARK    9  A    between atoms: C17_27  and  C18_28 
REMARK   10  A    between atoms: N4_31  and  S1_32 
REMARK   11  A    between atoms: S1_32  and  C21_35 
REMARK   12  A    between atoms: C21_35  and  C22_36 
ROOT
HETATM    1  C10 UNL     1      15.935  36.994  17.259  1.00  0.00     0.069 A 
HETATM    2  C11 UNL     1      15.066  36.311  18.082  1.00  0.00     0.039 A 
HETATM    3  C12 UNL     1      14.947  34.946  17.950  1.00  0.00     0.040 A 
HETATM    4  C13 UNL     1      15.687  34.268  17.007  1.00  0.00     0.075 A 
HETATM    5  C14 UNL     1      16.566  34.941  16.173  1.00  0.00    -0.022 A 
HETATM    6  C15 UNL     1      16.696  36.296  16.291  1.00  0.00     0.046 A 
HETATM    7  C16 UNL     1      17.362  34.203  15.159  1.00  0.00     0.048 C 
HETATM    8  C17 UNL     1      17.599  32.822  15.667  1.00  0.00     0.019 C 
HETATM    9  C25 UNL     1      16.263  32.161  15.853  1.00  0.00     0.181 C 
HETATM   10  O5  UNL     1      15.577  32.882  16.860  1.00  0.00    -0.350 OA
ENDROOT
BRANCH   1  11
HETATM   11  O2  UNL     1      16.098  38.341  17.333  1.00  0.00    -0.350 OA
BRANCH  11  12
HETATM   12  C9  UNL     1      17.129  39.211  17.257  1.00  0.00     0.195 C 
BRANCH  12  13
HETATM   13  C8  UNL     1      18.321  38.934  18.191  1.00  0.00     0.141 C 
BRANCH  13  14
HETATM   14  N3  UNL     1      19.397  38.552  17.363  1.00  0.00    -0.407 N 
ATOM     15  H3  UNL     1      19.540  39.020  16.469  1.00  0.00     0.154 HD
BRANCH  14  16
HETATM   16  C2  UNL     1      20.275  37.528  17.764  1.00  0.00     0.168 C 
BRANCH  16  17
HETATM   17  C1  UNL     1      21.373  37.959  18.658  1.00  0.00     0.253 C 
HETATM   18  N1  UNL     1      22.583  37.176  18.678  1.00  0.00    -0.060 NA
HETATM   19  O1  UNL     1      21.317  38.944  19.385  1.00  0.00    -0.275 OA
ENDBRANCH  16  17
BRANCH  16  20
HETATM   20  C3  UNL     1      19.673  36.260  18.272  1.00  0.00     0.067 C 
BRANCH  20  21
HETATM   21  C4  UNL     1      20.065  35.013  17.556  1.00  0.00     0.195 C 
HETATM   22  C5  UNL     1      20.719  35.462  16.238  1.00  0.00     0.041 C 
HETATM   23  C6  UNL     1      21.411  34.191  15.798  1.00  0.00     0.113 C 
HETATM   24  C7  UNL     1      21.843  33.567  17.102  1.00  0.00     0.403 C 
HETATM   25  F1  UNL     1      21.613  32.193  17.051  1.00  0.00    -0.174 F 
HETATM   26  F2  UNL     1      23.200  33.782  17.357  1.00  0.00    -0.174 F 
HETATM   27  N2  UNL     1      21.076  34.212  18.141  1.00  0.00    -0.005 N 
ATOM     28  H22 UNL     1      21.666  34.743  18.782  1.00  0.00     0.284 HD
ATOM     29  H21 UNL     1      20.697  33.543  18.813  1.00  0.00     0.284 HD
ENDBRANCH  20  21
ENDBRANCH  16  20
ENDBRANCH  14  16
ENDBRANCH  13  14
ENDBRANCH  12  13
ENDBRANCH  11  12
ENDBRANCH   1  11
BRANCH   8  30
HETATM   30  C18 UNL     1      18.571  32.003  14.898  1.00  0.00     0.001 C 
HETATM   31  C19 UNL     1      19.102  32.778  13.710  1.00  0.00     0.051 C 
HETATM   32  C20 UNL     1      20.082  31.967  12.906  1.00  0.00     0.081 C 
HETATM   33  N4  UNL     1      20.195  30.608  13.226  1.00  0.00    -0.270 N 
HETATM   34  C23 UNL     1      19.102  29.911  13.769  1.00  0.00     0.081 C 
HETATM   35  C24 UNL     1      17.982  30.734  14.336  1.00  0.00     0.051 C 
BRANCH  33  36
HETATM   36  S1  UNL     1      21.740  29.972  13.467  1.00  0.00     0.236 S 
HETATM   37  O3  UNL     1      22.657  30.942  14.150  1.00  0.00    -0.205 OA
HETATM   38  O4  UNL     1      21.676  28.747  14.368  1.00  0.00    -0.205 OA
BRANCH  36  39
HETATM   39  C21 UNL     1      22.525  29.425  11.961  1.00  0.00     0.178 C 
BRANCH  39  40
HETATM   40  C22 UNL     1      23.041  28.023  12.124  1.00  0.00     0.131 C 
HETATM   41 CL1  UNL     1      24.801  27.945  12.164  1.00  0.00    -0.129 Cl
ENDBRANCH  39  40
ENDBRANCH  36  39
ENDBRANCH  33  36
ENDBRANCH   8  30
TORSDOF 12
ENDMDL
MODEL 3
REMARK VINA RESULT: -8.509277582      1.193      1.246
REMARK  12 active torsions:
REMARK  status: ('A' for Active; 'I' for Inactive)
REMARK    1  A    between atoms: C1_2  and  C2_4 
REMARK    2  A    between atoms: C2_4  and  C3_5 
REMARK    3  A    between atoms: C2_4  and  N3_15 
REMARK    4  A    between atoms: C3_5  and  C4_6 
REMARK    5  A    between atoms: N3_15  and  C8_17 
REMARK    6  A    between atoms: C8_17  and  C9_18 
REMARK    7  A    between atoms: C9_18  and  O2_19 
REMARK    8  A    between atoms: O2_19  and  C10_20 
REMARK    9  A    between atoms: C17_27  and  C18_28 
REMARK   10  A    between atoms: N4_31  and  S1_32 
REMARK   11  A    between atoms: S1_32  and  C21_35 
REMARK   12  A    between atoms: C21_35  and  C22_36 
ROOT
HETATM    1  C10 UNL     1      21.646  33.590  16.539  1.00  0.00     0.069 A 
HETATM    2  C11 UNL     1      22.879  33.787  15.955  1.00  0.00     0.039 A 
HETATM    3  C12 UNL     1      23.364  32.846  15.075  1.00  0.00     0.040 A 
HETATM    4  C13 UNL     1      22.629  31.720  14.780  1.00  0.00     0.075 A 
HETATM    5  C14 UNL     1      21.388  31.508  15.359  1.00  0.00    -0.022 A 
HETATM    6  C15 UNL     1      20.891  32.432  16.235  1.00  0.00     0.046 A 
HETATM    7  C16 UNL     1      20.600  30.291  15.036  1.00  0.00     0.048 C 
HETATM    8  C17 UNL     1      20.950  29.863  13.651  1.00  0.00     0.019 C 
HETATM    9  C25 UNL     1      22.418  29.549  13.620  1.00  0.00     0.181 C 
HETATM   10  O5  UNL     1      23.109  30.755  13.889  1.00  0.00    -0.350 OA
ENDROOT
BRANCH   1  11
HETATM   11  O2  UNL     1      21.109  34.475  17.419  1.00  0.00    -0.350 OA
BRANCH  11  12
HETATM   12  C9  UNL     1      19.882  34.975  17.683  1.00  0.00     0.195 C 
BRANCH  12  13
HETATM   13  C8  UNL     1      19.790  36.503  17.836  1.00  0.00     0.141 C 
BRANCH  13  14
HETATM   14  N3  UNL     1      18.510  36.876  17.375  1.00  0.00    -0.407 N 
ATOM     15  H3  UNL     1      18.379  37.777  16.915  1.00  0.00     0.154 HD
BRANCH  14  16
HETATM   16  C2  UNL     1      17.412  36.012  17.543  1.00  0.00     0.168 C 
BRANCH  16  17
HETATM   17  C1  UNL     1      16.597  36.266  18.753  1.00  0.00     0.253 C 
HETATM   18  N1  UNL     1      16.613  37.591  19.319  1.00  0.00    -0.060 NA
HETATM   19  O1  UNL     1      15.907  35.417  19.304  1.00  0.00    -0.275 OA
ENDBRANCH  16  17
BRANCH  16  20
HETATM   20  C3  UNL     1      16.520  35.789  16.367  1.00  0.00     0.067 C 
BRANCH  20  21
HETATM   21  C4  UNL     1      16.364  34.376  15.919  1.00  0.00     0.195 C 
HETATM   22  C5  UNL     1      17.532  34.099  14.959  1.00  0.00     0.041 C 
HETATM   23  C6  UNL     1      17.509  32.588  14.886  1.00  0.00     0.113 C 
HETATM   24  C7  UNL     1      17.089  32.184  16.277  1.00  0.00     0.403 C 
HETATM   25  F1  UNL     1      16.173  31.137  16.194  1.00  0.00    -0.174 F 
HETATM   26  F2  UNL     1      18.176  31.763  17.047  1.00  0.00    -0.174 F 
HETATM   27  N2  UNL     1      16.522  33.360  16.894  1.00  0.00    -0.005 N 
ATOM     28  H22 UNL     1      17.068  33.676  17.695  1.00  0.00     0.284 HD
ATOM     29  H21 UNL     1      15.650  33.156  17.383  1.00  0.00     0.284 HD
ENDBRANCH  20  21
ENDBRANCH  16  20
ENDBRANCH  14  16
ENDBRANCH  13  14
ENDBRANCH  12  13
ENDBRANCH  11  12
ENDBRANCH   1  11
BRANCH   8  30
HETATM   30  C18 UNL     1      20.096  28.799  13.062  1.00  0.00     0.001 C 
HETATM   31  C19 UNL     1      19.786  29.104  11.611  1.00  0.00     0.051 C 
HETATM   32  C20 UNL     1      18.912  28.047  10.993  1.00  0.00     0.081 C 
HETATM   33  N4  UNL     1      18.358  27.095  11.858  1.00  0.00    -0.270 N 
HETATM   34  C23 UNL     1      18.093  27.420  13.199  1.00  0.00     0.081 C 
HETATM   35  C24 UNL     1      18.762  28.647  13.748  1.00  0.00     0.051 C 
BRANCH  33  36
HETATM   36  S1  UNL     1      18.516  25.464  11.454  1.00  0.00     0.236 S 
HETATM   37  O3  UNL     1      17.506  24.602  12.150  1.00  0.00    -0.205 OA
HETATM   38  O4  UNL     1      18.287  25.261   9.962  1.00  0.00    -0.205 OA
BRANCH  36  39
HETATM   39  C21 UNL     1      20.140  24.803  11.789  1.00  0.00     0.178 C 
BRANCH  39  40
HETATM   40  C22 UNL     1      21.148  25.404  10.850  1.00  0.00     0.131 C 
HETATM   41 CL1  UNL     1      22.371  26.361  11.685  1.00  0.00    -0.129 Cl
ENDBRANCH  39  40
ENDBRANCH  36  39
ENDBRANCH  33  36
ENDBRANCH   8  30
TORSDOF 12
ENDMDL
MODEL 4
REMARK VINA RESULT: -8.471158501      2.846      5.317
REMARK  12 active torsions:
REMARK  status: ('A' for Active; 'I' for Inactive)
REMARK    1  A    between atoms: C1_2  and  C2_4 
REMARK    2  A    between atoms: C2_4  and  C3_5 
REMARK    3  A    between atoms: C2_4  and  N3_15 
REMARK    4  A    between atoms: C3_5  and  C4_6 
REMARK    5  A    between atoms: N3_15  and  C8_17 
REMARK    6  A    between atoms: C8_17  and  C9_18 
REMARK    7  A    between atoms: C9_18  and  O2_19 
REMARK    8  A    between atoms: O2_19  and  C10_20 
REMARK    9  A    between atoms: C17_27  and  C18_28 
REMARK   10  A    between atoms: N4_31  and  S1_32 
REMARK   11  A    between atoms: S1_32  and  C21_35 
REMARK   12  A    between atoms: C21_35  and  C22_36 
ROOT
HETATM    1  C10 UNL     1      16.132  37.417  17.228  1.00  0.00     0.069 A 
HETATM    2  C11 UNL     1      15.348  36.913  18.243  1.00  0.00     0.039 A 
HETATM    3  C12 UNL     1      15.066  35.566  18.269  1.00  0.00     0.040 A 
HETATM    4  C13 UNL     1      15.562  34.729  17.294  1.00  0.00     0.075 A 
HETATM    5  C14 UNL     1      16.352  35.220  16.268  1.00  0.00    -0.022 A 
HETATM    6  C15 UNL     1      16.642  36.556  16.227  1.00  0.00     0.046 A 
HETATM    7  C16 UNL     1      16.884  34.312  15.220  1.00  0.00     0.048 C 
HETATM    8  C17 UNL     1      17.057  32.958  15.820  1.00  0.00     0.019 C 
HETATM    9  C25 UNL     1      15.710  32.480  16.281  1.00  0.00     0.181 C 
HETATM   10  O5  UNL     1      15.284  33.358  17.306  1.00  0.00    -0.350 OA
ENDROOT
BRANCH   1  11
HETATM   11  O2  UNL     1      16.446  38.736  17.139  1.00  0.00    -0.350 OA
BRANCH  11  12
HETATM   12  C9  UNL     1      17.573  39.480  17.157  1.00  0.00     0.195 C 
BRANCH  12  13
HETATM   13  C8  UNL     1      18.726  38.946  18.026  1.00  0.00     0.141 C 
BRANCH  13  14
HETATM   14  N3  UNL     1      19.712  38.474  17.135  1.00  0.00    -0.407 N 
ATOM     15  H3  UNL     1      19.864  38.952  16.247  1.00  0.00     0.154 HD
BRANCH  14  16
HETATM   16  C2  UNL     1      20.489  37.347  17.463  1.00  0.00     0.168 C 
BRANCH  16  17
HETATM   17  C1  UNL     1      21.730  37.640  18.214  1.00  0.00     0.253 C 
HETATM   18  N1  UNL     1      21.673  38.623  19.267  1.00  0.00    -0.060 NA
HETATM   19  O1  UNL     1      22.807  37.097  17.996  1.00  0.00    -0.275 OA
ENDBRANCH  16  17
BRANCH  16  20
HETATM   20  C3  UNL     1      19.789  36.179  18.073  1.00  0.00     0.067 C 
BRANCH  20  21
HETATM   21  C4  UNL     1      20.137  34.840  17.518  1.00  0.00     0.195 C 
HETATM   22  C5  UNL     1      20.575  35.080  16.063  1.00  0.00     0.041 C 
HETATM   23  C6  UNL     1      21.261  33.771  15.738  1.00  0.00     0.113 C 
HETATM   24  C7  UNL     1      21.903  33.385  17.047  1.00  0.00     0.403 C 
HETATM   25  F1  UNL     1      21.737  32.017  17.253  1.00  0.00    -0.174 F 
HETATM   26  F2  UNL     1      23.270  33.675  17.061  1.00  0.00    -0.174 F 
HETATM   27  N2  UNL     1      21.259  34.174  18.070  1.00  0.00    -0.005 N 
ATOM     28  H22 UNL     1      21.906  34.821  18.522  1.00  0.00     0.284 HD
ATOM     29  H21 UNL     1      21.013  33.618  18.889  1.00  0.00     0.284 HD
ENDBRANCH  20  21
ENDBRANCH  16  20
ENDBRANCH  14  16
ENDBRANCH  13  14
ENDBRANCH  12  13
ENDBRANCH  11  12
ENDBRANCH   1  11
BRANCH   8  30
HETATM   30  C18 UNL     1      17.795  31.969  14.994  1.00  0.00     0.001 C 
HETATM   31  C19 UNL     1      18.669  31.090  15.865  1.00  0.00     0.051 C 
HETATM   32  C20 UNL     1      19.437  30.084  15.052  1.00  0.00     0.081 C 
HETATM   33  N4  UNL     1      19.406  30.236  13.659  1.00  0.00    -0.270 N 
HETATM   34  C23 UNL     1      19.236  31.508  13.086  1.00  0.00     0.081 C 
HETATM   35  C24 UNL     1      18.718  32.596  13.980  1.00  0.00     0.051 C 
BRANCH  33  36
HETATM   36  S1  UNL     1      19.031  28.886  12.718  1.00  0.00     0.236 S 
HETATM   37  O3  UNL     1      18.106  27.939  13.421  1.00  0.00    -0.205 OA
HETATM   38  O4  UNL     1      18.315  29.309  11.443  1.00  0.00    -0.205 OA
BRANCH  36  39
HETATM   39  C21 UNL     1      20.468  27.971  12.186  1.00  0.00     0.178 C 
BRANCH  39  40
HETATM   40  C22 UNL     1      21.626  28.904  11.969  1.00  0.00     0.131 C 
HETATM   41 CL1  UNL     1      22.655  29.054  13.393  1.00  0.00    -0.129 Cl
ENDBRANCH  39  40
ENDBRANCH  36  39
ENDBRANCH  33  36
ENDBRANCH   8  30
TORSDOF 12
ENDMDL
MODEL 5
REMARK VINA RESULT: -8.411407766      3.989      9.456
REMARK  12 active torsions:
REMARK  status: ('A' for Active; 'I' for Inactive)
REMARK    1  A    between atoms: C1_2  and  C2_4 
REMARK    2  A    between atoms: C2_4  and  C3_5 
REMARK    3  A    between atoms: C2_4  and  N3_15 
REMARK    4  A    between atoms: C3_5  and  C4_6 
REMARK    5  A    between atoms: N3_15  and  C8_17 
REMARK    6  A    between atoms: C8_17  and  C9_18 
REMARK    7  A    between atoms: C9_18  and  O2_19 
REMARK    8  A    between atoms: O2_19  and  C10_20 
REMARK    9  A    between atoms: C17_27  and  C18_28 
REMARK   10  A    between atoms: N4_31  and  S1_32 
REMARK   11  A    between atoms: S1_32  and  C21_35 
REMARK   12  A    between atoms: C21_35  and  C22_36 
ROOT
HETATM    1  C10 UNL     1      17.930  29.170  12.962  1.00  0.00     0.069 A 
HETATM    2  C11 UNL     1      18.543  28.443  13.960  1.00  0.00     0.039 A 
HETATM    3  C12 UNL     1      18.903  29.076  15.129  1.00  0.00     0.040 A 
HETATM    4  C13 UNL     1      18.654  30.420  15.301  1.00  0.00     0.075 A 
HETATM    5  C14 UNL     1      18.037  31.163  14.308  1.00  0.00    -0.022 A 
HETATM    6  C15 UNL     1      17.673  30.550  13.141  1.00  0.00     0.046 A 
HETATM    7  C16 UNL     1      17.770  32.611  14.501  1.00  0.00     0.048 C 
HETATM    8  C17 UNL     1      17.578  32.859  15.958  1.00  0.00     0.019 C 
HETATM    9  C25 UNL     1      18.845  32.470  16.666  1.00  0.00     0.181 C 
HETATM   10  O5  UNL     1      19.014  31.077  16.482  1.00  0.00    -0.350 OA
ENDROOT
BRANCH   1  11
HETATM   11  O2  UNL     1      17.553  28.609  11.784  1.00  0.00    -0.350 OA
BRANCH  11  12
HETATM   12  C9  UNL     1      18.172  28.054  10.718  1.00  0.00     0.195 C 
BRANCH  12  13
HETATM   13  C8  UNL     1      19.237  26.989  11.030  1.00  0.00     0.141 C 
BRANCH  13  14
HETATM   14  N3  UNL     1      20.485  27.566  10.716  1.00  0.00    -0.407 N 
ATOM     15  H3  UNL     1      20.700  27.814   9.751  1.00  0.00     0.154 HD
BRANCH  14  16
HETATM   16  C2  UNL     1      21.436  27.803  11.726  1.00  0.00     0.168 C 
BRANCH  16  17
HETATM   17  C1  UNL     1      22.455  26.741  11.886  1.00  0.00     0.253 C 
HETATM   18  N1  UNL     1      23.825  27.138  12.095  1.00  0.00    -0.060 NA
HETATM   19  O1  UNL     1      22.206  25.542  11.854  1.00  0.00    -0.275 OA
ENDBRANCH  16  17
BRANCH  16  20
HETATM   20  C3  UNL     1      22.090  29.144  11.760  1.00  0.00     0.067 C 
BRANCH  20  21
HETATM   21  C4  UNL     1      21.568  30.105  12.772  1.00  0.00     0.195 C 
HETATM   22  C5  UNL     1      22.427  29.910  14.033  1.00  0.00     0.041 C 
HETATM   23  C6  UNL     1      22.092  31.157  14.820  1.00  0.00     0.113 C 
HETATM   24  C7  UNL     1      21.907  32.201  13.748  1.00  0.00     0.403 C 
HETATM   25  F1  UNL     1      20.808  32.995  14.065  1.00  0.00    -0.174 F 
HETATM   26  F2  UNL     1      23.030  33.024  13.624  1.00  0.00    -0.174 F 
HETATM   27  N2  UNL     1      21.727  31.487  12.505  1.00  0.00    -0.005 N 
ATOM     28  H22 UNL     1      22.483  31.668  11.844  1.00  0.00     0.284 HD
ATOM     29  H21 UNL     1      20.957  31.864  11.952  1.00  0.00     0.284 HD
ENDBRANCH  20  21
ENDBRANCH  16  20
ENDBRANCH  14  16
ENDBRANCH  13  14
ENDBRANCH  12  13
ENDBRANCH  11  12
ENDBRANCH   1  11
BRANCH   8  30
HETATM   30  C18 UNL     1      17.074  34.207  16.329  1.00  0.00     0.001 C 
HETATM   31  C19 UNL     1      16.075  34.111  17.464  1.00  0.00     0.051 C 
HETATM   32  C20 UNL     1      15.539  35.461  17.852  1.00  0.00     0.081 C 
HETATM   33  N4  UNL     1      15.855  36.536  17.011  1.00  0.00    -0.270 N 
HETATM   34  C23 UNL     1      16.086  36.324  15.641  1.00  0.00     0.081 C 
HETATM   35  C24 UNL     1      16.357  34.914  15.206  1.00  0.00     0.051 C 
BRANCH  33  36
HETATM   36  S1  UNL     1      16.476  37.941  17.712  1.00  0.00     0.236 S 
HETATM   37  O3  UNL     1      17.051  38.880  16.695  1.00  0.00    -0.205 OA
HETATM   38  O4  UNL     1      15.374  38.712  18.424  1.00  0.00    -0.205 OA
BRANCH  36  39
HETATM   39  C21 UNL     1      17.723  37.625  18.949  1.00  0.00     0.178 C 
BRANCH  39  40
HETATM   40  C22 UNL     1      18.858  36.841  18.354  1.00  0.00     0.131 C 
HETATM   41 CL1  UNL     1      19.115  35.295  19.162  1.00  0.00    -0.129 Cl
ENDBRANCH  39  40
ENDBRANCH  36  39
ENDBRANCH  33  36
ENDBRANCH   8  30
TORSDOF 12
ENDMDL
