MODEL 1
REMARK VINA RESULT: -8.639672475      0.000      0.000
REMARK  14 active torsions:
REMARK  status: ('A' for Active; 'I' for Inactive)
REMARK    1  A    between atoms: C7_9  and  N2_10 
REMARK    2  A    between atoms: N2_10  and  C8_11 
REMARK    3  A    between atoms: C8_11  and  C9_12 
REMARK    4  A    between atoms: C9_12  and  N3_13 
REMARK    5  A    between atoms: N3_13  and  C11_15 
REMARK    6  A    between atoms: C11_15  and  C12_16 
REMARK    7  A    between atoms: C12_16  and  N4_17 
REMARK    8  A    between atoms: N4_17  and  C14_19 
REMARK    9  A    between atoms: C14_19  and  C15_20 
REMARK   10  A    between atoms: C15_20  and  C16_21 
REMARK   11  A    between atoms: C16_21  and  N5_22 
REMARK       I    between atoms: N5_22  and  C17_24 
REMARK   12  A    between atoms: C17_24  and  C18_26 
REMARK   13  A    between atoms: C18_26  and  C19_27 
REMARK   14  A    between atoms: C23_35  and  C24_36 
ROOT
HETATM    1  C1  UNL     1      15.140  34.678  18.382  1.00  0.00     0.068 C 
HETATM    2  C2  UNL     1      16.328  34.298  17.565  1.00  0.00     0.010 A 
HETATM    3  C3  UNL     1      17.603  34.728  17.776  1.00  0.00     0.056 A 
HETATM    4  C4  UNL     1      18.448  34.171  16.832  1.00  0.00     0.065 A 
HETATM    5  N1  UNL     1      19.776  34.320  16.661  1.00  0.00    -0.357 N 
ATOM      6  H1  UNL     1      20.311  34.918  17.290  1.00  0.00     0.166 HD
HETATM    7  C5  UNL     1      20.390  33.678  15.661  1.00  0.00     0.020 A 
HETATM    8  C6  UNL     1      19.664  32.872  14.818  1.00  0.00     0.008 A 
HETATM    9  C7  UNL     1      18.276  32.691  14.967  1.00  0.00     0.143 A 
HETATM   10  C20 UNL     1      17.648  33.376  16.022  1.00  0.00     0.103 A 
HETATM   11  N6  UNL     1      16.395  33.477  16.490  1.00  0.00    -0.351 N 
HETATM   12  C21 UNL     1      15.219  32.828  15.953  1.00  0.00     0.156 C 
HETATM   13  C22 UNL     1      20.276  32.150  13.670  1.00  0.00     0.057 C 
HETATM   14  C23 UNL     1      21.104  31.039  14.263  1.00  0.00     0.098 C 
HETATM   15  C25 UNL     1      21.780  31.362  15.524  1.00  0.00     0.022 C 
HETATM   16  C26 UNL     1      22.539  32.576  15.763  1.00  0.00    -0.042 C 
HETATM   17  C27 UNL     1      23.893  32.665  15.079  1.00  0.00     0.015 C 
HETATM   18  C28 UNL     1      22.887  32.554  17.275  1.00  0.00     0.015 C 
HETATM   19  C29 UNL     1      21.878  33.908  15.591  1.00  0.00     0.066 C 
ENDROOT
BRANCH   9  20
HETATM   20  N2  UNL     1      17.699  31.931  14.243  1.00  0.00    -0.417 NA
BRANCH  20  21
HETATM   21  C8  UNL     1      17.167  30.882  13.599  1.00  0.00     0.185 C 
BRANCH  21  22
HETATM   22  C9  UNL     1      17.943  30.161  12.510  1.00  0.00     0.331 C 
BRANCH  22  23
HETATM   23  N3  UNL     1      17.688  28.738  12.523  1.00  0.00     0.094 N 
HETATM   24  C10 UNL     1      18.193  28.189  13.788  1.00  0.00     0.310 C 
BRANCH  23  25
HETATM   25  C11 UNL     1      18.395  28.038  11.466  1.00  0.00     0.317 C 
BRANCH  25  26
HETATM   26  C12 UNL     1      19.213  26.911  12.059  1.00  0.00     0.092 C 
BRANCH  26  27
HETATM   27  N4  UNL     1      19.158  25.713  11.347  1.00  0.00    -0.376 N 
HETATM   28  C13 UNL     1      17.928  25.206  10.897  1.00  0.00     0.154 C 
BRANCH  27  29
HETATM   29  C14 UNL     1      20.317  24.989  11.039  1.00  0.00     0.064 C 
BRANCH  29  30
HETATM   30  C15 UNL     1      20.486  24.630   9.575  1.00  0.00     0.064 C 
BRANCH  30  31
HETATM   31  C16 UNL     1      21.788  25.109   8.990  1.00  0.00     0.128 C 
BRANCH  31  32
HETATM   32  N5  UNL     1      22.294  26.279   9.697  1.00  0.00    -0.361 N 
HETATM   33  C17 UNL     1      23.651  26.673   9.613  1.00  0.00     0.226 C 
HETATM   34  O1  UNL     1      24.421  25.964   8.892  1.00  0.00    -0.273 OA
ATOM     35  H5  UNL     1      21.653  26.830  10.267  1.00  0.00     0.162 HD
BRANCH  33  36
HETATM   36  C18 UNL     1      24.189  27.853  10.320  1.00  0.00     0.220 C 
BRANCH  36  37
HETATM   37  C19 UNL     1      24.548  27.553  11.746  1.00  0.00     0.396 C 
HETATM   38  F1  UNL     1      25.382  26.445  11.810  1.00  0.00    -0.171 F 
HETATM   39  F2  UNL     1      23.432  27.300  12.520  1.00  0.00    -0.171 F 
HETATM   40  F3  UNL     1      25.285  28.609  12.281  1.00  0.00    -0.171 F 
ENDBRANCH  36  37
ENDBRANCH  33  36
ENDBRANCH  31  32
ENDBRANCH  30  31
ENDBRANCH  29  30
ENDBRANCH  27  29
ENDBRANCH  26  27
ENDBRANCH  25  26
ENDBRANCH  23  25
ENDBRANCH  22  23
ENDBRANCH  21  22
ENDBRANCH  20  21
ENDBRANCH   9  20
BRANCH  14  41
HETATM   41  C24 UNL     1      21.925  30.391  13.180  1.00  0.00     0.391 C 
HETATM   42  F4  UNL     1      23.213  30.119  13.592  1.00  0.00    -0.171 F 
HETATM   43  F5  UNL     1      21.869  31.027  11.967  1.00  0.00    -0.171 F 
HETATM   44  F6  UNL     1      21.339  29.132  12.956  1.00  0.00    -0.171 F 
ENDBRANCH  14  41
TORSDOF 14
ENDMDL
MODEL 2
REMARK VINA RESULT: -8.608765237      2.602      5.139
REMARK  14 active torsions:
REMARK  status: ('A' for Active; 'I' for Inactive)
REMARK    1  A    between atoms: C7_9  and  N2_10 
REMARK    2  A    between atoms: N2_10  and  C8_11 
REMARK    3  A    between atoms: C8_11  and  C9_12 
REMARK    4  A    between atoms: C9_12  and  N3_13 
REMARK    5  A    between atoms: N3_13  and  C11_15 
REMARK    6  A    between atoms: C11_15  and  C12_16 
REMARK    7  A    between atoms: C12_16  and  N4_17 
REMARK    8  A    between atoms: N4_17  and  C14_19 
REMARK    9  A    between atoms: C14_19  and  C15_20 
REMARK   10  A    between atoms: C15_20  and  C16_21 
REMARK   11  A    between atoms: C16_21  and  N5_22 
REMARK       I    between atoms: N5_22  and  C17_24 
REMARK   12  A    between atoms: C17_24  and  C18_26 
REMARK   13  A    between atoms: C18_26  and  C19_27 
REMARK   14  A    between atoms: C23_35  and  C24_36 
ROOT
HETATM    1  C1  UNL     1      21.012  39.695  18.983  1.00  0.00     0.068 C 
HETATM    2  C2  UNL     1      20.368  38.385  18.676  1.00  0.00     0.010 A 
HETATM    3  C3  UNL     1      19.030  38.135  18.703  1.00  0.00     0.056 A 
HETATM    4  C4  UNL     1      18.791  36.816  18.361  1.00  0.00     0.065 A 
HETATM    5  N1  UNL     1      17.629  36.141  18.263  1.00  0.00    -0.357 N 
ATOM      6  H1  UNL     1      16.745  36.613  18.452  1.00  0.00     0.166 HD
HETATM    7  C5  UNL     1      17.642  34.850  17.915  1.00  0.00     0.020 A 
HETATM    8  C6  UNL     1      18.837  34.222  17.660  1.00  0.00     0.008 A 
HETATM    9  C7  UNL     1      20.070  34.894  17.750  1.00  0.00     0.143 A 
HETATM   10  C20 UNL     1      20.037  36.251  18.119  1.00  0.00     0.103 A 
HETATM   11  N6  UNL     1      20.949  37.215  18.317  1.00  0.00    -0.351 N 
HETATM   12  C21 UNL     1      22.383  37.084  18.191  1.00  0.00     0.156 C 
HETATM   13  C22 UNL     1      18.927  32.783  17.296  1.00  0.00     0.057 C 
HETATM   14  C23 UNL     1      18.395  32.668  15.890  1.00  0.00     0.098 C 
HETATM   15  C25 UNL     1      17.276  33.560  15.566  1.00  0.00     0.022 C 
HETATM   16  C26 UNL     1      16.107  33.751  16.405  1.00  0.00    -0.042 C 
HETATM   17  C27 UNL     1      15.111  32.604  16.436  1.00  0.00     0.015 C 
HETATM   18  C28 UNL     1      15.315  34.914  15.751  1.00  0.00     0.015 C 
HETATM   19  C29 UNL     1      16.278  34.216  17.818  1.00  0.00     0.066 C 
ENDROOT
BRANCH   9  20
HETATM   20  N2  UNL     1      21.079  34.318  17.460  1.00  0.00    -0.417 NA
BRANCH  20  21
HETATM   21  C8  UNL     1      22.168  33.792  16.881  1.00  0.00     0.185 C 
BRANCH  21  22
HETATM   22  C9  UNL     1      22.430  32.297  16.929  1.00  0.00     0.331 C 
BRANCH  22  23
HETATM   23  N3  UNL     1      22.898  31.794  15.657  1.00  0.00     0.094 N 
HETATM   24  C10 UNL     1      23.903  32.728  15.132  1.00  0.00     0.310 C 
BRANCH  23  25
HETATM   25  C11 UNL     1      21.843  31.733  14.662  1.00  0.00     0.317 C 
BRANCH  25  26
HETATM   26  C12 UNL     1      22.253  30.803  13.540  1.00  0.00     0.092 C 
BRANCH  26  27
HETATM   27  N4  UNL     1      21.420  29.698  13.364  1.00  0.00    -0.376 N 
HETATM   28  C13 UNL     1      21.272  28.746  14.387  1.00  0.00     0.154 C 
BRANCH  27  29
HETATM   29  C14 UNL     1      20.692  29.509  12.184  1.00  0.00     0.064 C 
BRANCH  29  30
HETATM   30  C15 UNL     1      19.890  28.223  12.116  1.00  0.00     0.064 C 
BRANCH  30  31
HETATM   31  C16 UNL     1      20.252  27.356  10.940  1.00  0.00     0.128 C 
BRANCH  31  32
HETATM   32  N5  UNL     1      21.695  27.306  10.735  1.00  0.00    -0.361 N 
HETATM   33  C17 UNL     1      22.485  26.245  11.236  1.00  0.00     0.226 C 
HETATM   34  O1  UNL     1      21.887  25.325  11.877  1.00  0.00    -0.273 OA
ATOM     35  H5  UNL     1      22.148  28.058  10.215  1.00  0.00     0.162 HD
BRANCH  33  36
HETATM   36  C18 UNL     1      23.948  26.172  11.043  1.00  0.00     0.220 C 
BRANCH  36  37
HETATM   37  C19 UNL     1      24.673  27.294  11.726  1.00  0.00     0.396 C 
HETATM   38  F1  UNL     1      24.797  28.380  10.870  1.00  0.00    -0.171 F 
HETATM   39  F2  UNL     1      25.938  26.921  12.136  1.00  0.00    -0.171 F 
HETATM   40  F3  UNL     1      23.923  27.753  12.809  1.00  0.00    -0.171 F 
ENDBRANCH  36  37
ENDBRANCH  33  36
ENDBRANCH  31  32
ENDBRANCH  30  31
ENDBRANCH  29  30
ENDBRANCH  27  29
ENDBRANCH  26  27
ENDBRANCH  25  26
ENDBRANCH  23  25
ENDBRANCH  22  23
ENDBRANCH  21  22
ENDBRANCH  20  21
ENDBRANCH   9  20
BRANCH  14  41
HETATM   41  C24 UNL     1      18.255  31.215  15.522  1.00  0.00     0.391 C 
HETATM   42  F4  UNL     1      18.437  30.999  14.171  1.00  0.00    -0.171 F 
HETATM   43  F5  UNL     1      17.132  30.609  16.020  1.00  0.00    -0.171 F 
HETATM   44  F6  UNL     1      19.330  30.557  16.145  1.00  0.00    -0.171 F 
ENDBRANCH  14  41
TORSDOF 14
ENDMDL
MODEL 3
REMARK VINA RESULT: -8.554290742      2.660      8.726
REMARK  14 active torsions:
REMARK  status: ('A' for Active; 'I' for Inactive)
REMARK    1  A    between atoms: C7_9  and  N2_10 
REMARK    2  A    between atoms: N2_10  and  C8_11 
REMARK    3  A    between atoms: C8_11  and  C9_12 
REMARK    4  A    between atoms: C9_12  and  N3_13 
REMARK    5  A    between atoms: N3_13  and  C11_15 
REMARK    6  A    between atoms: C11_15  and  C12_16 
REMARK    7  A    between atoms: C12_16  and  N4_17 
REMARK    8  A    between atoms: N4_17  and  C14_19 
REMARK    9  A    between atoms: C14_19  and  C15_20 
REMARK   10  A    between atoms: C15_20  and  C16_21 
REMARK   11  A    between atoms: C16_21  and  N5_22 
REMARK       I    between atoms: N5_22  and  C17_24 
REMARK   12  A    between atoms: C17_24  and  C18_26 
REMARK   13  A    between atoms: C18_26  and  C19_27 
REMARK   14  A    between atoms: C23_35  and  C24_36 
ROOT
HETATM    1  C1  UNL     1      18.143  24.269   6.263  1.00  0.00     0.068 C 
HETATM    2  C2  UNL     1      18.952  24.761   7.415  1.00  0.00     0.010 A 
HETATM    3  C3  UNL     1      20.232  24.391   7.698  1.00  0.00     0.056 A 
HETATM    4  C4  UNL     1      20.669  25.046   8.836  1.00  0.00     0.065 A 
HETATM    5  N1  UNL     1      21.854  24.981   9.474  1.00  0.00    -0.357 N 
ATOM      6  H1  UNL     1      22.596  24.378   9.118  1.00  0.00     0.166 HD
HETATM    7  C5  UNL     1      22.052  25.712  10.576  1.00  0.00     0.020 A 
HETATM    8  C6  UNL     1      21.049  26.523  11.049  1.00  0.00     0.008 A 
HETATM    9  C7  UNL     1      19.800  26.618  10.409  1.00  0.00     0.143 A 
HETATM   10  C20 UNL     1      19.609  25.840   9.253  1.00  0.00     0.103 A 
HETATM   11  N6  UNL     1      18.607  25.643   8.383  1.00  0.00    -0.351 N 
HETATM   12  C21 UNL     1      17.297  26.256   8.423  1.00  0.00     0.156 C 
HETATM   13  C22 UNL     1      21.192  27.341  12.283  1.00  0.00     0.057 C 
HETATM   14  C23 UNL     1      22.140  28.461  11.940  1.00  0.00     0.098 C 
HETATM   15  C25 UNL     1      23.230  28.105  11.025  1.00  0.00     0.022 C 
HETATM   16  C26 UNL     1      24.062  26.923  11.157  1.00  0.00    -0.042 C 
HETATM   17  C27 UNL     1      25.087  26.949  12.277  1.00  0.00     0.015 C 
HETATM   18  C28 UNL     1      24.922  26.878   9.866  1.00  0.00     0.015 C 
HETATM   19  C29 UNL     1      23.426  25.569  11.182  1.00  0.00     0.066 C 
ENDROOT
BRANCH   9  20
HETATM   20  N2  UNL     1      18.980  27.384  10.826  1.00  0.00    -0.417 NA
BRANCH  20  21
HETATM   21  C8  UNL     1      18.195  28.429  11.129  1.00  0.00     0.185 C 
BRANCH  21  22
HETATM   22  C9  UNL     1      17.765  28.691  12.562  1.00  0.00     0.331 C 
BRANCH  22  23
HETATM   23  N3  UNL     1      18.620  29.660  13.209  1.00  0.00     0.094 N 
HETATM   24  C10 UNL     1      18.898  29.193  14.574  1.00  0.00     0.310 C 
BRANCH  23  25
HETATM   25  C11 UNL     1      17.983  30.958  13.347  1.00  0.00     0.317 C 
BRANCH  25  26
HETATM   26  C12 UNL     1      18.819  31.843  14.246  1.00  0.00     0.092 C 
BRANCH  26  27
HETATM   27  N4  UNL     1      18.085  32.659  15.108  1.00  0.00    -0.376 N 
HETATM   28  C13 UNL     1      16.908  32.182  15.710  1.00  0.00     0.154 C 
BRANCH  27  29
HETATM   29  C14 UNL     1      18.499  33.960  15.417  1.00  0.00     0.064 C 
BRANCH  29  30
HETATM   30  C15 UNL     1      18.057  34.474  16.774  1.00  0.00     0.064 C 
BRANCH  30  31
HETATM   31  C16 UNL     1      19.196  34.670  17.738  1.00  0.00     0.128 C 
BRANCH  31  32
HETATM   32  N5  UNL     1      20.239  33.670  17.545  1.00  0.00    -0.361 N 
HETATM   33  C17 UNL     1      21.582  34.031  17.284  1.00  0.00     0.226 C 
HETATM   34  O1  UNL     1      21.851  35.272  17.225  1.00  0.00    -0.273 OA
ATOM     35  H5  UNL     1      19.994  32.681  17.600  1.00  0.00     0.162 HD
BRANCH  33  36
HETATM   36  C18 UNL     1      22.656  33.038  17.084  1.00  0.00     0.220 C 
BRANCH  36  37
HETATM   37  C19 UNL     1      22.561  32.350  15.753  1.00  0.00     0.396 C 
HETATM   38  F1  UNL     1      21.798  31.196  15.860  1.00  0.00    -0.171 F 
HETATM   39  F2  UNL     1      23.804  32.003  15.259  1.00  0.00    -0.171 F 
HETATM   40  F3  UNL     1      21.884  33.166  14.846  1.00  0.00    -0.171 F 
ENDBRANCH  36  37
ENDBRANCH  33  36
ENDBRANCH  31  32
ENDBRANCH  30  31
ENDBRANCH  29  30
ENDBRANCH  27  29
ENDBRANCH  26  27
ENDBRANCH  25  26
ENDBRANCH  23  25
ENDBRANCH  22  23
ENDBRANCH  21  22
ENDBRANCH  20  21
ENDBRANCH   9  20
BRANCH  14  41
HETATM   41  C24 UNL     1      22.502  29.214  13.193  1.00  0.00     0.391 C 
HETATM   42  F4  UNL     1      23.817  29.633  13.189  1.00  0.00    -0.171 F 
HETATM   43  F5  UNL     1      22.138  28.589  14.357  1.00  0.00    -0.171 F 
HETATM   44  F6  UNL     1      21.742  30.397  13.162  1.00  0.00    -0.171 F 
ENDBRANCH  14  41
TORSDOF 14
ENDMDL
MODEL 4
REMARK VINA RESULT: -8.509397974      4.076      9.480
REMARK  14 active torsions:
REMARK  status: ('A' for Active; 'I' for Inactive)
REMARK    1  A    between atoms: C7_9  and  N2_10 
REMARK    2  A    between atoms: N2_10  and  C8_11 
REMARK    3  A    between atoms: C8_11  and  C9_12 
REMARK    4  A    between atoms: C9_12  and  N3_13 
REMARK    5  A    between atoms: N3_13  and  C11_15 
REMARK    6  A    between atoms: C11_15  and  C12_16 
REMARK    7  A    between atoms: C12_16  and  N4_17 
REMARK    8  A    between atoms: N4_17  and  C14_19 
REMARK    9  A    between atoms: C14_19  and  C15_20 
REMARK   10  A    between atoms: C15_20  and  C16_21 
REMARK   11  A    between atoms: C16_21  and  N5_22 
REMARK       I    between atoms: N5_22  and  C17_24 
REMARK   12  A    between atoms: C17_24  and  C18_26 
REMARK   13  A    between atoms: C18_26  and  C19_27 
REMARK   14  A    between atoms: C23_35  and  C24_36 
ROOT
HETATM    1  C1  UNL     1      16.102  29.811  11.422  1.00  0.00     0.068 C 
HETATM    2  C2  UNL     1      17.433  29.138  11.462  1.00  0.00     0.010 A 
HETATM    3  C3  UNL     1      17.739  27.955  10.862  1.00  0.00     0.056 A 
HETATM    4  C4  UNL     1      19.063  27.634  11.104  1.00  0.00     0.065 A 
HETATM    5  N1  UNL     1      19.784  26.566  10.711  1.00  0.00    -0.357 N 
ATOM      6  H1  UNL     1      19.353  25.839  10.139  1.00  0.00     0.166 HD
HETATM    7  C5  UNL     1      21.066  26.464  11.074  1.00  0.00     0.020 A 
HETATM    8  C6  UNL     1      21.640  27.448  11.842  1.00  0.00     0.008 A 
HETATM    9  C7  UNL     1      20.920  28.579  12.269  1.00  0.00     0.143 A 
HETATM   10  C20 UNL     1      19.572  28.667  11.880  1.00  0.00     0.103 A 
HETATM   11  N6  UNL     1      18.573  29.542  12.072  1.00  0.00    -0.351 N 
HETATM   12  C21 UNL     1      18.636  30.771  12.831  1.00  0.00     0.156 C 
HETATM   13  C22 UNL     1      23.053  27.386  12.304  1.00  0.00     0.057 C 
HETATM   14  C23 UNL     1      23.907  27.630  11.086  1.00  0.00     0.098 C 
HETATM   15  C25 UNL     1      23.395  27.062   9.834  1.00  0.00     0.022 C 
HETATM   16  C26 UNL     1      22.897  25.706   9.689  1.00  0.00    -0.042 C 
HETATM   17  C27 UNL     1      23.944  24.605   9.696  1.00  0.00     0.015 C 
HETATM   18  C28 UNL     1      22.295  25.639   8.261  1.00  0.00     0.015 C 
HETATM   19  C29 UNL     1      21.768  25.236  10.551  1.00  0.00     0.066 C 
ENDROOT
BRANCH   9  20
HETATM   20  N2  UNL     1      21.482  29.437  12.887  1.00  0.00    -0.417 NA
BRANCH  20  21
HETATM   21  C8  UNL     1      21.983  30.279  13.803  1.00  0.00     0.185 C 
BRANCH  21  22
HETATM   22  C9  UNL     1      21.973  31.780  13.570  1.00  0.00     0.331 C 
BRANCH  22  23
HETATM   23  N3  UNL     1      22.247  32.513  14.785  1.00  0.00     0.094 N 
HETATM   24  C10 UNL     1      23.687  32.425  15.063  1.00  0.00     0.310 C 
BRANCH  23  25
HETATM   25  C11 UNL     1      21.576  31.945  15.940  1.00  0.00     0.317 C 
BRANCH  25  26
HETATM   26  C12 UNL     1      20.478  32.879  16.402  1.00  0.00     0.092 C 
BRANCH  26  27
HETATM   27  N4  UNL     1      19.274  32.250  16.723  1.00  0.00    -0.376 N 
HETATM   28  C13 UNL     1      19.196  30.849  16.785  1.00  0.00     0.154 C 
BRANCH  27  29
HETATM   29  C14 UNL     1      18.118  32.985  17.011  1.00  0.00     0.064 C 
BRANCH  29  30
HETATM   30  C15 UNL     1      16.916  32.667  16.141  1.00  0.00     0.064 C 
BRANCH  30  31
HETATM   31  C16 UNL     1      15.600  32.908  16.831  1.00  0.00     0.128 C 
BRANCH  31  32
HETATM   32  N5  UNL     1      15.220  34.315  16.785  1.00  0.00    -0.361 N 
HETATM   33  C17 UNL     1      15.109  35.098  17.959  1.00  0.00     0.226 C 
HETATM   34  O1  UNL     1      15.356  34.526  19.066  1.00  0.00    -0.273 OA
ATOM     35  H5  UNL     1      15.030  34.747  15.881  1.00  0.00     0.162 HD
BRANCH  33  36
HETATM   36  C18 UNL     1      14.726  36.524  17.939  1.00  0.00     0.220 C 
BRANCH  36  37
HETATM   37  C19 UNL     1      15.894  37.429  17.676  1.00  0.00     0.396 C 
HETATM   38  F1  UNL     1      15.536  38.753  17.889  1.00  0.00    -0.171 F 
HETATM   39  F2  UNL     1      16.361  37.310  16.381  1.00  0.00    -0.171 F 
HETATM   40  F3  UNL     1      16.914  37.163  18.590  1.00  0.00    -0.171 F 
ENDBRANCH  36  37
ENDBRANCH  33  36
ENDBRANCH  31  32
ENDBRANCH  30  31
ENDBRANCH  29  30
ENDBRANCH  27  29
ENDBRANCH  26  27
ENDBRANCH  25  26
ENDBRANCH  23  25
ENDBRANCH  22  23
ENDBRANCH  21  22
ENDBRANCH  20  21
ENDBRANCH   9  20
BRANCH  14  41
HETATM   41  C24 UNL     1      25.351  27.376  11.426  1.00  0.00     0.391 C 
HETATM   42  F4  UNL     1      26.076  26.939  10.336  1.00  0.00    -0.171 F 
HETATM   43  F5  UNL     1      25.545  26.609  12.545  1.00  0.00    -0.171 F 
HETATM   44  F6  UNL     1      25.897  28.632  11.747  1.00  0.00    -0.171 F 
ENDBRANCH  14  41
TORSDOF 14
ENDMDL
MODEL 5
REMARK VINA RESULT: -8.489808368      2.908      4.928
REMARK  14 active torsions:
REMARK  status: ('A' for Active; 'I' for Inactive)
REMARK    1  A    between atoms: C7_9  and  N2_10 
REMARK    2  A    between atoms: N2_10  and  C8_11 
REMARK    3  A    between atoms: C8_11  and  C9_12 
REMARK    4  A    between atoms: C9_12  and  N3_13 
REMARK    5  A    between atoms: N3_13  and  C11_15 
REMARK    6  A    between atoms: C11_15  and  C12_16 
REMARK    7  A    between atoms: C12_16  and  N4_17 
REMARK    8  A    between atoms: N4_17  and  C14_19 
REMARK    9  A    between atoms: C14_19  and  C15_20 
REMARK   10  A    between atoms: C15_20  and  C16_21 
REMARK   11  A    between atoms: C16_21  and  N5_22 
REMARK       I    between atoms: N5_22  and  C17_24 
REMARK   12  A    between atoms: C17_24  and  C18_26 
REMARK   13  A    between atoms: C18_26  and  C19_27 
REMARK   14  A    between atoms: C23_35  and  C24_36 
ROOT
HETATM    1  C1  UNL     1      24.144  32.480  14.925  1.00  0.00     0.068 C 
HETATM    2  C2  UNL     1      22.809  32.810  15.503  1.00  0.00     0.010 A 
HETATM    3  C3  UNL     1      22.594  33.559  16.620  1.00  0.00     0.056 A 
HETATM    4  C4  UNL     1      21.236  33.664  16.861  1.00  0.00     0.065 A 
HETATM    5  N1  UNL     1      20.575  34.301  17.847  1.00  0.00    -0.357 N 
ATOM      6  H1  UNL     1      21.092  34.812  18.563  1.00  0.00     0.166 HD
HETATM    7  C5  UNL     1      19.239  34.261  17.881  1.00  0.00     0.020 A 
HETATM    8  C6  UNL     1      18.550  33.573  16.912  1.00  0.00     0.008 A 
HETATM    9  C7  UNL     1      19.205  32.898  15.866  1.00  0.00     0.143 A 
HETATM   10  C20 UNL     1      20.610  32.948  15.848  1.00  0.00     0.103 A 
HETATM   11  N6  UNL     1      21.579  32.456  15.061  1.00  0.00    -0.351 N 
HETATM   12  C21 UNL     1      21.400  31.636  13.883  1.00  0.00     0.156 C 
HETATM   13  C22 UNL     1      17.067  33.465  16.905  1.00  0.00     0.057 C 
HETATM   14  C23 UNL     1      16.545  34.826  16.520  1.00  0.00     0.098 C 
HETATM   15  C25 UNL     1      17.313  35.963  17.039  1.00  0.00     0.022 C 
HETATM   16  C26 UNL     1      17.759  36.096  18.415  1.00  0.00    -0.042 C 
HETATM   17  C27 UNL     1      16.684  36.426  19.436  1.00  0.00     0.015 C 
HETATM   18  C28 UNL     1      18.683  37.342  18.430  1.00  0.00     0.015 C 
HETATM   19  C29 UNL     1      18.620  35.032  19.020  1.00  0.00     0.066 C 
ENDROOT
BRANCH   9  20
HETATM   20  N2  UNL     1      18.557  32.362  15.013  1.00  0.00    -0.417 NA
BRANCH  20  21
HETATM   21  C8  UNL     1      17.822  31.547  14.242  1.00  0.00     0.185 C 
BRANCH  21  22
HETATM   22  C9  UNL     1      18.129  30.062  14.163  1.00  0.00     0.331 C 
BRANCH  22  23
HETATM   23  N3  UNL     1      18.525  29.667  12.831  1.00  0.00     0.094 N 
HETATM   24  C10 UNL     1      17.328  29.646  11.979  1.00  0.00     0.310 C 
BRANCH  23  25
HETATM   25  C11 UNL     1      19.074  28.324  12.790  1.00  0.00     0.317 C 
BRANCH  25  26
HETATM   26  C12 UNL     1      19.406  27.951  11.361  1.00  0.00     0.092 C 
BRANCH  26  27
HETATM   27  N4  UNL     1      19.212  26.605  11.049  1.00  0.00    -0.376 N 
HETATM   28  C13 UNL     1      18.447  25.781  11.891  1.00  0.00     0.154 C 
BRANCH  27  29
HETATM   29  C14 UNL     1      19.750  26.037   9.888  1.00  0.00     0.064 C 
BRANCH  29  30
HETATM   30  C15 UNL     1      20.763  24.931  10.118  1.00  0.00     0.064 C 
BRANCH  30  31
HETATM   31  C16 UNL     1      22.131  25.254   9.579  1.00  0.00     0.128 C 
BRANCH  31  32
HETATM   32  N5  UNL     1      22.636  26.511  10.118  1.00  0.00    -0.361 N 
HETATM   33  C17 UNL     1      23.650  26.548  11.104  1.00  0.00     0.226 C 
HETATM   34  O1  UNL     1      24.112  25.435  11.507  1.00  0.00    -0.273 OA
ATOM     35  H5  UNL     1      22.247  27.390   9.774  1.00  0.00     0.162 HD
BRANCH  33  36
HETATM   36  C18 UNL     1      24.178  27.808  11.666  1.00  0.00     0.220 C 
BRANCH  36  37
HETATM   37  C19 UNL     1      23.134  28.581  12.419  1.00  0.00     0.396 C 
HETATM   38  F1  UNL     1      23.735  29.437  13.333  1.00  0.00    -0.171 F 
HETATM   39  F2  UNL     1      22.270  27.752  13.107  1.00  0.00    -0.171 F 
HETATM   40  F3  UNL     1      22.429  29.404  11.541  1.00  0.00    -0.171 F 
ENDBRANCH  36  37
ENDBRANCH  33  36
ENDBRANCH  31  32
ENDBRANCH  30  31
ENDBRANCH  29  30
ENDBRANCH  27  29
ENDBRANCH  26  27
ENDBRANCH  25  26
ENDBRANCH  23  25
ENDBRANCH  22  23
ENDBRANCH  21  22
ENDBRANCH  20  21
ENDBRANCH   9  20
BRANCH  14  41
HETATM   41  C24 UNL     1      15.050  34.859  16.693  1.00  0.00     0.391 C 
HETATM   42  F4  UNL     1      14.562  36.147  16.772  1.00  0.00    -0.171 F 
HETATM   43  F5  UNL     1      14.575  34.040  17.684  1.00  0.00    -0.171 F 
HETATM   44  F6  UNL     1      14.515  34.337  15.503  1.00  0.00    -0.171 F 
ENDBRANCH  14  41
TORSDOF 14
ENDMDL
