MODEL 1
REMARK VINA RESULT: -8.648672313      0.000      0.000
REMARK  16 active torsions:
REMARK  status: ('A' for Active; 'I' for Inactive)
REMARK    1  A    between atoms: C2_2  and  C3_3 
REMARK    2  A    between atoms: C6_6  and  C8_8 
REMARK    3  A    between atoms: C8_8  and  O1_9 
REMARK    4  A    between atoms: O1_9  and  C9_10 
REMARK    5  A    between atoms: C11_13  and  O3_14 
REMARK    6  A    between atoms: C12_16  and  C13_17 
REMARK    7  A    between atoms: C13_17  and  C14_18 
REMARK    8  A    between atoms: C18_22  and  C19_23 
REMARK    9  A    between atoms: C19_23  and  C20_24 
REMARK   10  A    between atoms: C21_25  and  C23_27 
REMARK   11  A    between atoms: C23_27  and  C24_28 
REMARK   12  A    between atoms: C24_28  and  C25_29 
REMARK   13  A    between atoms: C25_29  and  N1_30 
REMARK   14  A    between atoms: C25_29  and  C26_34 
REMARK       I    between atoms: C26_34  and  N2_36 
REMARK   15  A    between atoms: N2_36  and  S1_38 
REMARK   16  A    between atoms: S1_38  and  C27_41 
ROOT
HETATM    1  C3  UNL     1      21.876  31.333  13.786  1.00  0.00     0.013 C 
HETATM    2  C4  UNL     1      21.590  30.888  12.343  1.00  0.00     0.015 C 
HETATM    3  C5  UNL     1      20.348  30.045  12.428  1.00  0.00     0.011 C 
HETATM    4  C6  UNL     1      20.459  28.604  12.731  1.00  0.00     0.009 C 
HETATM    5  C7  UNL     1      19.424  27.778  11.983  1.00  0.00     0.020 C 
HETATM    6  C11 UNL     1      20.020  28.935  14.164  1.00  0.00     0.138 C 
HETATM    7  C12 UNL     1      19.698  30.329  13.770  1.00  0.00    -0.001 C 
HETATM    8  C18 UNL     1      20.487  31.436  14.358  1.00  0.00     0.008 C 
ENDROOT
BRANCH   8   9
HETATM    9  C19 UNL     1      20.393  31.688  15.795  1.00  0.00     0.033 C 
BRANCH   9  10
HETATM   10  C20 UNL     1      20.552  33.030  16.316  1.00  0.00    -0.024 C 
HETATM   11  C21 UNL     1      21.582  33.332  17.091  1.00  0.00    -0.087 C 
HETATM   12  C22 UNL     1      22.599  32.284  17.440  1.00  0.00     0.043 C 
BRANCH  11  13
HETATM   13  C23 UNL     1      21.748  34.734  17.641  1.00  0.00     0.036 C 
BRANCH  13  14
HETATM   14  C24 UNL     1      21.511  35.686  16.518  1.00  0.00     0.047 C 
BRANCH  14  15
HETATM   15  C25 UNL     1      21.149  37.082  16.971  1.00  0.00     0.276 C 
BRANCH  15  16
HETATM   16  N1  UNL     1      21.022  38.004  15.878  1.00  0.00    -0.066 N 
ATOM     17  H13 UNL     1      21.880  38.039  15.327  1.00  0.00     0.275 HD
ATOM     18  H12 UNL     1      20.384  37.646  15.169  1.00  0.00     0.275 HD
ATOM     19  H11 UNL     1      20.745  38.938  16.181  1.00  0.00     0.275 HD
ENDBRANCH  15  16
BRANCH  15  20
HETATM   20  C26 UNL     1      19.900  36.964  17.760  1.00  0.00     0.261 C 
HETATM   21  O4  UNL     1      19.857  37.253  18.974  1.00  0.00    -0.270 OA
HETATM   22  N2  UNL     1      18.726  36.512  17.114  1.00  0.00    -0.252 N 
ATOM     23  H2  UNL     1      18.744  36.271  16.122  1.00  0.00     0.181 HD
BRANCH  22  24
HETATM   24  S1  UNL     1      17.255  36.369  18.026  1.00  0.00     0.237 S 
HETATM   25  O5  UNL     1      17.360  35.242  19.029  1.00  0.00    -0.205 OA
HETATM   26  O6  UNL     1      16.975  37.672  18.735  1.00  0.00    -0.205 OA
BRANCH  24  27
HETATM   27  C27 UNL     1      15.922  35.982  16.918  1.00  0.00     0.130 A 
HETATM   28  C28 UNL     1      15.099  34.778  17.341  1.00  0.00     0.023 A 
HETATM   29  C29 UNL     1      14.509  36.171  17.371  1.00  0.00     0.023 A 
ENDBRANCH  24  27
ENDBRANCH  22  24
ENDBRANCH  15  20
ENDBRANCH  14  15
ENDBRANCH  13  14
ENDBRANCH  11  13
ENDBRANCH   9  10
ENDBRANCH   8   9
BRANCH   1  30
HETATM   30  C2  UNL     1      22.565  32.638  13.749  1.00  0.00    -0.032 C 
HETATM   31  C1  UNL     1      23.728  32.952  14.236  1.00  0.00     0.007 C 
ENDBRANCH   1  30
BRANCH   7  32
HETATM   32  C13 UNL     1      18.212  30.571  13.702  1.00  0.00     0.040 C 
BRANCH  32  33
HETATM   33  C14 UNL     1      17.875  32.034  13.548  1.00  0.00    -0.024 C 
HETATM   34  C15 UNL     1      17.129  32.659  14.424  1.00  0.00    -0.091 C 
HETATM   35  C16 UNL     1      16.553  31.997  15.632  1.00  0.00     0.042 C 
HETATM   36  C17 UNL     1      16.850  34.128  14.174  1.00  0.00     0.042 C 
ENDBRANCH  32  33
ENDBRANCH   7  32
BRANCH   6  37
HETATM   37  O3  UNL     1      18.939  28.151  14.506  1.00  0.00    -0.394 OA
ATOM     38  H3  UNL     1      19.131  27.682  15.310  1.00  0.00     0.210 HD
ENDBRANCH   6  37
BRANCH   4  39
HETATM   39  C8  UNL     1      21.786  27.940  12.754  1.00  0.00     0.191 C 
BRANCH  39  40
HETATM   40  O1  UNL     1      21.972  26.965  11.776  1.00  0.00    -0.321 OA
BRANCH  40  41
HETATM   41  C9  UNL     1      23.260  26.531  11.499  1.00  0.00     0.254 C 
HETATM   42  C10 UNL     1      24.422  27.479  11.547  1.00  0.00     0.126 C 
HETATM   43  O2  UNL     1      23.496  25.330  11.200  1.00  0.00    -0.266 OA
ENDBRANCH  40  41
ENDBRANCH  39  40
ENDBRANCH   4  39
TORSDOF 16
ENDMDL
MODEL 2
REMARK VINA RESULT: -8.495375733      5.268      9.553
REMARK  16 active torsions:
REMARK  status: ('A' for Active; 'I' for Inactive)
REMARK    1  A    between atoms: C2_2  and  C3_3 
REMARK    2  A    between atoms: C6_6  and  C8_8 
REMARK    3  A    between atoms: C8_8  and  O1_9 
REMARK    4  A    between atoms: O1_9  and  C9_10 
REMARK    5  A    between atoms: C11_13  and  O3_14 
REMARK    6  A    between atoms: C12_16  and  C13_17 
REMARK    7  A    between atoms: C13_17  and  C14_18 
REMARK    8  A    between atoms: C18_22  and  C19_23 
REMARK    9  A    between atoms: C19_23  and  C20_24 
REMARK   10  A    between atoms: C21_25  and  C23_27 
REMARK   11  A    between atoms: C23_27  and  C24_28 
REMARK   12  A    between atoms: C24_28  and  C25_29 
REMARK   13  A    between atoms: C25_29  and  N1_30 
REMARK   14  A    between atoms: C25_29  and  C26_34 
REMARK       I    between atoms: C26_34  and  N2_36 
REMARK   15  A    between atoms: N2_36  and  S1_38 
REMARK   16  A    between atoms: S1_38  and  C27_41 
ROOT
HETATM    1  C3  UNL     1      18.830  28.614  13.481  1.00  0.00     0.013 C 
HETATM    2  C4  UNL     1      19.527  28.884  14.825  1.00  0.00     0.015 C 
HETATM    3  C5  UNL     1      20.111  30.263  14.697  1.00  0.00     0.011 C 
HETATM    4  C6  UNL     1      21.449  30.440  14.096  1.00  0.00     0.009 C 
HETATM    5  C7  UNL     1      22.234  31.560  14.761  1.00  0.00     0.020 C 
HETATM    6  C11 UNL     1      20.743  30.901  12.814  1.00  0.00     0.138 C 
HETATM    7  C12 UNL     1      19.436  30.935  13.515  1.00  0.00    -0.001 C 
HETATM    8  C18 UNL     1      18.374  29.994  13.088  1.00  0.00     0.008 C 
ENDROOT
BRANCH   8   9
HETATM    9  C19 UNL     1      17.800  30.132  11.750  1.00  0.00     0.033 C 
BRANCH   9  10
HETATM   10  C20 UNL     1      18.289  29.319  10.655  1.00  0.00    -0.024 C 
HETATM   11  C21 UNL     1      17.451  28.592   9.932  1.00  0.00    -0.087 C 
HETATM   12  C22 UNL     1      15.982  28.601  10.241  1.00  0.00     0.043 C 
BRANCH  11  13
HETATM   13  C23 UNL     1      17.961  27.738   8.789  1.00  0.00     0.036 C 
BRANCH  13  14
HETATM   14  C24 UNL     1      18.996  26.820   9.344  1.00  0.00     0.047 C 
BRANCH  14  15
HETATM   15  C25 UNL     1      19.290  25.630   8.459  1.00  0.00     0.276 C 
BRANCH  15  16
HETATM   16  N1  UNL     1      19.339  25.974   7.066  1.00  0.00    -0.066 N 
ATOM     17  H13 UNL     1      20.068  26.663   6.884  1.00  0.00     0.275 HD
ATOM     18  H12 UNL     1      19.701  25.200   6.510  1.00  0.00     0.275 HD
ATOM     19  H11 UNL     1      18.438  26.292   6.706  1.00  0.00     0.275 HD
ENDBRANCH  15  16
BRANCH  15  20
HETATM   20  C26 UNL     1      20.561  25.041   8.941  1.00  0.00     0.261 C 
HETATM   21  O4  UNL     1      20.629  23.863   9.349  1.00  0.00    -0.270 OA
HETATM   22  N2  UNL     1      21.727  25.841   8.938  1.00  0.00    -0.252 N 
ATOM     23  H2  UNL     1      21.688  26.806   8.608  1.00  0.00     0.181 HD
BRANCH  22  24
HETATM   24  S1  UNL     1      23.224  25.164   9.500  1.00  0.00     0.237 S 
HETATM   25  O5  UNL     1      23.093  24.704  10.935  1.00  0.00    -0.205 OA
HETATM   26  O6  UNL     1      23.615  24.005   8.616  1.00  0.00    -0.205 OA
BRANCH  24  27
HETATM   27  C27 UNL     1      24.482  26.418   9.449  1.00  0.00     0.130 A 
HETATM   28  C28 UNL     1      25.291  26.531  10.729  1.00  0.00     0.023 A 
HETATM   29  C29 UNL     1      25.922  26.015   9.455  1.00  0.00     0.023 A 
ENDBRANCH  24  27
ENDBRANCH  22  24
ENDBRANCH  15  20
ENDBRANCH  14  15
ENDBRANCH  13  14
ENDBRANCH  11  13
ENDBRANCH   9  10
ENDBRANCH   8   9
BRANCH   1  30
HETATM   30  C2  UNL     1      17.699  27.694  13.714  1.00  0.00    -0.032 C 
HETATM   31  C1  UNL     1      17.317  26.684  12.993  1.00  0.00     0.007 C 
ENDBRANCH   1  30
BRANCH   7  32
HETATM   32  C13 UNL     1      18.969  32.343  13.782  1.00  0.00     0.040 C 
BRANCH  32  33
HETATM   33  C14 UNL     1      17.501  32.406  14.122  1.00  0.00    -0.024 C 
HETATM   34  C15 UNL     1      17.091  32.571  15.355  1.00  0.00    -0.091 C 
HETATM   35  C16 UNL     1      18.021  32.710  16.516  1.00  0.00     0.042 C 
HETATM   36  C17 UNL     1      15.595  32.619  15.588  1.00  0.00     0.042 C 
ENDBRANCH  32  33
ENDBRANCH   7  32
BRANCH   6  37
HETATM   37  O3  UNL     1      21.241  32.128  12.431  1.00  0.00    -0.394 OA
ATOM     38  H3  UNL     1      21.974  32.001  11.839  1.00  0.00     0.210 HD
ENDBRANCH   6  37
BRANCH   4  39
HETATM   39  C8  UNL     1      22.303  29.263  13.801  1.00  0.00     0.191 C 
BRANCH  39  40
HETATM   40  O1  UNL     1      22.851  29.241  12.521  1.00  0.00    -0.321 OA
BRANCH  40  41
HETATM   41  C9  UNL     1      22.210  28.513  11.529  1.00  0.00     0.254 C 
HETATM   42  C10 UNL     1      22.150  29.018  10.118  1.00  0.00     0.126 C 
HETATM   43  O2  UNL     1      21.660  27.408  11.780  1.00  0.00    -0.266 OA
ENDBRANCH  40  41
ENDBRANCH  39  40
ENDBRANCH   4  39
TORSDOF 16
ENDMDL
MODEL 3
REMARK VINA RESULT: -8.489893959      5.494      9.791
REMARK  16 active torsions:
REMARK  status: ('A' for Active; 'I' for Inactive)
REMARK    1  A    between atoms: C2_2  and  C3_3 
REMARK    2  A    between atoms: C6_6  and  C8_8 
REMARK    3  A    between atoms: C8_8  and  O1_9 
REMARK    4  A    between atoms: O1_9  and  C9_10 
REMARK    5  A    between atoms: C11_13  and  O3_14 
REMARK    6  A    between atoms: C12_16  and  C13_17 
REMARK    7  A    between atoms: C13_17  and  C14_18 
REMARK    8  A    between atoms: C18_22  and  C19_23 
REMARK    9  A    between atoms: C19_23  and  C20_24 
REMARK   10  A    between atoms: C21_25  and  C23_27 
REMARK   11  A    between atoms: C23_27  and  C24_28 
REMARK   12  A    between atoms: C24_28  and  C25_29 
REMARK   13  A    between atoms: C25_29  and  N1_30 
REMARK   14  A    between atoms: C25_29  and  C26_34 
REMARK       I    between atoms: C26_34  and  N2_36 
REMARK   15  A    between atoms: N2_36  and  S1_38 
REMARK   16  A    between atoms: S1_38  and  C27_41 
ROOT
HETATM    1  C3  UNL     1      18.886  28.613  13.503  1.00  0.00     0.013 C 
HETATM    2  C4  UNL     1      19.742  28.898  14.748  1.00  0.00     0.015 C 
HETATM    3  C5  UNL     1      20.285  30.285  14.546  1.00  0.00     0.011 C 
HETATM    4  C6  UNL     1      21.533  30.480  13.781  1.00  0.00     0.009 C 
HETATM    5  C7  UNL     1      22.379  31.613  14.340  1.00  0.00     0.020 C 
HETATM    6  C11 UNL     1      20.665  30.926  12.597  1.00  0.00     0.138 C 
HETATM    7  C12 UNL     1      19.456  30.943  13.457  1.00  0.00    -0.001 C 
HETATM    8  C18 UNL     1      18.363  29.986  13.169  1.00  0.00     0.008 C 
ENDROOT
BRANCH   8   9
HETATM    9  C19 UNL     1      17.624  30.110  11.914  1.00  0.00     0.033 C 
BRANCH   9  10
HETATM   10  C20 UNL     1      18.110  29.470  10.708  1.00  0.00    -0.024 C 
HETATM   11  C21 UNL     1      17.293  28.758   9.949  1.00  0.00    -0.087 C 
HETATM   12  C22 UNL     1      15.848  28.603  10.330  1.00  0.00     0.043 C 
BRANCH  11  13
HETATM   13  C23 UNL     1      17.801  28.084   8.691  1.00  0.00     0.036 C 
BRANCH  13  14
HETATM   14  C24 UNL     1      17.939  26.629   8.987  1.00  0.00     0.047 C 
BRANCH  14  15
HETATM   15  C25 UNL     1      18.261  25.790   7.772  1.00  0.00     0.276 C 
BRANCH  15  16
HETATM   16  N1  UNL     1      18.472  26.581   6.592  1.00  0.00    -0.066 N 
ATOM     17  H13 UNL     1      18.463  25.999   5.754  1.00  0.00     0.275 HD
ATOM     18  H12 UNL     1      17.662  27.167   6.395  1.00  0.00     0.275 HD
ATOM     19  H11 UNL     1      19.324  27.140   6.639  1.00  0.00     0.275 HD
ENDBRANCH  15  16
BRANCH  15  20
HETATM   20  C26 UNL     1      19.443  24.968   8.120  1.00  0.00     0.261 C 
HETATM   21  O4  UNL     1      19.332  23.861   8.687  1.00  0.00    -0.270 OA
HETATM   22  N2  UNL     1      20.731  25.457   7.801  1.00  0.00    -0.252 N 
ATOM     23  H2  UNL     1      20.840  26.360   7.339  1.00  0.00     0.181 HD
BRANCH  22  24
HETATM   24  S1  UNL     1      22.126  24.503   8.204  1.00  0.00     0.237 S 
HETATM   25  O5  UNL     1      22.219  24.305   9.701  1.00  0.00    -0.205 OA
HETATM   26  O6  UNL     1      22.040  23.167   7.507  1.00  0.00    -0.205 OA
BRANCH  24  27
HETATM   27  C27 UNL     1      23.588  25.367   7.683  1.00  0.00     0.130 A 
HETATM   28  C28 UNL     1      23.685  26.788   8.210  1.00  0.00     0.023 A 
HETATM   29  C29 UNL     1      24.636  25.715   8.691  1.00  0.00     0.023 A 
ENDBRANCH  24  27
ENDBRANCH  22  24
ENDBRANCH  15  20
ENDBRANCH  14  15
ENDBRANCH  13  14
ENDBRANCH  11  13
ENDBRANCH   9  10
ENDBRANCH   8   9
BRANCH   1  30
HETATM   30  C2  UNL     1      17.806  27.678  13.878  1.00  0.00    -0.032 C 
HETATM   31  C1  UNL     1      17.188  26.815  13.130  1.00  0.00     0.007 C 
ENDBRANCH   1  30
BRANCH   7  32
HETATM   32  C13 UNL     1      19.006  32.345  13.779  1.00  0.00     0.040 C 
BRANCH  32  33
HETATM   33  C14 UNL     1      17.542  32.410  14.139  1.00  0.00    -0.024 C 
HETATM   34  C15 UNL     1      17.149  32.508  15.384  1.00  0.00    -0.091 C 
HETATM   35  C16 UNL     1      18.092  32.565  16.540  1.00  0.00     0.042 C 
HETATM   36  C17 UNL     1      15.656  32.564  15.636  1.00  0.00     0.042 C 
ENDBRANCH  32  33
ENDBRANCH   7  32
BRANCH   6  37
HETATM   37  O3  UNL     1      21.093  32.159  12.153  1.00  0.00    -0.394 OA
ATOM     38  H3  UNL     1      21.601  32.049  11.357  1.00  0.00     0.210 HD
ENDBRANCH   6  37
BRANCH   4  39
HETATM   39  C8  UNL     1      22.361  29.314  13.383  1.00  0.00     0.191 C 
BRANCH  39  40
HETATM   40  O1  UNL     1      22.346  29.021  12.021  1.00  0.00    -0.321 OA
BRANCH  40  41
HETATM   41  C9  UNL     1      22.258  27.695  11.622  1.00  0.00     0.254 C 
HETATM   42  C10 UNL     1      20.990  27.148  11.034  1.00  0.00     0.126 C 
HETATM   43  O2  UNL     1      23.236  26.910  11.738  1.00  0.00    -0.266 OA
ENDBRANCH  40  41
ENDBRANCH  39  40
ENDBRANCH   4  39
TORSDOF 16
ENDMDL
MODEL 4
REMARK VINA RESULT: -8.408348325      2.738      5.358
REMARK  16 active torsions:
REMARK  status: ('A' for Active; 'I' for Inactive)
REMARK    1  A    between atoms: C2_2  and  C3_3 
REMARK    2  A    between atoms: C6_6  and  C8_8 
REMARK    3  A    between atoms: C8_8  and  O1_9 
REMARK    4  A    between atoms: O1_9  and  C9_10 
REMARK    5  A    between atoms: C11_13  and  O3_14 
REMARK    6  A    between atoms: C12_16  and  C13_17 
REMARK    7  A    between atoms: C13_17  and  C14_18 
REMARK    8  A    between atoms: C18_22  and  C19_23 
REMARK    9  A    between atoms: C19_23  and  C20_24 
REMARK   10  A    between atoms: C21_25  and  C23_27 
REMARK   11  A    between atoms: C23_27  and  C24_28 
REMARK   12  A    between atoms: C24_28  and  C25_29 
REMARK   13  A    between atoms: C25_29  and  N1_30 
REMARK   14  A    between atoms: C25_29  and  C26_34 
REMARK       I    between atoms: C26_34  and  N2_36 
REMARK   15  A    between atoms: N2_36  and  S1_38 
REMARK   16  A    between atoms: S1_38  and  C27_41 
ROOT
HETATM    1  C3  UNL     1      17.989  33.740  14.474  1.00  0.00     0.013 C 
HETATM    2  C4  UNL     1      18.921  33.288  13.337  1.00  0.00     0.015 C 
HETATM    3  C5  UNL     1      19.676  32.111  13.888  1.00  0.00     0.011 C 
HETATM    4  C6  UNL     1      20.913  32.331  14.663  1.00  0.00     0.009 C 
HETATM    5  C7  UNL     1      21.950  31.248  14.410  1.00  0.00     0.020 C 
HETATM    6  C11 UNL     1      20.091  32.069  15.932  1.00  0.00     0.138 C 
HETATM    7  C12 UNL     1      18.930  31.629  15.119  1.00  0.00    -0.001 C 
HETATM    8  C18 UNL     1      17.687  32.434  15.160  1.00  0.00     0.008 C 
ENDROOT
BRANCH   8   9
HETATM    9  C19 UNL     1      16.937  32.517  16.413  1.00  0.00     0.033 C 
BRANCH   9  10
HETATM   10  C20 UNL     1      17.055  33.685  17.263  1.00  0.00    -0.024 C 
HETATM   11  C21 UNL     1      15.986  34.400  17.575  1.00  0.00    -0.087 C 
HETATM   12  C22 UNL     1      14.634  34.009  17.050  1.00  0.00     0.043 C 
BRANCH  11  13
HETATM   13  C23 UNL     1      16.109  35.623  18.460  1.00  0.00     0.036 C 
BRANCH  13  14
HETATM   14  C24 UNL     1      15.375  36.735  17.791  1.00  0.00     0.047 C 
BRANCH  14  15
HETATM   15  C25 UNL     1      15.824  38.110  18.231  1.00  0.00     0.276 C 
BRANCH  15  16
HETATM   16  N1  UNL     1      15.713  38.302  19.650  1.00  0.00    -0.066 N 
ATOM     17  H13 UNL     1      14.739  38.417  19.929  1.00  0.00     0.275 HD
ATOM     18  H12 UNL     1      15.928  37.441  20.153  1.00  0.00     0.275 HD
ATOM     19  H11 UNL     1      16.285  39.075  19.989  1.00  0.00     0.275 HD
ENDBRANCH  15  16
BRANCH  15  20
HETATM   20  C26 UNL     1      17.212  38.283  17.743  1.00  0.00     0.261 C 
HETATM   21  O4  UNL     1      17.469  38.458  16.534  1.00  0.00    -0.270 OA
HETATM   22  N2  UNL     1      18.272  38.249  18.678  1.00  0.00    -0.252 N 
ATOM     23  H2  UNL     1      18.080  38.106  19.670  1.00  0.00     0.181 HD
BRANCH  22  24
HETATM   24  S1  UNL     1      19.905  38.451  18.120  1.00  0.00     0.237 S 
HETATM   25  O5  UNL     1      19.933  39.260  16.843  1.00  0.00    -0.205 OA
HETATM   26  O6  UNL     1      20.719  39.139  19.189  1.00  0.00    -0.205 OA
BRANCH  24  27
HETATM   27  C27 UNL     1      20.597  36.855  17.763  1.00  0.00     0.130 A 
HETATM   28  C28 UNL     1      19.954  35.717  18.536  1.00  0.00     0.023 A 
HETATM   29  C29 UNL     1      19.771  35.839  17.040  1.00  0.00     0.023 A 
ENDBRANCH  24  27
ENDBRANCH  22  24
ENDBRANCH  15  20
ENDBRANCH  14  15
ENDBRANCH  13  14
ENDBRANCH  11  13
ENDBRANCH   9  10
ENDBRANCH   8   9
BRANCH   1  30
HETATM   30  C2  UNL     1      16.785  34.353  13.879  1.00  0.00    -0.032 C 
HETATM   31  C1  UNL     1      16.296  35.538  14.086  1.00  0.00     0.007 C 
ENDBRANCH   1  30
BRANCH   7  32
HETATM   32  C13 UNL     1      18.725  30.137  15.180  1.00  0.00     0.040 C 
BRANCH  32  33
HETATM   33  C14 UNL     1      17.843  29.633  14.064  1.00  0.00    -0.024 C 
HETATM   34  C15 UNL     1      18.322  28.890  13.098  1.00  0.00    -0.091 C 
HETATM   35  C16 UNL     1      19.756  28.480  13.012  1.00  0.00     0.042 C 
HETATM   36  C17 UNL     1      17.352  28.439  12.025  1.00  0.00     0.042 C 
ENDBRANCH  32  33
ENDBRANCH   7  32
BRANCH   6  37
HETATM   37  O3  UNL     1      20.699  31.082  16.678  1.00  0.00    -0.394 OA
ATOM     38  H3  UNL     1      21.638  31.228  16.690  1.00  0.00     0.210 HD
ENDBRANCH   6  37
BRANCH   4  39
HETATM   39  C8  UNL     1      21.527  33.681  14.734  1.00  0.00     0.191 C 
BRANCH  39  40
HETATM   40  O1  UNL     1      22.906  33.710  14.537  1.00  0.00    -0.321 OA
BRANCH  40  41
HETATM   41  C9  UNL     1      23.729  34.036  15.604  1.00  0.00     0.254 C 
HETATM   42  C10 UNL     1      23.166  34.229  16.982  1.00  0.00     0.126 C 
HETATM   43  O2  UNL     1      24.971  34.180  15.454  1.00  0.00    -0.266 OA
ENDBRANCH  40  41
ENDBRANCH  39  40
ENDBRANCH   4  39
TORSDOF 16
ENDMDL
MODEL 5
REMARK VINA RESULT: -8.401042763      2.487      5.250
REMARK  16 active torsions:
REMARK  status: ('A' for Active; 'I' for Inactive)
REMARK    1  A    between atoms: C2_2  and  C3_3 
REMARK    2  A    between atoms: C6_6  and  C8_8 
REMARK    3  A    between atoms: C8_8  and  O1_9 
REMARK    4  A    between atoms: O1_9  and  C9_10 
REMARK    5  A    between atoms: C11_13  and  O3_14 
REMARK    6  A    between atoms: C12_16  and  C13_17 
REMARK    7  A    between atoms: C13_17  and  C14_18 
REMARK    8  A    between atoms: C18_22  and  C19_23 
REMARK    9  A    between atoms: C19_23  and  C20_24 
REMARK   10  A    between atoms: C21_25  and  C23_27 
REMARK   11  A    between atoms: C23_27  and  C24_28 
REMARK   12  A    between atoms: C24_28  and  C25_29 
REMARK   13  A    between atoms: C25_29  and  N1_30 
REMARK   14  A    between atoms: C25_29  and  C26_34 
REMARK       I    between atoms: C26_34  and  N2_36 
REMARK   15  A    between atoms: N2_36  and  S1_38 
REMARK   16  A    between atoms: S1_38  and  C27_41 
ROOT
HETATM    1  C3  UNL     1      17.282  31.549  14.541  1.00  0.00     0.013 C 
HETATM    2  C4  UNL     1      17.722  30.091  14.330  1.00  0.00     0.015 C 
HETATM    3  C5  UNL     1      18.982  30.172  13.516  1.00  0.00     0.011 C 
HETATM    4  C6  UNL     1      18.901  30.243  12.043  1.00  0.00     0.009 C 
HETATM    5  C7  UNL     1      20.036  29.487  11.368  1.00  0.00     0.020 C 
HETATM    6  C11 UNL     1      19.188  31.746  12.162  1.00  0.00     0.138 C 
HETATM    7  C12 UNL     1      19.491  31.599  13.607  1.00  0.00    -0.001 C 
HETATM    8  C18 UNL     1      18.606  32.265  14.591  1.00  0.00     0.008 C 
ENDROOT
BRANCH   8   9
HETATM    9  C19 UNL     1      18.552  33.726  14.623  1.00  0.00     0.033 C 
BRANCH   9  10
HETATM   10  C20 UNL     1      17.798  34.411  15.653  1.00  0.00    -0.024 C 
HETATM   11  C21 UNL     1      16.707  35.094  15.346  1.00  0.00    -0.087 C 
HETATM   12  C22 UNL     1      16.237  35.167  13.921  1.00  0.00     0.043 C 
BRANCH  11  13
HETATM   13  C23 UNL     1      15.920  35.814  16.422  1.00  0.00     0.036 C 
BRANCH  13  14
HETATM   14  C24 UNL     1      16.895  36.289  17.445  1.00  0.00     0.047 C 
BRANCH  14  15
HETATM   15  C25 UNL     1      16.635  37.700  17.922  1.00  0.00     0.276 C 
BRANCH  15  16
HETATM   16  N1  UNL     1      15.914  37.743  19.162  1.00  0.00    -0.066 N 
ATOM     17  H13 UNL     1      16.547  37.883  19.949  1.00  0.00     0.275 HD
ATOM     18  H12 UNL     1      15.365  38.599  19.237  1.00  0.00     0.275 HD
ATOM     19  H11 UNL     1      15.328  36.921  19.307  1.00  0.00     0.275 HD
ENDBRANCH  15  16
BRANCH  15  20
HETATM   20  C26 UNL     1      17.953  38.371  18.009  1.00  0.00     0.261 C 
HETATM   21  O4  UNL     1      18.092  39.480  18.567  1.00  0.00    -0.270 OA
HETATM   22  N2  UNL     1      19.081  37.734  17.444  1.00  0.00    -0.252 N 
ATOM     23  H2  UNL     1      18.984  36.828  16.984  1.00  0.00     0.181 HD
BRANCH  22  24
HETATM   24  S1  UNL     1      20.633  38.508  17.539  1.00  0.00     0.237 S 
HETATM   25  O5  UNL     1      20.635  39.792  16.738  1.00  0.00    -0.205 OA
HETATM   26  O6  UNL     1      20.962  38.797  18.984  1.00  0.00    -0.205 OA
BRANCH  24  27
HETATM   27  C27 UNL     1      21.861  37.433  16.839  1.00  0.00     0.130 A 
HETATM   28  C28 UNL     1      22.104  36.169  17.644  1.00  0.00     0.023 A 
HETATM   29  C29 UNL     1      21.448  36.108  16.283  1.00  0.00     0.023 A 
ENDBRANCH  24  27
ENDBRANCH  22  24
ENDBRANCH  15  20
ENDBRANCH  14  15
ENDBRANCH  13  14
ENDBRANCH  11  13
ENDBRANCH   9  10
ENDBRANCH   8   9
BRANCH   1  30
HETATM   30  C2  UNL     1      16.548  31.638  15.819  1.00  0.00    -0.032 C 
HETATM   31  C1  UNL     1      15.300  31.943  16.015  1.00  0.00     0.007 C 
ENDBRANCH   1  30
BRANCH   7  32
HETATM   32  C13 UNL     1      20.965  31.718  13.895  1.00  0.00     0.040 C 
BRANCH  32  33
HETATM   33  C14 UNL     1      21.251  31.886  15.367  1.00  0.00    -0.024 C 
HETATM   34  C15 UNL     1      22.319  32.515  15.788  1.00  0.00    -0.091 C 
HETATM   35  C16 UNL     1      23.333  33.115  14.869  1.00  0.00     0.042 C 
HETATM   36  C17 UNL     1      22.513  32.626  17.286  1.00  0.00     0.042 C 
ENDBRANCH  32  33
ENDBRANCH   7  32
BRANCH   6  37
HETATM   37  O3  UNL     1      20.262  32.073  11.363  1.00  0.00    -0.394 OA
ATOM     38  H3  UNL     1      19.996  32.727  10.727  1.00  0.00     0.210 HD
ENDBRANCH   6  37
BRANCH   4  39
HETATM   39  C8  UNL     1      17.606  30.033  11.350  1.00  0.00     0.191 C 
BRANCH  39  40
HETATM   40  O1  UNL     1      17.481  28.810  10.696  1.00  0.00    -0.321 OA
BRANCH  40  41
HETATM   41  C9  UNL     1      16.419  27.980  11.022  1.00  0.00     0.254 C 
HETATM   42  C10 UNL     1      16.610  26.804  11.934  1.00  0.00     0.126 C 
HETATM   43  O2  UNL     1      15.263  28.185  10.566  1.00  0.00    -0.266 OA
ENDBRANCH  40  41
ENDBRANCH  39  40
ENDBRANCH   4  39
TORSDOF 16
ENDMDL
