MODEL 1
REMARK VINA RESULT: -6.990610988      0.000      0.000
REMARK  18 active torsions:
REMARK  status: ('A' for Active; 'I' for Inactive)
REMARK    1  A    between atoms: C3_3  and  C4_4 
REMARK    2  A    between atoms: C4_4  and  C5_5 
REMARK    3  A    between atoms: C5_5  and  C6_6 
REMARK    4  A    between atoms: C6_6  and  C7_7 
REMARK    5  A    between atoms: C7_7  and  C8_8 
REMARK    6  A    between atoms: C8_8  and  C9_9 
REMARK    7  A    between atoms: C9_9  and  C10_10 
REMARK    8  A    between atoms: C10_10  and  C11_11 
REMARK    9  A    between atoms: C11_11  and  C12_12 
REMARK   10  A    between atoms: C12_12  and  C13_13 
REMARK   11  A    between atoms: C13_13  and  C14_14 
REMARK   12  A    between atoms: C14_14  and  C15_15 
REMARK   13  A    between atoms: C15_15  and  O2_17 
REMARK   14  A    between atoms: O2_17  and  C16_18 
REMARK   15  A    between atoms: C16_18  and  C17_19 
REMARK   16  A    between atoms: C16_18  and  C20_24 
REMARK   17  A    between atoms: C17_19  and  N1_20 
REMARK       I    between atoms: N1_20  and  C18_21 
REMARK       I    between atoms: C20_24  and  N2_26 
REMARK   18  A    between atoms: C26_32  and  N3_33 
ROOT
HETATM    1  C1  UNL     1      19.185  24.057  11.318  1.00  0.00     0.012 C 
HETATM    2  C2  UNL     1      18.672  24.000  10.245  1.00  0.00    -0.117 C 
HETATM    3  C3  UNL     1      18.055  23.957   8.919  1.00  0.00     0.097 C 
ENDROOT
BRANCH   3   4
HETATM    4  C4  UNL     1      17.500  25.304   8.537  1.00  0.00     0.039 C 
BRANCH   4   5
HETATM    5  C5  UNL     1      18.471  26.376   8.313  1.00  0.00    -0.030 C 
BRANCH   5   6
HETATM    6  C6  UNL     1      18.530  27.588   9.119  1.00  0.00    -0.031 C 
BRANCH   6   7
HETATM    7  C7  UNL     1      17.551  27.915  10.162  1.00  0.00     0.027 C 
BRANCH   7   8
HETATM    8  C8  UNL     1      17.863  27.382  11.516  1.00  0.00     0.004 C 
BRANCH   8   9
HETATM    9  C9  UNL     1      17.742  28.358  12.648  1.00  0.00     0.000 C 
BRANCH   9  10
HETATM   10  C10 UNL     1      17.532  29.789  12.231  1.00  0.00     0.000 C 
BRANCH  10  11
HETATM   11  C11 UNL     1      17.756  30.748  13.356  1.00  0.00     0.000 C 
BRANCH  11  12
HETATM   12  C12 UNL     1      17.801  30.205  14.730  1.00  0.00     0.000 C 
BRANCH  12  13
HETATM   13  C13 UNL     1      17.333  31.132  15.821  1.00  0.00     0.010 C 
BRANCH  13  14
HETATM   14  C14 UNL     1      16.835  32.457  15.330  1.00  0.00     0.111 C 
BRANCH  14  15
HETATM   15  C15 UNL     1      17.851  33.490  15.134  1.00  0.00     0.259 C 
HETATM   16  O1  UNL     1      17.626  34.492  14.435  1.00  0.00    -0.265 OA
BRANCH  15  17
HETATM   17  O2  UNL     1      19.124  33.429  15.710  1.00  0.00    -0.304 OA
BRANCH  17  18
HETATM   18  C16 UNL     1      20.282  33.116  14.852  1.00  0.00     0.254 C 
BRANCH  18  19
HETATM   19  C17 UNL     1      21.259  34.310  15.084  1.00  0.00     0.264 C 
BRANCH  19  20
HETATM   20  N1  UNL     1      21.169  34.780  16.340  1.00  0.00    -0.413 NA
HETATM   21  C18 UNL     1      21.055  35.240  17.621  1.00  0.00     0.282 C 
HETATM   22  C19 UNL     1      22.058  36.305  18.089  1.00  0.00     0.134 C 
HETATM   23  O3  UNL     1      20.234  34.917  18.494  1.00  0.00    -0.258 OA
ENDBRANCH  19  20
ENDBRANCH  18  19
BRANCH  18  24
HETATM   24  C20 UNL     1      20.811  31.829  15.193  1.00  0.00     0.252 C 
HETATM   25  O4  UNL     1      20.823  31.525  16.456  1.00  0.00    -0.270 OA
HETATM   26  N2  UNL     1      21.321  30.852  14.323  1.00  0.00    -0.350 N 
HETATM   27  C21 UNL     1      21.408  30.951  12.898  1.00  0.00     0.126 C 
HETATM   28  C30 UNL     1      21.841  29.606  14.938  1.00  0.00     0.126 C 
HETATM   29  C22 UNL     1      21.289  29.702  12.107  1.00  0.00     0.030 C 
HETATM   30  C23 UNL     1      21.793  28.471  12.805  1.00  0.00    -0.031 C 
HETATM   31  C24 UNL     1      21.247  27.261  12.089  1.00  0.00     0.012 C 
HETATM   32  C28 UNL     1      23.287  28.406  12.932  1.00  0.00     0.090 C 
HETATM   33  C29 UNL     1      21.176  28.457  14.224  1.00  0.00     0.030 C 
HETATM   34  C25 UNL     1      21.797  27.199  10.686  1.00  0.00     0.041 C 
HETATM   35  C26 UNL     1      23.274  26.902  10.776  1.00  0.00     0.252 C 
HETATM   36  C27 UNL     1      23.945  27.551  11.910  1.00  0.00     0.158 C 
HETATM   37  O5  UNL     1      25.154  27.375  12.028  1.00  0.00    -0.296 OA
BRANCH  35  38
HETATM   38  N3  UNL     1      23.946  27.282   9.531  1.00  0.00    -0.068 N 
ATOM     39  H33 UNL     1      24.430  26.493   9.103  1.00  0.00     0.275 HD
ATOM     40  H32 UNL     1      23.279  27.473   8.782  1.00  0.00     0.275 HD
ATOM     41  H31 UNL     1      24.572  28.070   9.694  1.00  0.00     0.275 HD
ENDBRANCH  35  38
ENDBRANCH  18  24
ENDBRANCH  17  18
ENDBRANCH  15  17
ENDBRANCH  14  15
ENDBRANCH  13  14
ENDBRANCH  12  13
ENDBRANCH  11  12
ENDBRANCH  10  11
ENDBRANCH   9  10
ENDBRANCH   8   9
ENDBRANCH   7   8
ENDBRANCH   6   7
ENDBRANCH   5   6
ENDBRANCH   4   5
ENDBRANCH   3   4
TORSDOF 18
ENDMDL
MODEL 2
REMARK VINA RESULT: -6.934075756      3.500      6.226
REMARK  18 active torsions:
REMARK  status: ('A' for Active; 'I' for Inactive)
REMARK    1  A    between atoms: C3_3  and  C4_4 
REMARK    2  A    between atoms: C4_4  and  C5_5 
REMARK    3  A    between atoms: C5_5  and  C6_6 
REMARK    4  A    between atoms: C6_6  and  C7_7 
REMARK    5  A    between atoms: C7_7  and  C8_8 
REMARK    6  A    between atoms: C8_8  and  C9_9 
REMARK    7  A    between atoms: C9_9  and  C10_10 
REMARK    8  A    between atoms: C10_10  and  C11_11 
REMARK    9  A    between atoms: C11_11  and  C12_12 
REMARK   10  A    between atoms: C12_12  and  C13_13 
REMARK   11  A    between atoms: C13_13  and  C14_14 
REMARK   12  A    between atoms: C14_14  and  C15_15 
REMARK   13  A    between atoms: C15_15  and  O2_17 
REMARK   14  A    between atoms: O2_17  and  C16_18 
REMARK   15  A    between atoms: C16_18  and  C17_19 
REMARK   16  A    between atoms: C16_18  and  C20_24 
REMARK   17  A    between atoms: C17_19  and  N1_20 
REMARK       I    between atoms: N1_20  and  C18_21 
REMARK       I    between atoms: C20_24  and  N2_26 
REMARK   18  A    between atoms: C26_32  and  N3_33 
ROOT
HETATM    1  C1  UNL     1      17.454  27.460  14.050  1.00  0.00     0.012 C 
HETATM    2  C2  UNL     1      18.436  28.043  13.714  1.00  0.00    -0.117 C 
HETATM    3  C3  UNL     1      19.627  28.786  13.300  1.00  0.00     0.097 C 
ENDROOT
BRANCH   3   4
HETATM    4  C4  UNL     1      19.304  29.748  12.186  1.00  0.00     0.039 C 
BRANCH   4   5
HETATM    5  C5  UNL     1      19.681  31.147  12.394  1.00  0.00    -0.030 C 
BRANCH   5   6
HETATM    6  C6  UNL     1      19.119  31.981  13.447  1.00  0.00    -0.031 C 
BRANCH   6   7
HETATM    7  C7  UNL     1      17.839  31.699  14.108  1.00  0.00     0.027 C 
BRANCH   7   8
HETATM    8  C8  UNL     1      17.940  31.238  15.519  1.00  0.00     0.004 C 
BRANCH   8   9
HETATM    9  C9  UNL     1      16.785  31.590  16.407  1.00  0.00     0.000 C 
BRANCH   9  10
HETATM   10  C10 UNL     1      15.640  32.281  15.715  1.00  0.00     0.000 C 
BRANCH  10  11
HETATM   11  C11 UNL     1      15.507  33.712  16.125  1.00  0.00     0.000 C 
BRANCH  11  12
HETATM   12  C12 UNL     1      16.348  34.713  15.435  1.00  0.00     0.000 C 
BRANCH  12  13
HETATM   13  C13 UNL     1      16.340  36.099  16.023  1.00  0.00     0.010 C 
BRANCH  13  14
HETATM   14  C14 UNL     1      15.815  36.170  17.425  1.00  0.00     0.111 C 
BRANCH  14  15
HETATM   15  C15 UNL     1      16.818  36.110  18.488  1.00  0.00     0.259 C 
HETATM   16  O1  UNL     1      17.129  35.032  19.021  1.00  0.00    -0.265 OA
BRANCH  15  17
HETATM   17  O2  UNL     1      17.488  37.239  18.970  1.00  0.00    -0.304 OA
BRANCH  17  18
HETATM   18  C16 UNL     1      18.480  37.904  18.105  1.00  0.00     0.254 C 
BRANCH  18  19
HETATM   19  C17 UNL     1      18.303  39.421  18.423  1.00  0.00     0.264 C 
BRANCH  19  20
HETATM   20  N1  UNL     1      17.004  39.763  18.470  1.00  0.00    -0.413 NA
HETATM   21  C18 UNL     1      15.679  40.089  18.535  1.00  0.00     0.282 C 
HETATM   22  C19 UNL     1      15.217  41.352  17.794  1.00  0.00     0.134 C 
HETATM   23  O3  UNL     1      14.760  39.496  19.122  1.00  0.00    -0.258 OA
ENDBRANCH  19  20
ENDBRANCH  18  19
BRANCH  18  24
HETATM   24  C20 UNL     1      19.788  37.382  18.368  1.00  0.00     0.252 C 
HETATM   25  O4  UNL     1      20.488  38.003  19.268  1.00  0.00    -0.270 OA
HETATM   26  N2  UNL     1      20.407  36.274  17.767  1.00  0.00    -0.350 N 
HETATM   27  C21 UNL     1      19.839  35.431  16.760  1.00  0.00     0.126 C 
HETATM   28  C30 UNL     1      21.790  35.958  18.199  1.00  0.00     0.126 C 
HETATM   29  C22 UNL     1      20.250  34.007  16.734  1.00  0.00     0.030 C 
HETATM   30  C23 UNL     1      21.646  33.751  17.226  1.00  0.00    -0.031 C 
HETATM   31  C24 UNL     1      21.780  32.280  17.534  1.00  0.00     0.012 C 
HETATM   32  C28 UNL     1      22.721  34.216  16.288  1.00  0.00     0.090 C 
HETATM   33  C29 UNL     1      21.808  34.497  18.571  1.00  0.00     0.030 C 
HETATM   34  C25 UNL     1      21.629  31.472  16.269  1.00  0.00     0.041 C 
HETATM   35  C26 UNL     1      22.827  31.746  15.394  1.00  0.00     0.252 C 
HETATM   36  C27 UNL     1      23.300  33.135  15.447  1.00  0.00     0.158 C 
HETATM   37  O5  UNL     1      24.255  33.435  14.737  1.00  0.00    -0.296 OA
BRANCH  35  38
HETATM   38  N3  UNL     1      22.535  31.384  14.004  1.00  0.00    -0.068 N 
ATOM     39  H33 UNL     1      21.577  31.049  13.892  1.00  0.00     0.275 HD
ATOM     40  H32 UNL     1      22.479  32.205  13.401  1.00  0.00     0.275 HD
ATOM     41  H31 UNL     1      23.217  30.707  13.664  1.00  0.00     0.275 HD
ENDBRANCH  35  38
ENDBRANCH  18  24
ENDBRANCH  17  18
ENDBRANCH  15  17
ENDBRANCH  14  15
ENDBRANCH  13  14
ENDBRANCH  12  13
ENDBRANCH  11  12
ENDBRANCH  10  11
ENDBRANCH   9  10
ENDBRANCH   8   9
ENDBRANCH   7   8
ENDBRANCH   6   7
ENDBRANCH   5   6
ENDBRANCH   4   5
ENDBRANCH   3   4
TORSDOF 18
ENDMDL
MODEL 3
REMARK VINA RESULT: -6.909585457      3.024     10.271
REMARK  18 active torsions:
REMARK  status: ('A' for Active; 'I' for Inactive)
REMARK    1  A    between atoms: C3_3  and  C4_4 
REMARK    2  A    between atoms: C4_4  and  C5_5 
REMARK    3  A    between atoms: C5_5  and  C6_6 
REMARK    4  A    between atoms: C6_6  and  C7_7 
REMARK    5  A    between atoms: C7_7  and  C8_8 
REMARK    6  A    between atoms: C8_8  and  C9_9 
REMARK    7  A    between atoms: C9_9  and  C10_10 
REMARK    8  A    between atoms: C10_10  and  C11_11 
REMARK    9  A    between atoms: C11_11  and  C12_12 
REMARK   10  A    between atoms: C12_12  and  C13_13 
REMARK   11  A    between atoms: C13_13  and  C14_14 
REMARK   12  A    between atoms: C14_14  and  C15_15 
REMARK   13  A    between atoms: C15_15  and  O2_17 
REMARK   14  A    between atoms: O2_17  and  C16_18 
REMARK   15  A    between atoms: C16_18  and  C17_19 
REMARK   16  A    between atoms: C16_18  and  C20_24 
REMARK   17  A    between atoms: C17_19  and  N1_20 
REMARK       I    between atoms: N1_20  and  C18_21 
REMARK       I    between atoms: C20_24  and  N2_26 
REMARK   18  A    between atoms: C26_32  and  N3_33 
ROOT
HETATM    1  C1  UNL     1      21.988  41.060  16.098  1.00  0.00     0.012 C 
HETATM    2  C2  UNL     1      21.513  40.488  17.028  1.00  0.00    -0.117 C 
HETATM    3  C3  UNL     1      20.948  39.759  18.164  1.00  0.00     0.097 C 
ENDROOT
BRANCH   3   4
HETATM    4  C4  UNL     1      20.675  38.322  17.803  1.00  0.00     0.039 C 
BRANCH   4   5
HETATM    5  C5  UNL     1      21.690  37.642  16.997  1.00  0.00    -0.030 C 
BRANCH   5   6
HETATM    6  C6  UNL     1      22.452  36.494  17.467  1.00  0.00    -0.031 C 
BRANCH   6   7
HETATM    7  C7  UNL     1      21.843  35.332  18.125  1.00  0.00     0.027 C 
BRANCH   7   8
HETATM    8  C8  UNL     1      22.177  34.013  17.523  1.00  0.00     0.004 C 
BRANCH   8   9
HETATM    9  C9  UNL     1      21.981  33.901  16.041  1.00  0.00     0.000 C 
BRANCH   9  10
HETATM   10  C10 UNL     1      23.219  33.540  15.264  1.00  0.00     0.000 C 
BRANCH  10  11
HETATM   11  C11 UNL     1      23.061  32.262  14.504  1.00  0.00     0.000 C 
BRANCH  11  12
HETATM   12  C12 UNL     1      22.258  31.184  15.119  1.00  0.00     0.000 C 
BRANCH  12  13
HETATM   13  C13 UNL     1      21.804  30.089  14.190  1.00  0.00     0.010 C 
BRANCH  13  14
HETATM   14  C14 UNL     1      21.732  30.494  12.750  1.00  0.00     0.111 C 
BRANCH  14  15
HETATM   15  C15 UNL     1      20.427  30.956  12.279  1.00  0.00     0.259 C 
HETATM   16  O1  UNL     1      20.191  32.164  12.113  1.00  0.00    -0.265 OA
BRANCH  15  17
HETATM   17  O2  UNL     1      19.370  30.088  11.984  1.00  0.00    -0.304 OA
BRANCH  17  18
HETATM   18  C16 UNL     1      18.018  30.417  12.472  1.00  0.00     0.254 C 
BRANCH  18  19
HETATM   19  C17 UNL     1      17.104  29.338  11.811  1.00  0.00     0.264 C 
BRANCH  19  20
HETATM   20  N1  UNL     1      17.825  28.302  11.350  1.00  0.00    -0.413 NA
HETATM   21  C18 UNL     1      18.574  27.267  10.868  1.00  0.00     0.282 C 
HETATM   22  C19 UNL     1      18.167  25.842  11.273  1.00  0.00     0.134 C 
HETATM   23  O3  UNL     1      19.568  27.305  10.125  1.00  0.00    -0.258 OA
ENDBRANCH  19  20
ENDBRANCH  18  19
BRANCH  18  24
HETATM   24  C20 UNL     1      18.003  30.425  13.904  1.00  0.00     0.252 C 
HETATM   25  O4  UNL     1      18.297  29.304  14.492  1.00  0.00    -0.270 OA
HETATM   26  N2  UNL     1      17.707  31.503  14.754  1.00  0.00    -0.350 N 
HETATM   27  C21 UNL     1      17.362  32.830  14.348  1.00  0.00     0.126 C 
HETATM   28  C30 UNL     1      17.731  31.237  16.214  1.00  0.00     0.126 C 
HETATM   29  C22 UNL     1      17.753  33.952  15.236  1.00  0.00     0.030 C 
HETATM   30  C23 UNL     1      17.800  33.604  16.696  1.00  0.00    -0.031 C 
HETATM   31  C24 UNL     1      18.589  34.671  17.414  1.00  0.00     0.012 C 
HETATM   32  C28 UNL     1      16.452  33.402  17.322  1.00  0.00     0.090 C 
HETATM   33  C29 UNL     1      18.609  32.293  16.834  1.00  0.00     0.030 C 
HETATM   34  C25 UNL     1      17.869  35.994  17.324  1.00  0.00     0.041 C 
HETATM   35  C26 UNL     1      16.606  35.895  18.144  1.00  0.00     0.252 C 
HETATM   36  C27 UNL     1      15.953  34.581  18.079  1.00  0.00     0.158 C 
HETATM   37  O5  UNL     1      14.905  34.439  18.701  1.00  0.00    -0.296 OA
BRANCH  35  38
HETATM   38  N3  UNL     1      15.654  36.932  17.738  1.00  0.00    -0.068 N 
ATOM     39  H33 UNL     1      15.421  37.558  18.509  1.00  0.00     0.275 HD
ATOM     40  H32 UNL     1      16.080  37.616  17.112  1.00  0.00     0.275 HD
ATOM     41  H31 UNL     1      14.823  36.507  17.328  1.00  0.00     0.275 HD
ENDBRANCH  35  38
ENDBRANCH  18  24
ENDBRANCH  17  18
ENDBRANCH  15  17
ENDBRANCH  14  15
ENDBRANCH  13  14
ENDBRANCH  12  13
ENDBRANCH  11  12
ENDBRANCH  10  11
ENDBRANCH   9  10
ENDBRANCH   8   9
ENDBRANCH   7   8
ENDBRANCH   6   7
ENDBRANCH   5   6
ENDBRANCH   4   5
ENDBRANCH   3   4
TORSDOF 18
ENDMDL
MODEL 4
REMARK VINA RESULT: -6.813577326      2.418      7.042
REMARK  18 active torsions:
REMARK  status: ('A' for Active; 'I' for Inactive)
REMARK    1  A    between atoms: C3_3  and  C4_4 
REMARK    2  A    between atoms: C4_4  and  C5_5 
REMARK    3  A    between atoms: C5_5  and  C6_6 
REMARK    4  A    between atoms: C6_6  and  C7_7 
REMARK    5  A    between atoms: C7_7  and  C8_8 
REMARK    6  A    between atoms: C8_8  and  C9_9 
REMARK    7  A    between atoms: C9_9  and  C10_10 
REMARK    8  A    between atoms: C10_10  and  C11_11 
REMARK    9  A    between atoms: C11_11  and  C12_12 
REMARK   10  A    between atoms: C12_12  and  C13_13 
REMARK   11  A    between atoms: C13_13  and  C14_14 
REMARK   12  A    between atoms: C14_14  and  C15_15 
REMARK   13  A    between atoms: C15_15  and  O2_17 
REMARK   14  A    between atoms: O2_17  and  C16_18 
REMARK   15  A    between atoms: C16_18  and  C17_19 
REMARK   16  A    between atoms: C16_18  and  C20_24 
REMARK   17  A    between atoms: C17_19  and  N1_20 
REMARK       I    between atoms: N1_20  and  C18_21 
REMARK       I    between atoms: C20_24  and  N2_26 
REMARK   18  A    between atoms: C26_32  and  N3_33 
ROOT
HETATM    1  C1  UNL     1      18.222  29.621  13.373  1.00  0.00     0.012 C 
HETATM    2  C2  UNL     1      18.633  29.015  12.434  1.00  0.00    -0.117 C 
HETATM    3  C3  UNL     1      19.109  28.270  11.268  1.00  0.00     0.097 C 
ENDROOT
BRANCH   3   4
HETATM    4  C4  UNL     1      18.147  27.170  10.900  1.00  0.00     0.039 C 
BRANCH   4   5
HETATM    5  C5  UNL     1      18.374  25.863  11.520  1.00  0.00    -0.030 C 
BRANCH   5   6
HETATM    6  C6  UNL     1      19.365  24.910  11.042  1.00  0.00    -0.031 C 
BRANCH   6   7
HETATM    7  C7  UNL     1      20.794  24.994  11.366  1.00  0.00     0.027 C 
BRANCH   7   8
HETATM    8  C8  UNL     1      21.721  24.717  10.236  1.00  0.00     0.004 C 
BRANCH   8   9
HETATM    9  C9  UNL     1      22.672  25.821   9.883  1.00  0.00     0.000 C 
BRANCH   9  10
HETATM   10  C10 UNL     1      24.128  25.489  10.078  1.00  0.00     0.000 C 
BRANCH  10  11
HETATM   11  C11 UNL     1      24.890  26.616  10.696  1.00  0.00     0.000 C 
BRANCH  11  12
HETATM   12  C12 UNL     1      24.527  27.029  12.068  1.00  0.00     0.000 C 
BRANCH  12  13
HETATM   13  C13 UNL     1      23.657  28.254  12.179  1.00  0.00     0.010 C 
BRANCH  13  14
HETATM   14  C14 UNL     1      22.354  28.021  12.881  1.00  0.00     0.111 C 
BRANCH  14  15
HETATM   15  C15 UNL     1      21.978  29.020  13.882  1.00  0.00     0.259 C 
HETATM   16  O1  UNL     1      21.249  28.727  14.844  1.00  0.00    -0.265 OA
BRANCH  15  17
HETATM   17  O2  UNL     1      22.407  30.350  13.831  1.00  0.00    -0.304 OA
BRANCH  17  18
HETATM   18  C16 UNL     1      21.843  31.320  14.789  1.00  0.00     0.254 C 
BRANCH  18  19
HETATM   19  C17 UNL     1      23.061  32.209  15.189  1.00  0.00     0.264 C 
BRANCH  19  20
HETATM   20  N1  UNL     1      22.726  33.099  16.139  1.00  0.00    -0.413 NA
HETATM   21  C18 UNL     1      22.381  33.983  17.122  1.00  0.00     0.282 C 
HETATM   22  C19 UNL     1      22.422  35.480  16.782  1.00  0.00     0.134 C 
HETATM   23  O3  UNL     1      22.027  33.750  18.288  1.00  0.00    -0.258 OA
ENDBRANCH  19  20
ENDBRANCH  18  19
BRANCH  18  24
HETATM   24  C20 UNL     1      20.753  32.026  14.185  1.00  0.00     0.252 C 
HETATM   25  O4  UNL     1      20.783  32.140  12.891  1.00  0.00    -0.270 OA
HETATM   26  N2  UNL     1      19.650  32.614  14.826  1.00  0.00    -0.350 N 
HETATM   27  C21 UNL     1      19.392  32.616  16.233  1.00  0.00     0.126 C 
HETATM   28  C30 UNL     1      18.668  33.320  13.967  1.00  0.00     0.126 C 
HETATM   29  C22 UNL     1      17.978  32.621  16.679  1.00  0.00     0.030 C 
HETATM   30  C23 UNL     1      17.030  33.313  15.743  1.00  0.00    -0.031 C 
HETATM   31  C24 UNL     1      15.624  32.893  16.092  1.00  0.00     0.012 C 
HETATM   32  C28 UNL     1      17.168  34.807  15.725  1.00  0.00     0.090 C 
HETATM   33  C29 UNL     1      17.309  32.775  14.320  1.00  0.00     0.030 C 
HETATM   34  C25 UNL     1      15.270  33.376  17.477  1.00  0.00     0.041 C 
HETATM   35  C26 UNL     1      15.173  34.882  17.436  1.00  0.00     0.252 C 
HETATM   36  C27 UNL     1      16.161  35.519  16.555  1.00  0.00     0.158 C 
HETATM   37  O5  UNL     1      16.157  36.745  16.495  1.00  0.00    -0.296 OA
BRANCH  35  38
HETATM   38  N3  UNL     1      15.298  35.436  18.786  1.00  0.00    -0.068 N 
ATOM     39  H33 UNL     1      15.901  34.865  19.378  1.00  0.00     0.275 HD
ATOM     40  H32 UNL     1      15.847  36.296  18.796  1.00  0.00     0.275 HD
ATOM     41  H31 UNL     1      14.375  35.568  19.200  1.00  0.00     0.275 HD
ENDBRANCH  35  38
ENDBRANCH  18  24
ENDBRANCH  17  18
ENDBRANCH  15  17
ENDBRANCH  14  15
ENDBRANCH  13  14
ENDBRANCH  12  13
ENDBRANCH  11  12
ENDBRANCH  10  11
ENDBRANCH   9  10
ENDBRANCH   8   9
ENDBRANCH   7   8
ENDBRANCH   6   7
ENDBRANCH   5   6
ENDBRANCH   4   5
ENDBRANCH   3   4
TORSDOF 18
ENDMDL
MODEL 5
REMARK VINA RESULT: -6.759755948      2.857      9.694
REMARK  18 active torsions:
REMARK  status: ('A' for Active; 'I' for Inactive)
REMARK    1  A    between atoms: C3_3  and  C4_4 
REMARK    2  A    between atoms: C4_4  and  C5_5 
REMARK    3  A    between atoms: C5_5  and  C6_6 
REMARK    4  A    between atoms: C6_6  and  C7_7 
REMARK    5  A    between atoms: C7_7  and  C8_8 
REMARK    6  A    between atoms: C8_8  and  C9_9 
REMARK    7  A    between atoms: C9_9  and  C10_10 
REMARK    8  A    between atoms: C10_10  and  C11_11 
REMARK    9  A    between atoms: C11_11  and  C12_12 
REMARK   10  A    between atoms: C12_12  and  C13_13 
REMARK   11  A    between atoms: C13_13  and  C14_14 
REMARK   12  A    between atoms: C14_14  and  C15_15 
REMARK   13  A    between atoms: C15_15  and  O2_17 
REMARK   14  A    between atoms: O2_17  and  C16_18 
REMARK   15  A    between atoms: C16_18  and  C17_19 
REMARK   16  A    between atoms: C16_18  and  C20_24 
REMARK   17  A    between atoms: C17_19  and  N1_20 
REMARK       I    between atoms: N1_20  and  C18_21 
REMARK       I    between atoms: C20_24  and  N2_26 
REMARK   18  A    between atoms: C26_32  and  N3_33 
ROOT
HETATM    1  C1  UNL     1      18.553  35.389  19.190  1.00  0.00     0.012 C 
HETATM    2  C2  UNL     1      19.062  36.275  18.580  1.00  0.00    -0.117 C 
HETATM    3  C3  UNL     1      19.695  37.344  17.806  1.00  0.00     0.097 C 
ENDROOT
BRANCH   3   4
HETATM    4  C4  UNL     1      20.993  36.877  17.201  1.00  0.00     0.039 C 
BRANCH   4   5
HETATM    5  C5  UNL     1      22.022  36.408  18.131  1.00  0.00    -0.030 C 
BRANCH   5   6
HETATM    6  C6  UNL     1      22.328  35.001  18.347  1.00  0.00    -0.031 C 
BRANCH   6   7
HETATM    7  C7  UNL     1      21.607  33.905  17.690  1.00  0.00     0.027 C 
BRANCH   7   8
HETATM    8  C8  UNL     1      22.408  32.676  17.442  1.00  0.00     0.004 C 
BRANCH   8   9
HETATM    9  C9  UNL     1      23.153  32.629  16.143  1.00  0.00     0.000 C 
BRANCH   9  10
HETATM   10  C10 UNL     1      22.476  33.338  14.999  1.00  0.00     0.000 C 
BRANCH  10  11
HETATM   11  C11 UNL     1      22.163  32.417  13.864  1.00  0.00     0.000 C 
BRANCH  11  12
HETATM   12  C12 UNL     1      22.138  30.964  14.137  1.00  0.00     0.000 C 
BRANCH  12  13
HETATM   13  C13 UNL     1      21.920  30.073  12.943  1.00  0.00     0.010 C 
BRANCH  13  14
HETATM   14  C14 UNL     1      21.611  28.648  13.287  1.00  0.00     0.111 C 
BRANCH  14  15
HETATM   15  C15 UNL     1      21.133  27.812  12.187  1.00  0.00     0.259 C 
HETATM   16  O1  UNL     1      21.489  26.627  12.075  1.00  0.00    -0.265 OA
BRANCH  15  17
HETATM   17  O2  UNL     1      20.254  28.275  11.203  1.00  0.00    -0.304 OA
BRANCH  17  18
HETATM   18  C16 UNL     1      18.812  28.003  11.346  1.00  0.00     0.254 C 
BRANCH  18  19
HETATM   19  C17 UNL     1      18.655  26.529  10.859  1.00  0.00     0.264 C 
BRANCH  19  20
HETATM   20  N1  UNL     1      18.249  26.477   9.579  1.00  0.00    -0.413 NA
HETATM   21  C18 UNL     1      17.822  26.401   8.284  1.00  0.00     0.282 C 
HETATM   22  C19 UNL     1      18.295  27.491   7.311  1.00  0.00     0.134 C 
HETATM   23  O3  UNL     1      17.084  25.553   7.756  1.00  0.00    -0.258 OA
ENDBRANCH  19  20
ENDBRANCH  18  19
BRANCH  18  24
HETATM   24  C20 UNL     1      18.402  28.238  12.698  1.00  0.00     0.252 C 
HETATM   25  O4  UNL     1      18.243  27.187  13.445  1.00  0.00    -0.270 OA
HETATM   26  N2  UNL     1      18.149  29.473  13.316  1.00  0.00    -0.350 N 
HETATM   27  C21 UNL     1      18.261  30.762  12.707  1.00  0.00     0.126 C 
HETATM   28  C30 UNL     1      17.702  29.441  14.731  1.00  0.00     0.126 C 
HETATM   29  C22 UNL     1      18.646  31.906  13.568  1.00  0.00     0.030 C 
HETATM   30  C23 UNL     1      18.202  31.790  14.997  1.00  0.00    -0.031 C 
HETATM   31  C24 UNL     1      18.991  32.774  15.824  1.00  0.00     0.012 C 
HETATM   32  C28 UNL     1      16.725  31.966  15.196  1.00  0.00     0.090 C 
HETATM   33  C29 UNL     1      18.601  30.380  15.493  1.00  0.00     0.030 C 
HETATM   34  C25 UNL     1      18.665  34.184  15.399  1.00  0.00     0.041 C 
HETATM   35  C26 UNL     1      17.238  34.473  15.799  1.00  0.00     0.252 C 
HETATM   36  C27 UNL     1      16.334  33.326  15.654  1.00  0.00     0.158 C 
HETATM   37  O5  UNL     1      15.152  33.499  15.936  1.00  0.00    -0.296 OA
BRANCH  35  38
HETATM   38  N3  UNL     1      16.715  35.605  15.029  1.00  0.00    -0.068 N 
ATOM     39  H33 UNL     1      17.093  35.629  14.082  1.00  0.00     0.275 HD
ATOM     40  H32 UNL     1      15.729  35.483  14.795  1.00  0.00     0.275 HD
ATOM     41  H31 UNL     1      16.882  36.479  15.528  1.00  0.00     0.275 HD
ENDBRANCH  35  38
ENDBRANCH  18  24
ENDBRANCH  17  18
ENDBRANCH  15  17
ENDBRANCH  14  15
ENDBRANCH  13  14
ENDBRANCH  12  13
ENDBRANCH  11  12
ENDBRANCH  10  11
ENDBRANCH   9  10
ENDBRANCH   8   9
ENDBRANCH   7   8
ENDBRANCH   6   7
ENDBRANCH   5   6
ENDBRANCH   4   5
ENDBRANCH   3   4
TORSDOF 18
ENDMDL
