MODEL 1
REMARK VINA RESULT: -5.608365534      0.000      0.000
REMARK  7 active torsions:
REMARK  status: ('A' for Active; 'I' for Inactive)
REMARK    1  A    between atoms: N1_1  and  N2_4 
REMARK    2  A    between atoms: N3_6  and  C1_8 
REMARK    3  A    between atoms: C1_8  and  C2_9 
REMARK    4  A    between atoms: C2_9  and  N4_10 
REMARK    5  A    between atoms: N4_10  and  C3_13 
REMARK    6  A    between atoms: C3_13  and  C4_14 
REMARK    7  A    between atoms: N5_18  and  N6_20 
ROOT
HETATM    1  N4  UNL     1     -43.136  13.036  10.713  1.00  0.00    -0.072 N 
ATOM      2  H41 UNL     1     -42.329  13.122  11.331  1.00  0.00     0.277 HD
ATOM      3  H42 UNL     1     -43.787  13.646  11.206  1.00  0.00     0.277 HD
ENDROOT
BRANCH   1   4
HETATM    4  C2  UNL     1     -43.623  11.674  10.685  1.00  0.00     0.253 C 
BRANCH   4   5
HETATM    5  C1  UNL     1     -42.663  10.785  11.485  1.00  0.00     0.168 C 
BRANCH   5   6
HETATM    6  N3  UNL     1     -43.358  10.345  12.680  1.00  0.00    -0.321 N 
HETATM    7  N2  UNL     1     -43.496  11.126  13.621  1.00  0.00    -0.254 N 
ATOM      8  H2  UNL     1     -42.542  11.278  13.951  1.00  0.00     0.207 HD
ATOM      9  H3  UNL     1     -43.729   9.397  12.739  1.00  0.00     0.181 HD
BRANCH   7  10
HETATM   10  N1  UNL     1     -44.188  11.831  14.385  1.00  0.00    -0.331 N 
ATOM     11  H12 UNL     1     -44.808  11.133  14.796  1.00  0.00     0.178 HD
ATOM     12  H11 UNL     1     -44.451  12.723  14.804  1.00  0.00     0.178 HD
ENDBRANCH   7  10
ENDBRANCH   5   6
ENDBRANCH   4   5
ENDBRANCH   1   4
BRANCH   1  13
HETATM   13  C3  UNL     1     -42.842  13.547   9.409  1.00  0.00     0.257 C 
BRANCH  13  14
HETATM   14  C4  UNL     1     -41.365  13.740   9.176  1.00  0.00     0.108 C 
HETATM   15  C5  UNL     1     -40.676  14.364  10.359  1.00  0.00     0.034 C 
HETATM   16  C6  UNL     1     -39.210  14.065  10.028  1.00  0.00     0.079 C 
HETATM   17  C7  UNL     1     -39.387  12.636   9.583  1.00  0.00     0.091 C 
HETATM   18  N5  UNL     1     -38.504  11.736   9.752  1.00  0.00    -0.296 N 
HETATM   19  N7  UNL     1     -40.660  12.509   8.978  1.00  0.00    -0.372 N 
ATOM     20  H5  UNL     1     -38.707  10.794   9.419  1.00  0.00     0.187 HD
ATOM     21  H7  UNL     1     -41.013  11.687   8.487  1.00  0.00     0.161 HD
BRANCH  18  22
HETATM   22  N6  UNL     1     -37.281  11.965  10.363  1.00  0.00    -0.344 N 
ATOM     23  H62 UNL     1     -36.503  12.234   9.760  1.00  0.00     0.176 HD
ATOM     24  H61 UNL     1     -37.126  11.878  11.367  1.00  0.00     0.176 HD
ENDBRANCH  18  22
ENDBRANCH  13  14
ENDBRANCH   1  13
TORSDOF 7
ENDMDL
MODEL 2
REMARK VINA RESULT: -5.606741720      1.423      1.661
REMARK  7 active torsions:
REMARK  status: ('A' for Active; 'I' for Inactive)
REMARK    1  A    between atoms: N1_1  and  N2_4 
REMARK    2  A    between atoms: N3_6  and  C1_8 
REMARK    3  A    between atoms: C1_8  and  C2_9 
REMARK    4  A    between atoms: C2_9  and  N4_10 
REMARK    5  A    between atoms: N4_10  and  C3_13 
REMARK    6  A    between atoms: C3_13  and  C4_14 
REMARK    7  A    between atoms: N5_18  and  N6_20 
ROOT
HETATM    1  N4  UNL     1     -43.012  11.800  10.139  1.00  0.00    -0.072 N 
ATOM      2  H41 UNL     1     -43.653  11.388   9.461  1.00  0.00     0.277 HD
ATOM      3  H42 UNL     1     -42.196  11.212   9.975  1.00  0.00     0.277 HD
ENDROOT
BRANCH   1   4
HETATM    4  C2  UNL     1     -43.508  11.634  11.488  1.00  0.00     0.253 C 
BRANCH   4   5
HETATM    5  C1  UNL     1     -42.343  11.803  12.471  1.00  0.00     0.168 C 
BRANCH   5   6
HETATM    6  N3  UNL     1     -42.719  12.820  13.435  1.00  0.00    -0.321 N 
HETATM    7  N2  UNL     1     -42.294  13.968  13.298  1.00  0.00    -0.254 N 
ATOM      8  H2  UNL     1     -41.288  13.872  13.443  1.00  0.00     0.207 HD
ATOM      9  H3  UNL     1     -43.330  12.587  14.217  1.00  0.00     0.181 HD
BRANCH   7  10
HETATM   10  N1  UNL     1     -42.446  15.187  13.076  1.00  0.00    -0.331 N 
ATOM     11  H12 UNL     1     -43.064  15.168  12.264  1.00  0.00     0.178 HD
ATOM     12  H11 UNL     1     -42.278  16.173  13.280  1.00  0.00     0.178 HD
ENDBRANCH   7  10
ENDBRANCH   5   6
ENDBRANCH   4   5
ENDBRANCH   1   4
BRANCH   1  13
HETATM   13  C3  UNL     1     -42.732  13.167   9.816  1.00  0.00     0.257 C 
BRANCH  13  14
HETATM   14  C4  UNL     1     -41.327  13.372   9.309  1.00  0.00     0.108 C 
HETATM   15  C5  UNL     1     -40.546  14.336  10.161  1.00  0.00     0.034 C 
HETATM   16  C6  UNL     1     -39.118  14.041   9.694  1.00  0.00     0.079 C 
HETATM   17  C7  UNL     1     -39.213  12.537   9.676  1.00  0.00     0.091 C 
HETATM   18  N5  UNL     1     -38.232  11.770   9.935  1.00  0.00    -0.296 N 
HETATM   19  N7  UNL     1     -40.539  12.176   9.335  1.00  0.00    -0.372 N 
ATOM     20  H5  UNL     1     -38.386  10.763   9.899  1.00  0.00     0.187 HD
ATOM     21  H7  UNL     1     -40.874  11.232   9.142  1.00  0.00     0.161 HD
BRANCH  18  22
HETATM   22  N6  UNL     1     -36.965  12.228  10.262  1.00  0.00    -0.344 N 
ATOM     23  H62 UNL     1     -36.905  12.984  10.944  1.00  0.00     0.176 HD
ATOM     24  H61 UNL     1     -36.107  11.850   9.861  1.00  0.00     0.176 HD
ENDBRANCH  18  22
ENDBRANCH  13  14
ENDBRANCH   1  13
TORSDOF 7
ENDMDL
MODEL 3
REMARK VINA RESULT: -5.553142329      1.742      2.052
REMARK  7 active torsions:
REMARK  status: ('A' for Active; 'I' for Inactive)
REMARK    1  A    between atoms: N1_1  and  N2_4 
REMARK    2  A    between atoms: N3_6  and  C1_8 
REMARK    3  A    between atoms: C1_8  and  C2_9 
REMARK    4  A    between atoms: C2_9  and  N4_10 
REMARK    5  A    between atoms: N4_10  and  C3_13 
REMARK    6  A    between atoms: C3_13  and  C4_14 
REMARK    7  A    between atoms: N5_18  and  N6_20 
ROOT
HETATM    1  N4  UNL     1     -44.197  11.779  10.747  1.00  0.00    -0.072 N 
ATOM      2  H41 UNL     1     -44.999  12.221  11.197  1.00  0.00     0.277 HD
ATOM      3  H42 UNL     1     -44.687  11.200  10.067  1.00  0.00     0.277 HD
ENDROOT
BRANCH   1   4
HETATM    4  C2  UNL     1     -43.460  10.963  11.688  1.00  0.00     0.253 C 
BRANCH   4   5
HETATM    5  C1  UNL     1     -44.250  10.883  13.001  1.00  0.00     0.168 C 
BRANCH   5   6
HETATM    6  N3  UNL     1     -43.533  11.656  13.998  1.00  0.00    -0.321 N 
HETATM    7  N2  UNL     1     -42.757  12.540  13.633  1.00  0.00    -0.254 N 
ATOM      8  H2  UNL     1     -42.013  12.027  13.158  1.00  0.00     0.207 HD
ATOM      9  H3  UNL     1     -43.671  11.469  14.991  1.00  0.00     0.181 HD
BRANCH   7  10
HETATM   10  N1  UNL     1     -42.402  13.733  13.538  1.00  0.00    -0.331 N 
ATOM     11  H12 UNL     1     -43.247  14.219  13.836  1.00  0.00     0.178 HD
ATOM     12  H11 UNL     1     -41.720  14.460  13.323  1.00  0.00     0.178 HD
ENDBRANCH   7  10
ENDBRANCH   5   6
ENDBRANCH   4   5
ENDBRANCH   1   4
BRANCH   1  13
HETATM   13  C3  UNL     1     -43.374  12.752  10.095  1.00  0.00     0.257 C 
BRANCH  13  14
HETATM   14  C4  UNL     1     -41.951  12.288   9.915  1.00  0.00     0.108 C 
HETATM   15  C5  UNL     1     -41.595  12.080   8.468  1.00  0.00     0.034 C 
HETATM   16  C6  UNL     1     -40.066  12.030   8.552  1.00  0.00     0.079 C 
HETATM   17  C7  UNL     1     -39.874  13.189   9.496  1.00  0.00     0.091 C 
HETATM   18  N5  UNL     1     -38.862  13.958   9.463  1.00  0.00    -0.296 N 
HETATM   19  N7  UNL     1     -40.985  13.244  10.371  1.00  0.00    -0.372 N 
ATOM     20  H5  UNL     1     -38.813  14.719  10.141  1.00  0.00     0.187 HD
ATOM     21  H7  UNL     1     -41.082  13.854  11.183  1.00  0.00     0.161 HD
BRANCH  18  22
HETATM   22  N6  UNL     1     -37.820  13.820   8.558  1.00  0.00    -0.344 N 
ATOM     23  H62 UNL     1     -38.013  13.297   7.704  1.00  0.00     0.176 HD
ATOM     24  H61 UNL     1     -36.889  14.210   8.704  1.00  0.00     0.176 HD
ENDBRANCH  18  22
ENDBRANCH  13  14
ENDBRANCH   1  13
TORSDOF 7
ENDMDL
MODEL 4
REMARK VINA RESULT: -5.551689551      2.250      3.132
REMARK  7 active torsions:
REMARK  status: ('A' for Active; 'I' for Inactive)
REMARK    1  A    between atoms: N1_1  and  N2_4 
REMARK    2  A    between atoms: N3_6  and  C1_8 
REMARK    3  A    between atoms: C1_8  and  C2_9 
REMARK    4  A    between atoms: C2_9  and  N4_10 
REMARK    5  A    between atoms: N4_10  and  C3_13 
REMARK    6  A    between atoms: C3_13  and  C4_14 
REMARK    7  A    between atoms: N5_18  and  N6_20 
ROOT
HETATM    1  N4  UNL     1     -41.751  13.777   9.769  1.00  0.00    -0.072 N 
ATOM      2  H41 UNL     1     -41.311  13.966   8.868  1.00  0.00     0.277 HD
ATOM      3  H42 UNL     1     -42.676  14.166   9.585  1.00  0.00     0.277 HD
ENDROOT
BRANCH   1   4
HETATM    4  C2  UNL     1     -41.087  14.499  10.832  1.00  0.00     0.253 C 
BRANCH   4   5
HETATM    5  C1  UNL     1     -42.148  15.119  11.750  1.00  0.00     0.168 C 
BRANCH   5   6
HETATM    6  N3  UNL     1     -41.953  14.578  13.082  1.00  0.00    -0.321 N 
HETATM    7  N2  UNL     1     -42.530  13.538  13.400  1.00  0.00    -0.254 N 
ATOM      8  H2  UNL     1     -43.517  13.798  13.398  1.00  0.00     0.207 HD
ATOM      9  H3  UNL     1     -41.345  15.055  13.747  1.00  0.00     0.181 HD
BRANCH   7  10
HETATM   10  N1  UNL     1     -42.542  12.332  13.725  1.00  0.00    -0.331 N 
ATOM     11  H12 UNL     1     -43.473  12.050  13.417  1.00  0.00     0.178 HD
ATOM     12  H11 UNL     1     -42.115  11.499  14.130  1.00  0.00     0.178 HD
ENDBRANCH   7  10
ENDBRANCH   5   6
ENDBRANCH   4   5
ENDBRANCH   1   4
BRANCH   1  13
HETATM   13  C3  UNL     1     -41.827  12.369  10.018  1.00  0.00     0.257 C 
BRANCH  13  14
HETATM   14  C4  UNL     1     -40.507  11.779  10.446  1.00  0.00     0.108 C 
HETATM   15  C5  UNL     1     -40.673  10.464  11.158  1.00  0.00     0.034 C 
HETATM   16  C6  UNL     1     -39.240   9.923  11.100  1.00  0.00     0.079 C 
HETATM   17  C7  UNL     1     -38.943  10.281   9.666  1.00  0.00     0.091 C 
HETATM   18  N5  UNL     1     -38.182   9.592   8.916  1.00  0.00    -0.296 N 
HETATM   19  N7  UNL     1     -39.645  11.467   9.345  1.00  0.00    -0.372 N 
ATOM     20  H5  UNL     1     -38.037   9.907   7.957  1.00  0.00     0.187 HD
ATOM     21  H7  UNL     1     -39.554  12.005   8.483  1.00  0.00     0.161 HD
BRANCH  18  22
HETATM   22  N6  UNL     1     -37.539   8.435   9.329  1.00  0.00    -0.344 N 
ATOM     23  H62 UNL     1     -36.566   8.316   9.044  1.00  0.00     0.176 HD
ATOM     24  H61 UNL     1     -37.983   7.712   9.895  1.00  0.00     0.176 HD
ENDBRANCH  18  22
ENDBRANCH  13  14
ENDBRANCH   1  13
TORSDOF 7
ENDMDL
MODEL 5
REMARK VINA RESULT: -5.520911534      1.802      2.357
REMARK  7 active torsions:
REMARK  status: ('A' for Active; 'I' for Inactive)
REMARK    1  A    between atoms: N1_1  and  N2_4 
REMARK    2  A    between atoms: N3_6  and  C1_8 
REMARK    3  A    between atoms: C1_8  and  C2_9 
REMARK    4  A    between atoms: C2_9  and  N4_10 
REMARK    5  A    between atoms: N4_10  and  C3_13 
REMARK    6  A    between atoms: C3_13  and  C4_14 
REMARK    7  A    between atoms: N5_18  and  N6_20 
ROOT
HETATM    1  N4  UNL     1     -44.262  11.542  10.985  1.00  0.00    -0.072 N 
ATOM      2  H41 UNL     1     -44.787  12.333  11.358  1.00  0.00     0.277 HD
ATOM      3  H42 UNL     1     -44.997  11.100  10.435  1.00  0.00     0.277 HD
ENDROOT
BRANCH   1   4
HETATM    4  C2  UNL     1     -43.815  10.670  12.049  1.00  0.00     0.253 C 
BRANCH   4   5
HETATM    5  C1  UNL     1     -44.518  11.073  13.351  1.00  0.00     0.168 C 
BRANCH   5   6
HETATM    6  N3  UNL     1     -43.548  11.758  14.185  1.00  0.00    -0.321 N 
HETATM    7  N2  UNL     1     -42.788  12.582  13.674  1.00  0.00    -0.254 N 
ATOM      8  H2  UNL     1     -42.204  12.019  13.054  1.00  0.00     0.207 HD
ATOM      9  H3  UNL     1     -43.497  11.560  15.184  1.00  0.00     0.181 HD
BRANCH   7  10
HETATM   10  N1  UNL     1     -42.355  13.742  13.516  1.00  0.00    -0.331 N 
ATOM     11  H12 UNL     1     -41.355  13.606  13.662  1.00  0.00     0.178 HD
ATOM     12  H11 UNL     1     -42.478  14.736  13.320  1.00  0.00     0.178 HD
ENDBRANCH   7  10
ENDBRANCH   5   6
ENDBRANCH   4   5
ENDBRANCH   1   4
BRANCH   1  13
HETATM   13  C3  UNL     1     -43.191  11.987  10.146  1.00  0.00     0.257 C 
BRANCH  13  14
HETATM   14  C4  UNL     1     -41.916  11.212  10.364  1.00  0.00     0.108 C 
HETATM   15  C5  UNL     1     -41.411  10.573   9.099  1.00  0.00     0.034 C 
HETATM   16  C6  UNL     1     -39.972  10.235   9.502  1.00  0.00     0.079 C 
HETATM   17  C7  UNL     1     -39.642  11.532  10.195  1.00  0.00     0.091 C 
HETATM   18  N5  UNL     1     -38.479  12.044  10.206  1.00  0.00    -0.296 N 
HETATM   19  N7  UNL     1     -40.824  12.034  10.793  1.00  0.00    -0.372 N 
ATOM     20  H5  UNL     1     -38.345  12.926  10.700  1.00  0.00     0.187 HD
ATOM     21  H7  UNL     1     -40.886  12.838  11.417  1.00  0.00     0.161 HD
BRANCH  18  22
HETATM   22  N6  UNL     1     -37.381  11.469   9.583  1.00  0.00    -0.344 N 
ATOM     23  H62 UNL     1     -37.155  11.796   8.644  1.00  0.00     0.176 HD
ATOM     24  H61 UNL     1     -36.800  10.749  10.013  1.00  0.00     0.176 HD
ENDBRANCH  18  22
ENDBRANCH  13  14
ENDBRANCH   1  13
TORSDOF 7
ENDMDL
