MODEL 1
REMARK VINA RESULT: -5.132201715      0.000      0.000
REMARK  7 active torsions:
REMARK  status: ('A' for Active; 'I' for Inactive)
REMARK    1  A    between atoms: N1_1  and  C1_5 
REMARK    2  A    between atoms: C1_5  and  C2_6 
REMARK    3  A    between atoms: C2_6  and  C3_7 
REMARK    4  A    between atoms: C3_7  and  N2_8 
REMARK    5  A    between atoms: N2_8  and  C4_10 
REMARK    6  A    between atoms: C4_10  and  C5_11 
REMARK    7  A    between atoms: C8_16  and  N4_17 
ROOT
HETATM    1  C5  UNL     1     -42.372  13.676  10.750  1.00  0.00     0.022 C 
HETATM    2  C6  UNL     1     -43.343  13.935   9.655  1.00  0.00     0.120 C 
HETATM    3  N3  UNL     1     -43.378  12.975   8.611  1.00  0.00    -0.419 N 
ATOM      4  H3  UNL     1     -43.415  13.249   7.630  1.00  0.00     0.153 HD
HETATM    5  C7  UNL     1     -43.359  11.613   9.009  1.00  0.00     0.146 C 
HETATM    6  C8  UNL     1     -43.134  11.372  10.477  1.00  0.00     0.201 C 
HETATM    7  C9  UNL     1     -41.976  12.250  10.916  1.00  0.00     0.042 C 
ENDROOT
BRANCH   1   8
HETATM    8  C4  UNL     1     -41.160  14.619  10.615  1.00  0.00     0.120 C 
BRANCH   8   9
HETATM    9  N2  UNL     1     -40.166  13.860   9.935  1.00  0.00    -0.421 N 
ATOM     10  H2  UNL     1     -40.365  12.931   9.564  1.00  0.00     0.153 HD
BRANCH   9  11
HETATM   11  C3  UNL     1     -38.878  14.459   9.798  1.00  0.00     0.115 C 
BRANCH  11  12
HETATM   12  C2  UNL     1     -37.810  13.373   9.770  1.00  0.00     0.046 C 
BRANCH  12  13
HETATM   13  C1  UNL     1     -38.413  12.003   9.768  1.00  0.00     0.231 C 
BRANCH  13  14
HETATM   14  N1  UNL     1     -37.739  11.216  10.799  1.00  0.00    -0.079 N 
ATOM     15  H13 UNL     1     -37.227  10.421  10.418  1.00  0.00     0.274 HD
ATOM     16  H12 UNL     1     -36.944  11.704  11.213  1.00  0.00     0.274 HD
ATOM     17  H11 UNL     1     -38.438  10.942  11.489  1.00  0.00     0.274 HD
ENDBRANCH  13  14
ENDBRANCH  12  13
ENDBRANCH  11  12
ENDBRANCH   9  11
ENDBRANCH   8   9
ENDBRANCH   1   8
BRANCH   6  18
HETATM   18  N4  UNL     1     -44.291  11.531  11.295  1.00  0.00    -0.073 N 
ATOM     19  H43 UNL     1     -44.144  12.278  11.974  1.00  0.00     0.274 HD
ATOM     20  H42 UNL     1     -45.054  11.933  10.752  1.00  0.00     0.274 HD
ATOM     21  H41 UNL     1     -44.602  10.682  11.766  1.00  0.00     0.274 HD
ENDBRANCH   6  18
TORSDOF 7
ENDMDL
MODEL 2
REMARK VINA RESULT: -4.988749110      1.958      4.156
REMARK  7 active torsions:
REMARK  status: ('A' for Active; 'I' for Inactive)
REMARK    1  A    between atoms: N1_1  and  C1_5 
REMARK    2  A    between atoms: C1_5  and  C2_6 
REMARK    3  A    between atoms: C2_6  and  C3_7 
REMARK    4  A    between atoms: C3_7  and  N2_8 
REMARK    5  A    between atoms: N2_8  and  C4_10 
REMARK    6  A    between atoms: C4_10  and  C5_11 
REMARK    7  A    between atoms: C8_16  and  N4_17 
ROOT
HETATM    1  C5  UNL     1     -41.926  10.884   9.685  1.00  0.00     0.022 C 
HETATM    2  C6  UNL     1     -41.043  11.416   8.614  1.00  0.00     0.120 C 
HETATM    3  N3  UNL     1     -40.004  12.284   9.034  1.00  0.00    -0.419 N 
ATOM      4  H3  UNL     1     -39.789  13.148   8.536  1.00  0.00     0.153 HD
HETATM    5  C7  UNL     1     -39.278  11.884  10.186  1.00  0.00     0.146 C 
HETATM    6  C8  UNL     1     -39.820  10.677  10.904  1.00  0.00     0.201 C 
HETATM    7  C9  UNL     1     -41.320  10.861  11.046  1.00  0.00     0.042 C 
ENDROOT
BRANCH   1   8
HETATM    8  C4  UNL     1     -43.289  11.605   9.653  1.00  0.00     0.120 C 
BRANCH   8   9
HETATM    9  N2  UNL     1     -43.176  12.667  10.594  1.00  0.00    -0.421 N 
ATOM     10  H2  UNL     1     -43.150  12.489  11.598  1.00  0.00     0.153 HD
BRANCH   9  11
HETATM   11  C3  UNL     1     -43.101  13.991  10.067  1.00  0.00     0.115 C 
BRANCH  11  12
HETATM   12  C2  UNL     1     -41.971  14.749  10.751  1.00  0.00     0.046 C 
BRANCH  12  13
HETATM   13  C1  UNL     1     -41.790  14.313  12.172  1.00  0.00     0.231 C 
BRANCH  13  14
HETATM   14  N1  UNL     1     -42.403  15.323  13.032  1.00  0.00    -0.079 N 
ATOM     15  H13 UNL     1     -43.422  15.298  13.007  1.00  0.00     0.274 HD
ATOM     16  H12 UNL     1     -42.286  15.121  14.025  1.00  0.00     0.274 HD
ATOM     17  H11 UNL     1     -42.024  16.232  12.766  1.00  0.00     0.274 HD
ENDBRANCH  13  14
ENDBRANCH  12  13
ENDBRANCH  11  12
ENDBRANCH   9  11
ENDBRANCH   8   9
ENDBRANCH   1   8
BRANCH   6  18
HETATM   18  N4  UNL     1     -39.468   9.425  10.321  1.00  0.00    -0.073 N 
ATOM     19  H43 UNL     1     -40.298   8.958   9.957  1.00  0.00     0.274 HD
ATOM     20  H42 UNL     1     -38.952   9.571   9.454  1.00  0.00     0.274 HD
ATOM     21  H41 UNL     1     -38.952   8.796  10.936  1.00  0.00     0.274 HD
ENDBRANCH   6  18
TORSDOF 7
ENDMDL
MODEL 3
REMARK VINA RESULT: -4.971576324      1.258      1.450
REMARK  7 active torsions:
REMARK  status: ('A' for Active; 'I' for Inactive)
REMARK    1  A    between atoms: N1_1  and  C1_5 
REMARK    2  A    between atoms: C1_5  and  C2_6 
REMARK    3  A    between atoms: C2_6  and  C3_7 
REMARK    4  A    between atoms: C3_7  and  N2_8 
REMARK    5  A    between atoms: N2_8  and  C4_10 
REMARK    6  A    between atoms: C4_10  and  C5_11 
REMARK    7  A    between atoms: C8_16  and  N4_17 
ROOT
HETATM    1  C5  UNL     1     -41.557  12.684  10.854  1.00  0.00     0.022 C 
HETATM    2  C6  UNL     1     -42.857  13.364  10.610  1.00  0.00     0.120 C 
HETATM    3  N3  UNL     1     -43.939  12.528  10.236  1.00  0.00    -0.419 N 
ATOM      4  H3  UNL     1     -44.576  12.778   9.480  1.00  0.00     0.153 HD
HETATM    5  C7  UNL     1     -44.087  11.324  10.972  1.00  0.00     0.146 C 
HETATM    6  C8  UNL     1     -42.975  11.018  11.939  1.00  0.00     0.201 C 
HETATM    7  C9  UNL     1     -41.660  11.242  11.215  1.00  0.00     0.042 C 
ENDROOT
BRANCH   1   8
HETATM    8  C4  UNL     1     -40.599  12.935   9.672  1.00  0.00     0.120 C 
BRANCH   8   9
HETATM    9  N2  UNL     1     -40.140  14.273   9.837  1.00  0.00    -0.421 N 
ATOM     10  H2  UNL     1     -40.790  15.051   9.940  1.00  0.00     0.153 HD
BRANCH   9  11
HETATM   11  C3  UNL     1     -38.727  14.472   9.851  1.00  0.00     0.115 C 
BRANCH  11  12
HETATM   12  C2  UNL     1     -38.044  13.341   9.095  1.00  0.00     0.046 C 
BRANCH  12  13
HETATM   13  C1  UNL     1     -36.896  12.770   9.868  1.00  0.00     0.231 C 
BRANCH  13  14
HETATM   14  N1  UNL     1     -37.379  11.587  10.579  1.00  0.00    -0.079 N 
ATOM     15  H13 UNL     1     -36.766  10.780  10.465  1.00  0.00     0.274 HD
ATOM     16  H12 UNL     1     -37.301  11.675  11.592  1.00  0.00     0.274 HD
ATOM     17  H11 UNL     1     -38.333  11.404  10.270  1.00  0.00     0.274 HD
ENDBRANCH  13  14
ENDBRANCH  12  13
ENDBRANCH  11  12
ENDBRANCH   9  11
ENDBRANCH   8   9
ENDBRANCH   1   8
BRANCH   6  18
HETATM   18  N4  UNL     1     -43.050  11.715  13.180  1.00  0.00    -0.073 N 
ATOM     19  H43 UNL     1     -43.691  11.238  13.814  1.00  0.00     0.274 HD
ATOM     20  H42 UNL     1     -42.178  11.610  13.698  1.00  0.00     0.274 HD
ATOM     21  H41 UNL     1     -43.299  12.701  13.104  1.00  0.00     0.274 HD
ENDBRANCH   6  18
TORSDOF 7
ENDMDL
MODEL 4
REMARK VINA RESULT: -4.951439362      2.086      4.514
REMARK  7 active torsions:
REMARK  status: ('A' for Active; 'I' for Inactive)
REMARK    1  A    between atoms: N1_1  and  C1_5 
REMARK    2  A    between atoms: C1_5  and  C2_6 
REMARK    3  A    between atoms: C2_6  and  C3_7 
REMARK    4  A    between atoms: C3_7  and  N2_8 
REMARK    5  A    between atoms: N2_8  and  C4_10 
REMARK    6  A    between atoms: C4_10  and  C5_11 
REMARK    7  A    between atoms: C8_16  and  N4_17 
ROOT
HETATM    1  C5  UNL     1     -39.558  13.514  10.182  1.00  0.00     0.022 C 
HETATM    2  C6  UNL     1     -40.256  12.374   9.532  1.00  0.00     0.120 C 
HETATM    3  N3  UNL     1     -39.723  11.939   8.293  1.00  0.00    -0.419 N 
ATOM      4  H3  UNL     1     -40.320  11.723   7.495  1.00  0.00     0.153 HD
HETATM    5  C7  UNL     1     -38.310  11.819   8.224  1.00  0.00     0.146 C 
HETATM    6  C8  UNL     1     -37.560  12.333   9.423  1.00  0.00     0.201 C 
HETATM    7  C9  UNL     1     -38.134  13.692   9.779  1.00  0.00     0.042 C 
ENDROOT
BRANCH   1   8
HETATM    8  C4  UNL     1     -40.387  14.804  10.021  1.00  0.00     0.120 C 
BRANCH   8   9
HETATM    9  N2  UNL     1     -41.680  14.486  10.526  1.00  0.00    -0.421 N 
ATOM     10  H2  UNL     1     -42.264  13.775  10.088  1.00  0.00     0.153 HD
BRANCH   9  11
HETATM   11  C3  UNL     1     -42.119  15.211  11.674  1.00  0.00     0.115 C 
BRANCH  11  12
HETATM   12  C2  UNL     1     -41.986  14.334  12.912  1.00  0.00     0.046 C 
BRANCH  12  13
HETATM   13  C1  UNL     1     -42.279  12.897  12.609  1.00  0.00     0.231 C 
BRANCH  13  14
HETATM   14  N1  UNL     1     -42.775  12.273  13.834  1.00  0.00    -0.079 N 
ATOM     15  H13 UNL     1     -42.089  12.282  14.588  1.00  0.00     0.274 HD
ATOM     16  H12 UNL     1     -43.494  12.829  14.298  1.00  0.00     0.274 HD
ATOM     17  H11 UNL     1     -43.093  11.333  13.599  1.00  0.00     0.274 HD
ENDBRANCH  13  14
ENDBRANCH  12  13
ENDBRANCH  11  12
ENDBRANCH   9  11
ENDBRANCH   8   9
ENDBRANCH   1   8
BRANCH   6  18
HETATM   18  N4  UNL     1     -37.520  11.439  10.533  1.00  0.00    -0.073 N 
ATOM     19  H43 UNL     1     -38.456  11.089  10.738  1.00  0.00     0.274 HD
ATOM     20  H42 UNL     1     -37.059  10.569  10.269  1.00  0.00     0.274 HD
ATOM     21  H41 UNL     1     -37.095  11.822  11.377  1.00  0.00     0.274 HD
ENDBRANCH   6  18
TORSDOF 7
ENDMDL
MODEL 5
REMARK VINA RESULT: -4.897971840      1.995      5.013
REMARK  7 active torsions:
REMARK  status: ('A' for Active; 'I' for Inactive)
REMARK    1  A    between atoms: N1_1  and  C1_5 
REMARK    2  A    between atoms: C1_5  and  C2_6 
REMARK    3  A    between atoms: C2_6  and  C3_7 
REMARK    4  A    between atoms: C3_7  and  N2_8 
REMARK    5  A    between atoms: N2_8  and  C4_10 
REMARK    6  A    between atoms: C4_10  and  C5_11 
REMARK    7  A    between atoms: C8_16  and  N4_17 
ROOT
HETATM    1  C5  UNL     1     -40.101  10.989  10.846  1.00  0.00     0.022 C 
HETATM    2  C6  UNL     1     -39.464   9.654  10.988  1.00  0.00     0.120 C 
HETATM    3  N3  UNL     1     -38.953   9.075   9.798  1.00  0.00    -0.419 N 
ATOM      4  H3  UNL     1     -39.104   8.093   9.569  1.00  0.00     0.153 HD
HETATM    5  C7  UNL     1     -38.218   9.939   8.945  1.00  0.00     0.146 C 
HETATM    6  C8  UNL     1     -38.225  11.392   9.336  1.00  0.00     0.201 C 
HETATM    7  C9  UNL     1     -39.657  11.775   9.661  1.00  0.00     0.042 C 
ENDROOT
BRANCH   1   8
HETATM    8  C4  UNL     1     -41.635  10.853  10.929  1.00  0.00     0.120 C 
BRANCH   8   9
HETATM    9  N2  UNL     1     -42.101  12.120  11.382  1.00  0.00    -0.421 N 
ATOM     10  H2  UNL     1     -41.769  12.530  12.255  1.00  0.00     0.153 HD
BRANCH   9  11
HETATM   11  C3  UNL     1     -43.055  12.789  10.558  1.00  0.00     0.115 C 
BRANCH  11  12
HETATM   12  C2  UNL     1     -42.668  14.255  10.416  1.00  0.00     0.046 C 
BRANCH  12  13
HETATM   13  C1  UNL     1     -41.662  14.665  11.446  1.00  0.00     0.231 C 
BRANCH  13  14
HETATM   14  N1  UNL     1     -42.352  15.470  12.451  1.00  0.00    -0.079 N 
ATOM     15  H13 UNL     1     -42.819  16.284  12.052  1.00  0.00     0.274 HD
ATOM     16  H12 UNL     1     -43.181  15.009  12.827  1.00  0.00     0.274 HD
ATOM     17  H11 UNL     1     -41.676  15.717  13.173  1.00  0.00     0.274 HD
ENDBRANCH  13  14
ENDBRANCH  12  13
ENDBRANCH  11  12
ENDBRANCH   9  11
ENDBRANCH   8   9
ENDBRANCH   1   8
BRANCH   6  18
HETATM   18  N4  UNL     1     -37.309  11.738  10.373  1.00  0.00    -0.073 N 
ATOM     19  H43 UNL     1     -37.813  12.106  11.180  1.00  0.00     0.274 HD
ATOM     20  H42 UNL     1     -36.907  10.896  10.784  1.00  0.00     0.274 HD
ATOM     21  H41 UNL     1     -36.570  12.383  10.095  1.00  0.00     0.274 HD
ENDBRANCH   6  18
TORSDOF 7
ENDMDL
