MODEL 1
REMARK VINA RESULT: -10.076693971      0.000      0.000
REMARK  5 active torsions:
REMARK  status: ('A' for Active; 'I' for Inactive)
REMARK       I    between atoms: C1_2  and  N1_3 
REMARK    1  A    between atoms: C1_2  and  C10_14 
REMARK    2  A    between atoms: N1_3  and  C2_5 
REMARK    3  A    between atoms: C13_18  and  C14_19 
REMARK       I    between atoms: C14_19  and  N2_21 
REMARK    4  A    between atoms: N2_21  and  S3_23 
REMARK    5  A    between atoms: S3_23  and  C15_26 
ROOT
HETATM    1  C10 UNL     1      -7.144 -14.005  16.906  1.00  0.00     0.055 A 
HETATM    2  C11 UNL     1      -7.016 -15.320  16.632  1.00  0.00     0.026 A 
HETATM    3  C12 UNL     1      -7.014 -15.709  15.330  1.00  0.00     0.051 A 
HETATM    4  S2  UNL     1      -7.190 -14.251  14.496  1.00  0.00    -0.095 SA
HETATM    5  C13 UNL     1      -7.267 -13.144  15.859  1.00  0.00     0.089 A 
ENDROOT
BRANCH   1   6
HETATM    6  C1  UNL     1      -7.055 -13.564  18.349  1.00  0.00     0.258 C 
HETATM    7  O1  UNL     1      -5.926 -13.569  18.897  1.00  0.00    -0.267 OA
HETATM    8  N1  UNL     1      -8.182 -13.152  19.064  1.00  0.00    -0.317 N 
ATOM      9  H1  UNL     1      -9.075 -13.162  18.570  1.00  0.00     0.169 HD
BRANCH   8  10
HETATM   10  C2  UNL     1      -8.197 -12.726  20.405  1.00  0.00     0.078 A 
HETATM   11  C3  UNL     1      -8.628 -13.266  21.570  1.00  0.00     0.050 A 
HETATM   12  C4  UNL     1      -8.392 -12.572  22.719  1.00  0.00    -0.016 A 
HETATM   13  C5  UNL     1      -8.737 -12.957  24.027  1.00  0.00     0.013 A 
HETATM   14  C9  UNL     1      -7.739 -11.388  22.609  1.00  0.00     0.017 A 
HETATM   15  C6  UNL     1      -8.411 -12.153  25.097  1.00  0.00     0.001 A 
HETATM   16  C7  UNL     1      -7.758 -10.972  24.973  1.00  0.00     0.001 A 
HETATM   17  C8  UNL     1      -7.410 -10.572  23.704  1.00  0.00     0.020 A 
HETATM   18  S1  UNL     1      -7.462 -11.242  20.936  1.00  0.00    -0.072 SA
ENDBRANCH   8  10
ENDBRANCH   1   6
BRANCH   5  19
HETATM   19  C14 UNL     1      -7.460 -11.711  15.740  1.00  0.00     0.273 C 
HETATM   20  O2  UNL     1      -7.125 -11.183  14.619  1.00  0.00    -0.266 OA
HETATM   21  N2  UNL     1      -7.972 -10.869  16.711  1.00  0.00    -0.245 N 
ATOM     22  H2  UNL     1      -8.241 -11.264  17.612  1.00  0.00     0.182 HD
BRANCH  21  23
HETATM   23  S3  UNL     1      -8.174  -9.153  16.451  1.00  0.00     0.265 S 
HETATM   24  O3  UNL     1      -8.992  -9.016  15.206  1.00  0.00    -0.200 OA
HETATM   25  O4  UNL     1      -6.786  -8.565  16.225  1.00  0.00    -0.200 OA
BRANCH  23  26
HETATM   26  C15 UNL     1      -8.956  -8.355  17.759  1.00  0.00     0.080 A 
HETATM   27  C16 UNL     1      -8.920  -6.964  17.928  1.00  0.00     0.025 A 
HETATM   28  C17 UNL     1      -9.581  -6.392  18.972  1.00  0.00     0.002 A 
HETATM   29  C18 UNL     1     -10.302  -7.120  19.892  1.00  0.00     0.000 A 
HETATM   30  C19 UNL     1     -10.353  -8.491  19.748  1.00  0.00     0.002 A 
HETATM   31  C20 UNL     1      -9.676  -9.078  18.682  1.00  0.00     0.025 A 
ENDBRANCH  23  26
ENDBRANCH  21  23
ENDBRANCH   5  19
TORSDOF 5
ENDMDL
MODEL 2
REMARK VINA RESULT: -10.065849117      0.944      1.286
REMARK  5 active torsions:
REMARK  status: ('A' for Active; 'I' for Inactive)
REMARK       I    between atoms: C1_2  and  N1_3 
REMARK    1  A    between atoms: C1_2  and  C10_14 
REMARK    2  A    between atoms: N1_3  and  C2_5 
REMARK    3  A    between atoms: C13_18  and  C14_19 
REMARK       I    between atoms: C14_19  and  N2_21 
REMARK    4  A    between atoms: N2_21  and  S3_23 
REMARK    5  A    between atoms: S3_23  and  C15_26 
ROOT
HETATM    1  C10 UNL     1      -7.730 -13.603  16.662  1.00  0.00     0.055 A 
HETATM    2  C11 UNL     1      -7.406 -14.859  16.292  1.00  0.00     0.026 A 
HETATM    3  C12 UNL     1      -6.988 -15.067  15.016  1.00  0.00     0.051 A 
HETATM    4  S2  UNL     1      -7.049 -13.522  14.338  1.00  0.00    -0.095 SA
HETATM    5  C13 UNL     1      -7.623 -12.616  15.731  1.00  0.00     0.089 A 
ENDROOT
BRANCH   1   6
HETATM    6  C1  UNL     1      -8.107 -13.358  18.105  1.00  0.00     0.258 C 
HETATM    7  O1  UNL     1      -9.194 -13.832  18.517  1.00  0.00    -0.267 OA
HETATM    8  N1  UNL     1      -7.280 -12.639  18.971  1.00  0.00    -0.317 N 
ATOM      9  H1  UNL     1      -6.405 -12.281  18.587  1.00  0.00     0.169 HD
BRANCH   8  10
HETATM   10  C2  UNL     1      -7.545 -12.362  20.325  1.00  0.00     0.078 A 
HETATM   11  C3  UNL     1      -8.123 -13.049  21.340  1.00  0.00     0.050 A 
HETATM   12  C4  UNL     1      -8.127 -12.473  22.575  1.00  0.00    -0.016 A 
HETATM   13  C5  UNL     1      -8.655 -13.016  23.761  1.00  0.00     0.013 A 
HETATM   14  C9  UNL     1      -7.550 -11.251  22.695  1.00  0.00     0.017 A 
HETATM   15  C6  UNL     1      -8.567 -12.318  24.944  1.00  0.00     0.001 A 
HETATM   16  C7  UNL     1      -7.987 -11.097  25.051  1.00  0.00     0.001 A 
HETATM   17  C8  UNL     1      -7.464 -10.543  23.906  1.00  0.00     0.020 A 
HETATM   18  S1  UNL     1      -7.014 -10.909  21.117  1.00  0.00    -0.072 SA
ENDBRANCH   8  10
ENDBRANCH   1   6
BRANCH   5  19
HETATM   19  C14 UNL     1      -7.906 -11.193  15.722  1.00  0.00     0.273 C 
HETATM   20  O2  UNL     1      -8.920 -10.819  15.031  1.00  0.00    -0.266 OA
HETATM   21  N2  UNL     1      -7.194 -10.211  16.387  1.00  0.00    -0.245 N 
ATOM     22  H2  UNL     1      -6.380 -10.483  16.939  1.00  0.00     0.182 HD
BRANCH  21  23
HETATM   23  S3  UNL     1      -7.637  -8.522  16.317  1.00  0.00     0.265 S 
HETATM   24  O3  UNL     1      -8.379  -8.341  15.030  1.00  0.00    -0.200 OA
HETATM   25  O4  UNL     1      -6.343  -7.718  16.286  1.00  0.00    -0.200 OA
BRANCH  23  26
HETATM   26  C15 UNL     1      -8.620  -8.022  17.637  1.00  0.00     0.080 A 
HETATM   27  C16 UNL     1      -9.290  -8.930  18.469  1.00  0.00     0.025 A 
HETATM   28  C17 UNL     1     -10.033  -8.470  19.513  1.00  0.00     0.002 A 
HETATM   29  C18 UNL     1     -10.167  -7.131  19.805  1.00  0.00     0.000 A 
HETATM   30  C19 UNL     1      -9.518  -6.217  19.001  1.00  0.00     0.002 A 
HETATM   31  C20 UNL     1      -8.758  -6.686  17.933  1.00  0.00     0.025 A 
ENDBRANCH  23  26
ENDBRANCH  21  23
ENDBRANCH   5  19
TORSDOF 5
ENDMDL
MODEL 3
REMARK VINA RESULT: -9.878249534      1.276      1.311
REMARK  5 active torsions:
REMARK  status: ('A' for Active; 'I' for Inactive)
REMARK       I    between atoms: C1_2  and  N1_3 
REMARK    1  A    between atoms: C1_2  and  C10_14 
REMARK    2  A    between atoms: N1_3  and  C2_5 
REMARK    3  A    between atoms: C13_18  and  C14_19 
REMARK       I    between atoms: C14_19  and  N2_21 
REMARK    4  A    between atoms: N2_21  and  S3_23 
REMARK    5  A    between atoms: S3_23  and  C15_26 
ROOT
HETATM    1  C10 UNL     1      -7.527 -13.123  16.555  1.00  0.00     0.055 A 
HETATM    2  C11 UNL     1      -7.594 -14.291  15.882  1.00  0.00     0.026 A 
HETATM    3  C12 UNL     1      -7.250 -14.296  14.567  1.00  0.00     0.051 A 
HETATM    4  S2  UNL     1      -6.839 -12.684  14.274  1.00  0.00    -0.095 SA
HETATM    5  C13 UNL     1      -7.122 -12.016  15.874  1.00  0.00     0.089 A 
ENDROOT
BRANCH   1   6
HETATM    6  C1  UNL     1      -7.822 -13.137  18.037  1.00  0.00     0.258 C 
HETATM    7  O1  UNL     1      -8.440 -14.124  18.505  1.00  0.00    -0.267 OA
HETATM    8  N1  UNL     1      -7.418 -12.097  18.878  1.00  0.00    -0.317 N 
ATOM      9  H1  UNL     1      -6.913 -11.322  18.449  1.00  0.00     0.169 HD
BRANCH   8  10
HETATM   10  C2  UNL     1      -7.644 -12.023  20.265  1.00  0.00     0.078 A 
HETATM   11  C3  UNL     1      -8.273 -12.812  21.169  1.00  0.00     0.050 A 
HETATM   12  C4  UNL     1      -8.214 -12.447  22.481  1.00  0.00    -0.016 A 
HETATM   13  C5  UNL     1      -8.779 -13.128  23.575  1.00  0.00     0.013 A 
HETATM   14  C9  UNL     1      -7.527 -11.318  22.784  1.00  0.00     0.017 A 
HETATM   15  C6  UNL     1      -8.617 -12.642  24.854  1.00  0.00     0.001 A 
HETATM   16  C7  UNL     1      -7.928 -11.511  25.143  1.00  0.00     0.001 A 
HETATM   17  C8  UNL     1      -7.367 -10.827  24.091  1.00  0.00     0.020 A 
HETATM   18  S1  UNL     1      -6.976 -10.771  21.269  1.00  0.00    -0.072 SA
ENDBRANCH   8  10
ENDBRANCH   1   6
BRANCH   5  19
HETATM   19  C14 UNL     1      -6.964 -10.615  16.217  1.00  0.00     0.273 C 
HETATM   20  O2  UNL     1      -6.042 -10.338  17.065  1.00  0.00    -0.266 OA
HETATM   21  N2  UNL     1      -7.704  -9.559  15.716  1.00  0.00    -0.245 N 
ATOM     22  H2  UNL     1      -8.447  -9.755  15.044  1.00  0.00     0.182 HD
BRANCH  21  23
HETATM   23  S3  UNL     1      -7.414  -7.903  16.191  1.00  0.00     0.265 S 
HETATM   24  O3  UNL     1      -7.817  -7.060  15.023  1.00  0.00    -0.200 OA
HETATM   25  O4  UNL     1      -5.918  -7.761  16.440  1.00  0.00    -0.200 OA
BRANCH  23  26
HETATM   26  C15 UNL     1      -8.300  -7.433  17.589  1.00  0.00     0.080 A 
HETATM   27  C16 UNL     1      -8.939  -6.190  17.699  1.00  0.00     0.025 A 
HETATM   28  C17 UNL     1      -9.645  -5.890  18.823  1.00  0.00     0.002 A 
HETATM   29  C18 UNL     1      -9.773  -6.758  19.883  1.00  0.00     0.000 A 
HETATM   30  C19 UNL     1      -9.154  -7.988  19.801  1.00  0.00     0.002 A 
HETATM   31  C20 UNL     1      -8.430  -8.297  18.652  1.00  0.00     0.025 A 
ENDBRANCH  23  26
ENDBRANCH  21  23
ENDBRANCH   5  19
TORSDOF 5
ENDMDL
MODEL 4
REMARK VINA RESULT: -9.829696909      0.903      1.538
REMARK  5 active torsions:
REMARK  status: ('A' for Active; 'I' for Inactive)
REMARK       I    between atoms: C1_2  and  N1_3 
REMARK    1  A    between atoms: C1_2  and  C10_14 
REMARK    2  A    between atoms: N1_3  and  C2_5 
REMARK    3  A    between atoms: C13_18  and  C14_19 
REMARK       I    between atoms: C14_19  and  N2_21 
REMARK    4  A    between atoms: N2_21  and  S3_23 
REMARK    5  A    between atoms: S3_23  and  C15_26 
ROOT
HETATM    1  C10 UNL     1      -7.047 -13.823  16.788  1.00  0.00     0.055 A 
HETATM    2  C11 UNL     1      -6.690 -15.049  16.352  1.00  0.00     0.026 A 
HETATM    3  C12 UNL     1      -6.721 -15.291  15.015  1.00  0.00     0.051 A 
HETATM    4  S2  UNL     1      -7.245 -13.820  14.373  1.00  0.00    -0.095 SA
HETATM    5  C13 UNL     1      -7.421 -12.900  15.860  1.00  0.00     0.089 A 
ENDROOT
BRANCH   1   6
HETATM    6  C1  UNL     1      -6.925 -13.527  18.265  1.00  0.00     0.258 C 
HETATM    7  O1  UNL     1      -5.821 -13.750  18.820  1.00  0.00    -0.267 OA
HETATM    8  N1  UNL     1      -7.993 -13.013  19.004  1.00  0.00    -0.317 N 
ATOM      9  H1  UNL     1      -8.865 -12.844  18.504  1.00  0.00     0.169 HD
BRANCH   8  10
HETATM   10  C2  UNL     1      -7.973 -12.707  20.377  1.00  0.00     0.078 A 
HETATM   11  C3  UNL     1      -7.354 -11.768  21.133  1.00  0.00     0.050 A 
HETATM   12  C4  UNL     1      -7.650 -11.726  22.463  1.00  0.00    -0.016 A 
HETATM   13  C5  UNL     1      -7.138 -10.828  23.417  1.00  0.00     0.013 A 
HETATM   14  C9  UNL     1      -8.546 -12.631  22.931  1.00  0.00     0.017 A 
HETATM   15  C6  UNL     1      -7.550 -10.898  24.729  1.00  0.00     0.001 A 
HETATM   16  C7  UNL     1      -8.446 -11.807  25.184  1.00  0.00     0.001 A 
HETATM   17  C8  UNL     1      -8.962 -12.698  24.272  1.00  0.00     0.020 A 
HETATM   18  S1  UNL     1      -8.967 -13.525  21.545  1.00  0.00    -0.072 SA
ENDBRANCH   8  10
ENDBRANCH   1   6
BRANCH   5  19
HETATM   19  C14 UNL     1      -7.898 -11.530  15.925  1.00  0.00     0.273 C 
HETATM   20  O2  UNL     1      -9.157 -11.358  15.749  1.00  0.00    -0.266 OA
HETATM   21  N2  UNL     1      -7.128 -10.405  16.162  1.00  0.00    -0.245 N 
ATOM     22  H2  UNL     1      -6.124 -10.516  16.299  1.00  0.00     0.182 HD
BRANCH  21  23
HETATM   23  S3  UNL     1      -7.815  -8.800  16.233  1.00  0.00     0.265 S 
HETATM   24  O3  UNL     1      -8.870  -8.753  15.173  1.00  0.00    -0.200 OA
HETATM   25  O4  UNL     1      -6.700  -7.817  15.897  1.00  0.00    -0.200 OA
BRANCH  23  26
HETATM   26  C15 UNL     1      -8.503  -8.423  17.764  1.00  0.00     0.080 A 
HETATM   27  C16 UNL     1      -9.004  -9.403  18.632  1.00  0.00     0.025 A 
HETATM   28  C17 UNL     1      -9.513  -9.040  19.841  1.00  0.00     0.002 A 
HETATM   29  C18 UNL     1      -9.565  -7.734  20.271  1.00  0.00     0.000 A 
HETATM   30  C19 UNL     1      -9.079  -6.749  19.436  1.00  0.00     0.002 A 
HETATM   31  C20 UNL     1      -8.558  -7.119  18.198  1.00  0.00     0.025 A 
ENDBRANCH  23  26
ENDBRANCH  21  23
ENDBRANCH   5  19
TORSDOF 5
ENDMDL
MODEL 5
REMARK VINA RESULT: -9.817647381      2.924      5.636
REMARK  5 active torsions:
REMARK  status: ('A' for Active; 'I' for Inactive)
REMARK       I    between atoms: C1_2  and  N1_3 
REMARK    1  A    between atoms: C1_2  and  C10_14 
REMARK    2  A    between atoms: N1_3  and  C2_5 
REMARK    3  A    between atoms: C13_18  and  C14_19 
REMARK       I    between atoms: C14_19  and  N2_21 
REMARK    4  A    between atoms: N2_21  and  S3_23 
REMARK    5  A    between atoms: S3_23  and  C15_26 
ROOT
HETATM    1  C10 UNL     1      -8.093 -13.823  16.490  1.00  0.00     0.055 A 
HETATM    2  C11 UNL     1      -8.666 -14.565  15.518  1.00  0.00     0.026 A 
HETATM    3  C12 UNL     1      -8.191 -15.819  15.302  1.00  0.00     0.051 A 
HETATM    4  S2  UNL     1      -6.956 -15.962  16.444  1.00  0.00    -0.095 SA
HETATM    5  C13 UNL     1      -7.069 -14.377  17.195  1.00  0.00     0.089 A 
ENDROOT
BRANCH   1   6
HETATM    6  C1  UNL     1      -8.681 -12.464  16.790  1.00  0.00     0.258 C 
HETATM    7  O1  UNL     1      -9.916 -12.307  16.621  1.00  0.00    -0.267 OA
HETATM    8  N1  UNL     1      -7.894 -11.406  17.251  1.00  0.00    -0.317 N 
ATOM      9  H1  UNL     1      -6.898 -11.589  17.376  1.00  0.00     0.169 HD
BRANCH   8  10
HETATM   10  C2  UNL     1      -8.351 -10.111  17.557  1.00  0.00     0.078 A 
HETATM   11  C3  UNL     1      -9.128  -9.582  18.533  1.00  0.00     0.050 A 
HETATM   12  C4  UNL     1      -9.288  -8.229  18.554  1.00  0.00    -0.016 A 
HETATM   13  C5  UNL     1     -10.034  -7.480  19.484  1.00  0.00     0.013 A 
HETATM   14  C9  UNL     1      -8.655  -7.511  17.594  1.00  0.00     0.017 A 
HETATM   15  C6  UNL     1     -10.087  -6.107  19.386  1.00  0.00     0.001 A 
HETATM   16  C7  UNL     1      -9.449  -5.401  18.421  1.00  0.00     0.001 A 
HETATM   17  C8  UNL     1      -8.714  -6.110  17.500  1.00  0.00     0.020 A 
HETATM   18  S1  UNL     1      -7.853  -8.698  16.675  1.00  0.00    -0.072 SA
ENDBRANCH   8  10
ENDBRANCH   1   6
BRANCH   5  19
HETATM   19  C14 UNL     1      -6.195 -13.907  18.254  1.00  0.00     0.273 C 
HETATM   20  O2  UNL     1      -4.967 -13.718  17.935  1.00  0.00    -0.266 OA
HETATM   21  N2  UNL     1      -6.561 -13.643  19.562  1.00  0.00    -0.245 N 
ATOM     22  H2  UNL     1      -7.531 -13.791  19.841  1.00  0.00     0.182 HD
BRANCH  21  23
HETATM   23  S3  UNL     1      -5.421 -13.065  20.754  1.00  0.00     0.265 S 
HETATM   24  O3  UNL     1      -4.314 -14.071  20.792  1.00  0.00    -0.200 OA
HETATM   25  O4  UNL     1      -6.144 -13.040  22.094  1.00  0.00    -0.200 OA
BRANCH  23  26
HETATM   26  C15 UNL     1      -4.787 -11.508  20.387  1.00  0.00     0.080 A 
HETATM   27  C16 UNL     1      -3.415 -11.267  20.226  1.00  0.00     0.025 A 
HETATM   28  C17 UNL     1      -2.981 -10.016  19.912  1.00  0.00     0.002 A 
HETATM   29  C18 UNL     1      -3.832  -8.948  19.738  1.00  0.00     0.000 A 
HETATM   30  C19 UNL     1      -5.187  -9.158  19.892  1.00  0.00     0.002 A 
HETATM   31  C20 UNL     1      -5.633 -10.437  20.214  1.00  0.00     0.025 A 
ENDBRANCH  23  26
ENDBRANCH  21  23
ENDBRANCH   5  19
TORSDOF 5
ENDMDL
