MODEL 1
REMARK VINA RESULT: -5.159173700      0.000      0.000
REMARK  6 active torsions:
REMARK  status: ('A' for Active; 'I' for Inactive)
REMARK    1  A    between atoms: N1_2  and  C2_4 
REMARK    2  A    between atoms: C2_4  and  C3_5 
REMARK    3  A    between atoms: C3_5  and  C4_6 
REMARK    4  A    between atoms: C4_6  and  C5_7 
REMARK    5  A    between atoms: C8_13  and  C9_14 
REMARK    6  A    between atoms: C9_14  and  N3_15 
ROOT
HETATM    1  C5  UNL     1      16.417  -2.208  60.234  1.00  0.00     0.212 C 
HETATM    2  C6  UNL     1      15.134  -1.727  60.828  1.00  0.00     0.265 C 
HETATM    3  N2  UNL     1      15.268  -0.544  61.610  1.00  0.00    -0.071 N 
ATOM      4  H21 UNL     1      14.470  -0.415  62.234  1.00  0.00     0.277 HD
ATOM      5  H22 UNL     1      15.159   0.295  61.040  1.00  0.00     0.277 HD
HETATM    6  C7  UNL     1      16.518  -0.532  62.338  1.00  0.00     0.267 C 
HETATM    7  C8  UNL     1      16.972  -1.965  62.477  1.00  0.00     0.237 C 
HETATM    8  N4  UNL     1      17.506  -2.343  61.178  1.00  0.00    -0.062 N 
ATOM      9  H41 UNL     1      18.337  -1.815  60.914  1.00  0.00     0.278 HD
ATOM     10  H42 UNL     1      17.935  -3.268  61.170  1.00  0.00     0.278 HD
ENDROOT
BRANCH   1  11
HETATM   11  C4  UNL     1      16.232  -3.586  59.616  1.00  0.00     0.040 C 
BRANCH  11  12
HETATM   12  C3  UNL     1      17.178  -3.744  58.489  1.00  0.00     0.046 C 
BRANCH  12  13
HETATM   13  C2  UNL     1      16.936  -4.835  57.521  1.00  0.00     0.055 C 
BRANCH  13  14
HETATM   14  N1  UNL     1      15.653  -5.412  57.440  1.00  0.00    -0.406 N 
HETATM   15  C1  UNL     1      14.835  -5.005  56.356  1.00  0.00     0.145 C 
ATOM     16  H1  UNL     1      15.328  -6.090  58.129  1.00  0.00     0.158 HD
ENDBRANCH  13  14
ENDBRANCH  12  13
ENDBRANCH  11  12
ENDBRANCH   1  11
BRANCH   7  17
HETATM   17  C9  UNL     1      17.973  -2.107  63.576  1.00  0.00     0.264 C 
BRANCH  17  18
HETATM   18  N3  UNL     1      17.268  -2.365  64.808  1.00  0.00    -0.077 N 
ATOM     19  H33 UNL     1      16.265  -2.484  64.667  1.00  0.00     0.274 HD
ATOM     20  H32 UNL     1      17.468  -3.290  65.186  1.00  0.00     0.274 HD
ATOM     21  H31 UNL     1      17.485  -1.617  65.467  1.00  0.00     0.274 HD
ENDBRANCH  17  18
ENDBRANCH   7  17
TORSDOF 6
ENDMDL
MODEL 2
REMARK VINA RESULT: -5.020266912      1.842      2.576
REMARK  6 active torsions:
REMARK  status: ('A' for Active; 'I' for Inactive)
REMARK    1  A    between atoms: N1_2  and  C2_4 
REMARK    2  A    between atoms: C2_4  and  C3_5 
REMARK    3  A    between atoms: C3_5  and  C4_6 
REMARK    4  A    between atoms: C4_6  and  C5_7 
REMARK    5  A    between atoms: C8_13  and  C9_14 
REMARK    6  A    between atoms: C9_14  and  N3_15 
ROOT
HETATM    1  C5  UNL     1      18.475  -2.395  60.683  1.00  0.00     0.212 C 
HETATM    2  C6  UNL     1      19.211  -1.100  60.570  1.00  0.00     0.265 C 
HETATM    3  N2  UNL     1      19.951  -0.752  61.737  1.00  0.00    -0.071 N 
ATOM      4  H21 UNL     1      20.182   0.242  61.751  1.00  0.00     0.277 HD
ATOM      5  H22 UNL     1      20.896  -1.133  61.707  1.00  0.00     0.277 HD
HETATM    6  C7  UNL     1      19.254  -1.152  62.940  1.00  0.00     0.267 C 
HETATM    7  C8  UNL     1      17.789  -1.268  62.596  1.00  0.00     0.237 C 
HETATM    8  N4  UNL     1      17.649  -2.518  61.864  1.00  0.00    -0.062 N 
ATOM      9  H41 UNL     1      17.866  -3.341  62.425  1.00  0.00     0.278 HD
ATOM     10  H42 UNL     1      16.680  -2.758  61.656  1.00  0.00     0.278 HD
ENDROOT
BRANCH   1  11
HETATM   11  C4  UNL     1      17.537  -2.577  59.499  1.00  0.00     0.040 C 
BRANCH  11  12
HETATM   12  C3  UNL     1      16.402  -3.435  59.907  1.00  0.00     0.046 C 
BRANCH  12  13
HETATM   13  C2  UNL     1      15.711  -4.224  58.864  1.00  0.00     0.055 C 
BRANCH  13  14
HETATM   14  N1  UNL     1      14.481  -4.840  59.169  1.00  0.00    -0.406 N 
HETATM   15  C1  UNL     1      13.776  -4.340  60.291  1.00  0.00     0.145 C 
ATOM     16  H1  UNL     1      14.116  -5.609  58.608  1.00  0.00     0.158 HD
ENDBRANCH  13  14
ENDBRANCH  12  13
ENDBRANCH  11  12
ENDBRANCH   1  11
BRANCH   7  17
HETATM   17  C9  UNL     1      16.942  -1.221  63.824  1.00  0.00     0.264 C 
BRANCH  17  18
HETATM   18  N3  UNL     1      17.190  -2.413  64.598  1.00  0.00    -0.077 N 
ATOM     19  H33 UNL     1      18.165  -2.499  64.883  1.00  0.00     0.274 HD
ATOM     20  H32 UNL     1      16.775  -2.368  65.529  1.00  0.00     0.274 HD
ATOM     21  H31 UNL     1      16.866  -3.220  64.064  1.00  0.00     0.274 HD
ENDBRANCH  17  18
ENDBRANCH   7  17
TORSDOF 6
ENDMDL
MODEL 3
REMARK VINA RESULT: -4.971427247      3.208      5.171
REMARK  6 active torsions:
REMARK  status: ('A' for Active; 'I' for Inactive)
REMARK    1  A    between atoms: N1_2  and  C2_4 
REMARK    2  A    between atoms: C2_4  and  C3_5 
REMARK    3  A    between atoms: C3_5  and  C4_6 
REMARK    4  A    between atoms: C4_6  and  C5_7 
REMARK    5  A    between atoms: C8_13  and  C9_14 
REMARK    6  A    between atoms: C9_14  and  N3_15 
ROOT
HETATM    1  C5  UNL     1      17.106  -2.051  61.358  1.00  0.00     0.212 C 
HETATM    2  C6  UNL     1      16.367  -1.166  62.308  1.00  0.00     0.265 C 
HETATM    3  N2  UNL     1      15.377  -0.351  61.687  1.00  0.00    -0.071 N 
ATOM      4  H21 UNL     1      15.113   0.435  62.282  1.00  0.00     0.277 HD
ATOM      5  H22 UNL     1      14.476  -0.826  61.644  1.00  0.00     0.277 HD
HETATM    6  C7  UNL     1      15.806   0.093  60.379  1.00  0.00     0.267 C 
HETATM    7  C8  UNL     1      17.314   0.034  60.354  1.00  0.00     0.237 C 
HETATM    8  N4  UNL     1      17.656  -1.372  60.205  1.00  0.00    -0.062 N 
ATOM      9  H41 UNL     1      17.351  -1.770  59.317  1.00  0.00     0.278 HD
ATOM     10  H42 UNL     1      18.656  -1.533  60.079  1.00  0.00     0.278 HD
ENDROOT
BRANCH   1  11
HETATM   11  C4  UNL     1      18.288  -2.708  62.054  1.00  0.00     0.040 C 
BRANCH  11  12
HETATM   12  C3  UNL     1      18.642  -1.923  63.258  1.00  0.00     0.046 C 
BRANCH  12  13
HETATM   13  C2  UNL     1      19.804  -1.013  63.183  1.00  0.00     0.055 C 
BRANCH  13  14
HETATM   14  N1  UNL     1      20.595  -1.001  62.017  1.00  0.00    -0.406 N 
HETATM   15  C1  UNL     1      20.978   0.268  61.515  1.00  0.00     0.145 C 
ATOM     16  H1  UNL     1      20.878  -1.865  61.555  1.00  0.00     0.158 HD
ENDBRANCH  13  14
ENDBRANCH  12  13
ENDBRANCH  11  12
ENDBRANCH   1  11
BRANCH   7  17
HETATM   17  C9  UNL     1      17.867   0.883  59.258  1.00  0.00     0.264 C 
BRANCH  17  18
HETATM   18  N3  UNL     1      18.882   0.129  58.562  1.00  0.00    -0.077 N 
ATOM     19  H33 UNL     1      18.965   0.397  57.582  1.00  0.00     0.274 HD
ATOM     20  H32 UNL     1      19.826   0.380  58.857  1.00  0.00     0.274 HD
ATOM     21  H31 UNL     1      18.687  -0.865  58.681  1.00  0.00     0.274 HD
ENDBRANCH  17  18
ENDBRANCH   7  17
TORSDOF 6
ENDMDL
MODEL 4
REMARK VINA RESULT: -4.967328759      1.642      2.357
REMARK  6 active torsions:
REMARK  status: ('A' for Active; 'I' for Inactive)
REMARK    1  A    between atoms: N1_2  and  C2_4 
REMARK    2  A    between atoms: C2_4  and  C3_5 
REMARK    3  A    between atoms: C3_5  and  C4_6 
REMARK    4  A    between atoms: C4_6  and  C5_7 
REMARK    5  A    between atoms: C8_13  and  C9_14 
REMARK    6  A    between atoms: C9_14  and  N3_15 
ROOT
HETATM    1  C5  UNL     1      18.552  -2.442  60.772  1.00  0.00     0.212 C 
HETATM    2  C6  UNL     1      19.573  -1.351  60.747  1.00  0.00     0.265 C 
HETATM    3  N2  UNL     1      20.332  -1.243  61.947  1.00  0.00    -0.071 N 
ATOM      4  H21 UNL     1      20.788  -0.332  62.020  1.00  0.00     0.277 HD
ATOM      5  H22 UNL     1      21.164  -1.833  61.918  1.00  0.00     0.277 HD
HETATM    6  C7  UNL     1      19.520  -1.526  63.111  1.00  0.00     0.267 C 
HETATM    7  C8  UNL     1      18.082  -1.280  62.728  1.00  0.00     0.237 C 
HETATM    8  N4  UNL     1      17.680  -2.425  61.927  1.00  0.00    -0.062 N 
ATOM      9  H41 UNL     1      17.680  -3.302  62.447  1.00  0.00     0.278 HD
ATOM     10  H42 UNL     1      16.689  -2.422  61.685  1.00  0.00     0.278 HD
ENDROOT
BRANCH   1  11
HETATM   11  C4  UNL     1      17.638  -2.343  59.561  1.00  0.00     0.040 C 
BRANCH  11  12
HETATM   12  C3  UNL     1      16.723  -3.506  59.545  1.00  0.00     0.046 C 
BRANCH  12  13
HETATM   13  C2  UNL     1      16.699  -4.361  58.339  1.00  0.00     0.055 C 
BRANCH  13  14
HETATM   14  N1  UNL     1      15.529  -5.083  58.032  1.00  0.00    -0.406 N 
HETATM   15  C1  UNL     1      15.059  -5.005  56.698  1.00  0.00     0.145 C 
ATOM     16  H1  UNL     1      15.043  -5.638  58.737  1.00  0.00     0.158 HD
ENDBRANCH  13  14
ENDBRANCH  12  13
ENDBRANCH  11  12
ENDBRANCH   1  11
BRANCH   7  17
HETATM   17  C9  UNL     1      17.228  -1.095  63.939  1.00  0.00     0.264 C 
BRANCH  17  18
HETATM   18  N3  UNL     1      17.125  -2.359  64.625  1.00  0.00    -0.077 N 
ATOM     19  H33 UNL     1      16.165  -2.697  64.681  1.00  0.00     0.274 HD
ATOM     20  H32 UNL     1      17.514  -3.131  64.084  1.00  0.00     0.274 HD
ATOM     21  H31 UNL     1      17.561  -2.267  65.543  1.00  0.00     0.274 HD
ENDBRANCH  17  18
ENDBRANCH   7  17
TORSDOF 6
ENDMDL
MODEL 5
REMARK VINA RESULT: -4.943536457      1.844      4.475
REMARK  6 active torsions:
REMARK  status: ('A' for Active; 'I' for Inactive)
REMARK    1  A    between atoms: N1_2  and  C2_4 
REMARK    2  A    between atoms: C2_4  and  C3_5 
REMARK    3  A    between atoms: C3_5  and  C4_6 
REMARK    4  A    between atoms: C4_6  and  C5_7 
REMARK    5  A    between atoms: C8_13  and  C9_14 
REMARK    6  A    between atoms: C9_14  and  N3_15 
ROOT
HETATM    1  C5  UNL     1      16.997  -1.934  62.908  1.00  0.00     0.212 C 
HETATM    2  C6  UNL     1      16.680  -0.595  62.326  1.00  0.00     0.265 C 
HETATM    3  N2  UNL     1      15.385  -0.513  61.739  1.00  0.00    -0.071 N 
ATOM      4  H21 UNL     1      15.313   0.280  61.101  1.00  0.00     0.277 HD
ATOM      5  H22 UNL     1      14.682  -0.229  62.422  1.00  0.00     0.277 HD
HETATM    6  C7  UNL     1      15.022  -1.754  61.088  1.00  0.00     0.267 C 
HETATM    7  C8  UNL     1      16.303  -2.481  60.759  1.00  0.00     0.237 C 
HETATM    8  N4  UNL     1      16.772  -3.049  62.014  1.00  0.00    -0.062 N 
ATOM      9  H41 UNL     1      16.145  -3.755  62.397  1.00  0.00     0.278 HD
ATOM     10  H42 UNL     1      17.589  -3.651  61.905  1.00  0.00     0.278 HD
ENDROOT
BRANCH   1  11
HETATM   11  C4  UNL     1      18.465  -2.008  63.302  1.00  0.00     0.040 C 
BRANCH  11  12
HETATM   12  C3  UNL     1      19.210  -0.939  62.602  1.00  0.00     0.046 C 
BRANCH  12  13
HETATM   13  C2  UNL     1      20.202  -1.333  61.578  1.00  0.00     0.055 C 
BRANCH  13  14
HETATM   14  N1  UNL     1      19.765  -1.608  60.267  1.00  0.00    -0.406 N 
HETATM   15  C1  UNL     1      19.236  -0.522  59.527  1.00  0.00     0.145 C 
ATOM     16  H1  UNL     1      19.827  -2.545  59.870  1.00  0.00     0.158 HD
ENDBRANCH  13  14
ENDBRANCH  12  13
ENDBRANCH  11  12
ENDBRANCH   1  11
BRANCH   7  17
HETATM   17  C9  UNL     1      16.079  -3.515  59.706  1.00  0.00     0.264 C 
BRANCH  17  18
HETATM   18  N3  UNL     1      17.202  -3.499  58.801  1.00  0.00    -0.077 N 
ATOM     19  H33 UNL     1      16.953  -3.813  57.864  1.00  0.00     0.274 HD
ATOM     20  H32 UNL     1      17.496  -2.553  58.560  1.00  0.00     0.274 HD
ATOM     21  H31 UNL     1      17.956  -4.051  59.211  1.00  0.00     0.274 HD
ENDBRANCH  17  18
ENDBRANCH   7  17
TORSDOF 6
ENDMDL
