MODEL 1
REMARK VINA RESULT: -5.665716842      0.000      0.000
REMARK  7 active torsions:
REMARK  status: ('A' for Active; 'I' for Inactive)
REMARK    1  A    between atoms: N1_2  and  C2_5 
REMARK    2  A    between atoms: C2_5  and  C3_6 
REMARK    3  A    between atoms: C3_6  and  C4_7 
REMARK    4  A    between atoms: C4_7  and  C5_8 
REMARK    5  A    between atoms: C5_8  and  N2_9 
REMARK    6  A    between atoms: N2_9  and  C6_10 
REMARK    7  A    between atoms: C8_18  and  N6_19 
ROOT
HETATM    1  C6  UNL     1      16.859  -2.386  62.121  1.00  0.00     0.236 A 
HETATM    2  N3  UNL     1      17.804  -2.988  62.900  1.00  0.00    -0.270 N 
ATOM      3  H3  UNL     1      18.195  -3.878  62.592  1.00  0.00     0.189 HD
HETATM    4  N4  UNL     1      18.229  -2.473  64.024  1.00  0.00    -0.294 N 
ATOM      5  H4  UNL     1      18.937  -2.957  64.578  1.00  0.00     0.187 HD
HETATM    6  C7  UNL     1      17.725  -1.306  64.441  1.00  0.00     0.199 A 
HETATM    7  N5  UNL     1      16.794  -0.668  63.719  1.00  0.00    -0.334 N 
ATOM      8  H5  UNL     1      16.427   0.220  64.061  1.00  0.00     0.168 HD
HETATM    9  C8  UNL     1      16.331  -1.156  62.568  1.00  0.00     0.160 A 
ENDROOT
BRANCH   1  10
HETATM   10  N2  UNL     1      16.501  -2.890  61.098  1.00  0.00    -0.399 NA
BRANCH  10  11
HETATM   11  C5  UNL     1      16.153  -3.318  59.884  1.00  0.00     0.158 C 
BRANCH  11  12
HETATM   12  C4  UNL     1      17.276  -3.482  58.855  1.00  0.00     0.061 C 
BRANCH  12  13
HETATM   13  C3  UNL     1      16.686  -4.426  57.803  1.00  0.00     0.033 C 
BRANCH  13  14
HETATM   14  C2  UNL     1      15.251  -4.715  58.193  1.00  0.00     0.232 C 
BRANCH  14  15
HETATM   15  N1  UNL     1      14.552  -5.095  56.983  1.00  0.00    -0.079 N 
HETATM   16  C1  UNL     1      15.459  -5.558  55.956  1.00  0.00     0.266 C 
ATOM     17  H12 UNL     1      13.964  -4.336  56.642  1.00  0.00     0.276 HD
ATOM     18  H11 UNL     1      13.828  -5.786  57.175  1.00  0.00     0.276 HD
ENDBRANCH  14  15
ENDBRANCH  13  14
ENDBRANCH  12  13
ENDBRANCH  11  12
ENDBRANCH  10  11
ENDBRANCH   1  10
BRANCH   9  19
HETATM   19  N6  UNL     1      15.432  -0.532  61.868  1.00  0.00    -0.381 N 
ATOM     20  H62 UNL     1      14.445  -0.541  62.126  1.00  0.00     0.157 HD
ATOM     21  H61 UNL     1      15.698  -0.006  61.035  1.00  0.00     0.157 HD
ENDBRANCH   9  19
TORSDOF 7
ENDMDL
MODEL 2
REMARK VINA RESULT: -5.503180122      1.729      5.686
REMARK  7 active torsions:
REMARK  status: ('A' for Active; 'I' for Inactive)
REMARK    1  A    between atoms: N1_2  and  C2_5 
REMARK    2  A    between atoms: C2_5  and  C3_6 
REMARK    3  A    between atoms: C3_6  and  C4_7 
REMARK    4  A    between atoms: C4_7  and  C5_8 
REMARK    5  A    between atoms: C5_8  and  N2_9 
REMARK    6  A    between atoms: N2_9  and  C6_10 
REMARK    7  A    between atoms: C8_18  and  N6_19 
ROOT
HETATM    1  C6  UNL     1      16.014  -3.469  59.320  1.00  0.00     0.236 A 
HETATM    2  N3  UNL     1      17.236  -3.181  58.787  1.00  0.00    -0.270 N 
ATOM      3  H3  UNL     1      17.749  -2.377  59.149  1.00  0.00     0.189 HD
HETATM    4  N4  UNL     1      17.779  -3.891  57.833  1.00  0.00    -0.294 N 
ATOM      5  H4  UNL     1      18.696  -3.641  57.460  1.00  0.00     0.187 HD
HETATM    6  C7  UNL     1      17.118  -4.950  57.349  1.00  0.00     0.199 A 
HETATM    7  N5  UNL     1      15.913  -5.281  57.832  1.00  0.00    -0.334 N 
ATOM      8  H5  UNL     1      15.432  -6.093  57.444  1.00  0.00     0.168 HD
HETATM    9  C8  UNL     1      15.323  -4.586  58.803  1.00  0.00     0.160 A 
ENDROOT
BRANCH   1  10
HETATM   10  N2  UNL     1      15.556  -2.794  60.194  1.00  0.00    -0.399 NA
BRANCH  10  11
HETATM   11  C5  UNL     1      15.075  -1.915  61.074  1.00  0.00     0.158 C 
BRANCH  11  12
HETATM   12  C4  UNL     1      15.800  -0.570  61.181  1.00  0.00     0.061 C 
BRANCH  12  13
HETATM   13  C3  UNL     1      17.103  -0.903  61.913  1.00  0.00     0.033 C 
BRANCH  13  14
HETATM   14  C2  UNL     1      16.748  -1.305  63.331  1.00  0.00     0.232 C 
BRANCH  14  15
HETATM   15  N1  UNL     1      17.489  -2.514  63.625  1.00  0.00    -0.079 N 
HETATM   16  C1  UNL     1      18.335  -2.914  62.523  1.00  0.00     0.266 C 
ATOM     17  H12 UNL     1      16.865  -3.270  63.906  1.00  0.00     0.276 HD
ATOM     18  H11 UNL     1      18.025  -2.419  64.487  1.00  0.00     0.276 HD
ENDBRANCH  14  15
ENDBRANCH  13  14
ENDBRANCH  12  13
ENDBRANCH  11  12
ENDBRANCH  10  11
ENDBRANCH   1  10
BRANCH   9  19
HETATM   19  N6  UNL     1      14.157  -4.914  59.273  1.00  0.00    -0.381 N 
ATOM     20  H62 UNL     1      13.887  -5.887  59.419  1.00  0.00     0.157 HD
ATOM     21  H61 UNL     1      13.475  -4.194  59.515  1.00  0.00     0.157 HD
ENDBRANCH   9  19
TORSDOF 7
ENDMDL
MODEL 3
REMARK VINA RESULT: -5.488389394      1.887      5.836
REMARK  7 active torsions:
REMARK  status: ('A' for Active; 'I' for Inactive)
REMARK    1  A    between atoms: N1_2  and  C2_5 
REMARK    2  A    between atoms: C2_5  and  C3_6 
REMARK    3  A    between atoms: C3_6  and  C4_7 
REMARK    4  A    between atoms: C4_7  and  C5_8 
REMARK    5  A    between atoms: C5_8  and  N2_9 
REMARK    6  A    between atoms: N2_9  and  C6_10 
REMARK    7  A    between atoms: C8_18  and  N6_19 
ROOT
HETATM    1  C6  UNL     1      16.492  -3.983  59.005  1.00  0.00     0.236 A 
HETATM    2  N3  UNL     1      15.298  -4.640  58.939  1.00  0.00    -0.270 N 
ATOM      3  H3  UNL     1      14.729  -4.703  59.784  1.00  0.00     0.189 HD
HETATM    4  N4  UNL     1      14.851  -5.192  57.842  1.00  0.00    -0.294 N 
ATOM      5  H4  UNL     1      13.952  -5.675  57.836  1.00  0.00     0.187 HD
HETATM    6  C7  UNL     1      15.586  -5.116  56.726  1.00  0.00     0.199 A 
HETATM    7  N5  UNL     1      16.768  -4.485  56.729  1.00  0.00    -0.334 N 
ATOM      8  H5  UNL     1      17.307  -4.444  55.864  1.00  0.00     0.168 HD
HETATM    9  C8  UNL     1      17.262  -3.909  57.824  1.00  0.00     0.160 A 
ENDROOT
BRANCH   1  10
HETATM   10  N2  UNL     1      16.861  -3.490  60.029  1.00  0.00    -0.399 NA
BRANCH  10  11
HETATM   11  C5  UNL     1      17.260  -3.088  61.236  1.00  0.00     0.158 C 
BRANCH  11  12
HETATM   12  C4  UNL     1      18.443  -2.116  61.291  1.00  0.00     0.061 C 
BRANCH  12  13
HETATM   13  C3  UNL     1      17.791  -0.730  61.281  1.00  0.00     0.033 C 
BRANCH  13  14
HETATM   14  C2  UNL     1      16.695  -0.727  62.328  1.00  0.00     0.232 C 
BRANCH  14  15
HETATM   15  N1  UNL     1      15.553  -0.057  61.742  1.00  0.00    -0.079 N 
HETATM   16  C1  UNL     1      15.722   0.160  60.322  1.00  0.00     0.266 C 
ATOM     17  H12 UNL     1      15.346   0.815  62.227  1.00  0.00     0.276 HD
ATOM     18  H11 UNL     1      14.688  -0.559  61.938  1.00  0.00     0.276 HD
ENDBRANCH  14  15
ENDBRANCH  13  14
ENDBRANCH  12  13
ENDBRANCH  11  12
ENDBRANCH  10  11
ENDBRANCH   1  10
BRANCH   9  19
HETATM   19  N6  UNL     1      18.406  -3.293  57.822  1.00  0.00    -0.381 N 
ATOM     20  H62 UNL     1      19.242  -3.708  57.408  1.00  0.00     0.157 HD
ATOM     21  H61 UNL     1      18.495  -2.365  58.235  1.00  0.00     0.157 HD
ENDBRANCH   9  19
TORSDOF 7
ENDMDL
MODEL 4
REMARK VINA RESULT: -5.461963898      1.580      6.554
REMARK  7 active torsions:
REMARK  status: ('A' for Active; 'I' for Inactive)
REMARK    1  A    between atoms: N1_2  and  C2_5 
REMARK    2  A    between atoms: C2_5  and  C3_6 
REMARK    3  A    between atoms: C3_6  and  C4_7 
REMARK    4  A    between atoms: C4_7  and  C5_8 
REMARK    5  A    between atoms: C5_8  and  N2_9 
REMARK    6  A    between atoms: N2_9  and  C6_10 
REMARK    7  A    between atoms: C8_18  and  N6_19 
ROOT
HETATM    1  C6  UNL     1      16.592  -4.151  57.823  1.00  0.00     0.236 A 
HETATM    2  N3  UNL     1      17.416  -4.024  56.744  1.00  0.00    -0.270 N 
ATOM      3  H3  UNL     1      18.263  -3.464  56.840  1.00  0.00     0.189 HD
HETATM    4  N4  UNL     1      17.168  -4.590  55.591  1.00  0.00    -0.294 N 
ATOM      5  H4  UNL     1      17.811  -4.469  54.808  1.00  0.00     0.187 HD
HETATM    6  C7  UNL     1      16.062  -5.330  55.451  1.00  0.00     0.199 A 
HETATM    7  N5  UNL     1      15.213  -5.490  56.476  1.00  0.00    -0.334 N 
ATOM      8  H5  UNL     1      14.378  -6.059  56.339  1.00  0.00     0.168 HD
HETATM    9  C8  UNL     1      15.426  -4.932  57.666  1.00  0.00     0.160 A 
ENDROOT
BRANCH   1  10
HETATM   10  N2  UNL     1      16.858  -3.619  58.860  1.00  0.00    -0.399 NA
BRANCH  10  11
HETATM   11  C5  UNL     1      17.170  -2.888  59.931  1.00  0.00     0.158 C 
BRANCH  11  12
HETATM   12  C4  UNL     1      16.046  -2.055  60.556  1.00  0.00     0.061 C 
BRANCH  12  13
HETATM   13  C3  UNL     1      16.561  -1.724  61.960  1.00  0.00     0.033 C 
BRANCH  13  14
HETATM   14  C2  UNL     1      17.179  -2.983  62.535  1.00  0.00     0.232 C 
BRANCH  14  15
HETATM   15  N1  UNL     1      17.197  -2.825  63.974  1.00  0.00    -0.079 N 
HETATM   16  C1  UNL     1      17.117  -1.437  64.368  1.00  0.00     0.266 C 
ATOM     17  H12 UNL     1      18.012  -3.280  64.386  1.00  0.00     0.276 HD
ATOM     18  H11 UNL     1      16.464  -3.378  64.417  1.00  0.00     0.276 HD
ENDBRANCH  14  15
ENDBRANCH  13  14
ENDBRANCH  12  13
ENDBRANCH  11  12
ENDBRANCH  10  11
ENDBRANCH   1  10
BRANCH   9  19
HETATM   19  N6  UNL     1      14.604  -5.094  58.659  1.00  0.00    -0.381 N 
ATOM     20  H62 UNL     1      13.750  -4.542  58.749  1.00  0.00     0.157 HD
ATOM     21  H61 UNL     1      14.793  -5.791  59.380  1.00  0.00     0.157 HD
ENDBRANCH   9  19
TORSDOF 7
ENDMDL
MODEL 5
REMARK VINA RESULT: -5.450344589      2.065      3.518
REMARK  7 active torsions:
REMARK  status: ('A' for Active; 'I' for Inactive)
REMARK    1  A    between atoms: N1_2  and  C2_5 
REMARK    2  A    between atoms: C2_5  and  C3_6 
REMARK    3  A    between atoms: C3_6  and  C4_7 
REMARK    4  A    between atoms: C4_7  and  C5_8 
REMARK    5  A    between atoms: C5_8  and  N2_9 
REMARK    6  A    between atoms: N2_9  and  C6_10 
REMARK    7  A    between atoms: C8_18  and  N6_19 
ROOT
HETATM    1  C6  UNL     1      16.674  -2.300  62.030  1.00  0.00     0.236 A 
HETATM    2  N3  UNL     1      17.193  -3.097  63.008  1.00  0.00    -0.270 N 
ATOM      3  H3  UNL     1      17.460  -4.052  62.769  1.00  0.00     0.189 HD
HETATM    4  N4  UNL     1      17.364  -2.690  64.239  1.00  0.00    -0.294 N 
ATOM      5  H4  UNL     1      17.755  -3.319  64.942  1.00  0.00     0.187 HD
HETATM    6  C7  UNL     1      17.020  -1.439  64.568  1.00  0.00     0.199 A 
HETATM    7  N5  UNL     1      16.503  -0.610  63.650  1.00  0.00    -0.334 N 
ATOM      8  H5  UNL     1      16.249   0.337  63.929  1.00  0.00     0.168 HD
HETATM    9  C8  UNL     1      16.312  -0.983  62.385  1.00  0.00     0.160 A 
ENDROOT
BRANCH   1  10
HETATM   10  N2  UNL     1      16.539  -2.713  60.917  1.00  0.00    -0.399 NA
BRANCH  10  11
HETATM   11  C5  UNL     1      16.549  -3.169  59.664  1.00  0.00     0.158 C 
BRANCH  11  12
HETATM   12  C4  UNL     1      17.858  -3.029  58.882  1.00  0.00     0.061 C 
BRANCH  12  13
HETATM   13  C3  UNL     1      18.228  -1.550  59.031  1.00  0.00     0.033 C 
BRANCH  13  14
HETATM   14  C2  UNL     1      19.686  -1.476  59.435  1.00  0.00     0.232 C 
BRANCH  14  15
HETATM   15  N1  UNL     1      19.792  -2.080  60.746  1.00  0.00    -0.079 N 
HETATM   16  C1  UNL     1      20.155  -1.116  61.760  1.00  0.00     0.266 C 
ATOM     17  H12 UNL     1      20.438  -2.870  60.739  1.00  0.00     0.276 HD
ATOM     18  H11 UNL     1      18.937  -2.575  60.996  1.00  0.00     0.276 HD
ENDBRANCH  14  15
ENDBRANCH  13  14
ENDBRANCH  12  13
ENDBRANCH  11  12
ENDBRANCH  10  11
ENDBRANCH   1  10
BRANCH   9  19
HETATM   19  N6  UNL     1      15.816  -0.175  61.497  1.00  0.00    -0.381 N 
ATOM     20  H62 UNL     1      15.071  -0.461  60.862  1.00  0.00     0.157 HD
ATOM     21  H61 UNL     1      16.163   0.781  61.417  1.00  0.00     0.157 HD
ENDBRANCH   9  19
TORSDOF 7
ENDMDL
