MODEL 1
REMARK VINA RESULT: -3.697908373      0.000      0.000
REMARK  5 active torsions:
REMARK  status: ('A' for Active; 'I' for Inactive)
REMARK    1  A    between atoms: C2_2  and  N1_3 
REMARK    2  A    between atoms: C2_2  and  C3_7 
REMARK    3  A    between atoms: C3_7  and  O1_8 
REMARK    4  A    between atoms: C3_7  and  C4_10 
REMARK    5  A    between atoms: C4_10  and  N2_11 
ROOT
HETATM    1  C3  UNL     1      40.057  55.932  22.340  1.00  0.00     0.217 C 
ENDROOT
BRANCH   1   2
HETATM    2  C2  UNL     1      39.319  55.457  21.081  1.00  0.00     0.212 C 
HETATM    3  C1  UNL     1      38.104  56.322  20.829  1.00  0.00     0.042 C 
BRANCH   2   4
HETATM    4  N1  UNL     1      40.191  55.589  19.947  1.00  0.00    -0.073 N 
ATOM      5  H13 UNL     1      39.803  55.178  19.098  1.00  0.00     0.274 HD
ATOM      6  H12 UNL     1      40.260  56.550  19.610  1.00  0.00     0.274 HD
ATOM      7  H11 UNL     1      41.094  55.193  20.203  1.00  0.00     0.274 HD
ENDBRANCH   2   4
ENDBRANCH   1   2
BRANCH   1   8
HETATM    8  O1  UNL     1      39.373  56.976  22.944  1.00  0.00    -0.389 OA
ATOM      9  H1  UNL     1      39.978  57.646  23.240  1.00  0.00     0.210 HD
ENDBRANCH   1   8
BRANCH   1  10
HETATM   10  C4  UNL     1      40.274  54.788  23.291  1.00  0.00     0.370 A 
HETATM   11  C5  UNL     1      41.719  54.296  23.311  1.00  0.00     0.350 A 
HETATM   12  N3  UNL     1      41.137  54.988  24.442  1.00  0.00     0.130 N 
HETATM   13  C6  UNL     1      40.944  54.176  25.602  1.00  0.00     0.313 C 
BRANCH  10  14
HETATM   14  N2  UNL     1      39.270  53.767  23.331  1.00  0.00    -0.037 N 
ATOM     15  H23 UNL     1      38.572  54.004  24.037  1.00  0.00     0.277 HD
ATOM     16  H22 UNL     1      38.705  53.814  22.483  1.00  0.00     0.277 HD
ATOM     17  H21 UNL     1      39.584  52.808  23.475  1.00  0.00     0.277 HD
ENDBRANCH  10  14
ENDBRANCH   1  10
TORSDOF 5
ENDMDL
MODEL 2
REMARK VINA RESULT: -3.672384714      5.600      6.625
REMARK  5 active torsions:
REMARK  status: ('A' for Active; 'I' for Inactive)
REMARK    1  A    between atoms: C2_2  and  N1_3 
REMARK    2  A    between atoms: C2_2  and  C3_7 
REMARK    3  A    between atoms: C3_7  and  O1_8 
REMARK    4  A    between atoms: C3_7  and  C4_10 
REMARK    5  A    between atoms: C4_10  and  N2_11 
ROOT
HETATM    1  C3  UNL     1      42.441  53.155  16.778  1.00  0.00     0.217 C 
ENDROOT
BRANCH   1   2
HETATM    2  C2  UNL     1      41.155  52.540  16.206  1.00  0.00     0.212 C 
HETATM    3  C1  UNL     1      41.441  51.872  14.879  1.00  0.00     0.042 C 
BRANCH   2   4
HETATM    4  N1  UNL     1      40.676  51.530  17.108  1.00  0.00    -0.073 N 
ATOM      5  H13 UNL     1      41.198  50.657  17.039  1.00  0.00     0.274 HD
ATOM      6  H12 UNL     1      40.887  51.737  18.084  1.00  0.00     0.274 HD
ATOM      7  H11 UNL     1      39.678  51.410  16.935  1.00  0.00     0.274 HD
ENDBRANCH   2   4
ENDBRANCH   1   2
BRANCH   1   8
HETATM    8  O1  UNL     1      43.297  53.537  15.757  1.00  0.00    -0.389 OA
ATOM      9  H1  UNL     1      43.804  54.299  16.012  1.00  0.00     0.210 HD
ENDBRANCH   1   8
BRANCH   1  10
HETATM   10  C4  UNL     1      42.118  54.305  17.691  1.00  0.00     0.370 A 
HETATM   11  C5  UNL     1      42.512  54.042  19.142  1.00  0.00     0.350 A 
HETATM   12  N3  UNL     1      43.209  55.018  18.330  1.00  0.00     0.130 N 
HETATM   13  C6  UNL     1      43.009  56.376  18.730  1.00  0.00     0.313 C 
BRANCH  10  14
HETATM   14  N2  UNL     1      40.860  54.964  17.498  1.00  0.00    -0.037 N 
ATOM     15  H23 UNL     1      40.983  55.970  17.616  1.00  0.00     0.277 HD
ATOM     16  H22 UNL     1      40.601  54.918  16.513  1.00  0.00     0.277 HD
ATOM     17  H21 UNL     1      40.076  54.650  18.069  1.00  0.00     0.277 HD
ENDBRANCH  10  14
ENDBRANCH   1  10
TORSDOF 5
ENDMDL
MODEL 3
REMARK VINA RESULT: -3.585827305      6.402      7.119
REMARK  5 active torsions:
REMARK  status: ('A' for Active; 'I' for Inactive)
REMARK    1  A    between atoms: C2_2  and  N1_3 
REMARK    2  A    between atoms: C2_2  and  C3_7 
REMARK    3  A    between atoms: C3_7  and  O1_8 
REMARK    4  A    between atoms: C3_7  and  C4_10 
REMARK    5  A    between atoms: C4_10  and  N2_11 
ROOT
HETATM    1  C3  UNL     1      45.007  53.791  17.853  1.00  0.00     0.217 C 
ENDROOT
BRANCH   1   2
HETATM    2  C2  UNL     1      44.486  54.834  16.854  1.00  0.00     0.212 C 
HETATM    3  C1  UNL     1      45.365  54.863  15.624  1.00  0.00     0.042 C 
BRANCH   2   4
HETATM    4  N1  UNL     1      43.163  54.465  16.436  1.00  0.00    -0.073 N 
ATOM      5  H13 UNL     1      42.788  53.673  16.959  1.00  0.00     0.274 HD
ATOM      6  H12 UNL     1      42.456  55.150  16.705  1.00  0.00     0.274 HD
ATOM      7  H11 UNL     1      43.191  54.298  15.431  1.00  0.00     0.274 HD
ENDBRANCH   2   4
ENDBRANCH   1   2
BRANCH   1   8
HETATM    8  O1  UNL     1      46.077  53.092  17.317  1.00  0.00    -0.389 OA
ATOM      9  H1  UNL     1      46.521  53.612  16.658  1.00  0.00     0.210 HD
ENDBRANCH   1   8
BRANCH   1  10
HETATM   10  C4  UNL     1      45.369  54.442  19.160  1.00  0.00     0.370 A 
HETATM   11  C5  UNL     1      44.451  54.027  20.306  1.00  0.00     0.350 A 
HETATM   12  N3  UNL     1      45.836  53.608  20.252  1.00  0.00     0.130 N 
HETATM   13  C6  UNL     1      46.672  54.185  21.256  1.00  0.00     0.313 C 
BRANCH  10  14
HETATM   14  N2  UNL     1      45.732  55.828  19.125  1.00  0.00    -0.037 N 
ATOM     15  H23 UNL     1      46.703  55.917  18.825  1.00  0.00     0.277 HD
ATOM     16  H22 UNL     1      45.252  56.285  18.349  1.00  0.00     0.277 HD
ATOM     17  H21 UNL     1      45.591  56.370  19.977  1.00  0.00     0.277 HD
ENDBRANCH  10  14
ENDBRANCH   1  10
TORSDOF 5
ENDMDL
MODEL 4
REMARK VINA RESULT: -3.576969570      6.330      7.423
REMARK  5 active torsions:
REMARK  status: ('A' for Active; 'I' for Inactive)
REMARK    1  A    between atoms: C2_2  and  N1_3 
REMARK    2  A    between atoms: C2_2  and  C3_7 
REMARK    3  A    between atoms: C3_7  and  O1_8 
REMARK    4  A    between atoms: C3_7  and  C4_10 
REMARK    5  A    between atoms: C4_10  and  N2_11 
ROOT
HETATM    1  C3  UNL     1      43.663  54.967  17.047  1.00  0.00     0.217 C 
ENDROOT
BRANCH   1   2
HETATM    2  C2  UNL     1      44.680  54.652  18.152  1.00  0.00     0.212 C 
HETATM    3  C1  UNL     1      45.722  53.682  17.642  1.00  0.00     0.042 C 
BRANCH   2   4
HETATM    4  N1  UNL     1      45.357  55.863  18.526  1.00  0.00    -0.073 N 
ATOM      5  H13 UNL     1      46.314  55.701  18.841  1.00  0.00     0.274 HD
ATOM      6  H12 UNL     1      45.578  56.457  17.727  1.00  0.00     0.274 HD
ATOM      7  H11 UNL     1      44.784  56.334  19.225  1.00  0.00     0.274 HD
ENDBRANCH   2   4
ENDBRANCH   1   2
BRANCH   1   8
HETATM    8  O1  UNL     1      44.239  54.823  15.794  1.00  0.00    -0.389 OA
ATOM      9  H1  UNL     1      44.380  55.671  15.390  1.00  0.00     0.210 HD
ENDBRANCH   1   8
BRANCH   1  10
HETATM   10  C4  UNL     1      42.436  54.109  17.194  1.00  0.00     0.370 A 
HETATM   11  C5  UNL     1      41.261  54.600  16.352  1.00  0.00     0.350 A 
HETATM   12  N3  UNL     1      41.957  53.369  16.041  1.00  0.00     0.130 N 
HETATM   13  C6  UNL     1      41.189  52.182  16.250  1.00  0.00     0.313 C 
BRANCH  10  14
HETATM   14  N2  UNL     1      42.108  53.653  18.512  1.00  0.00    -0.037 N 
ATOM     15  H23 UNL     1      42.610  52.786  18.706  1.00  0.00     0.277 HD
ATOM     16  H22 UNL     1      42.532  54.276  19.201  1.00  0.00     0.277 HD
ATOM     17  H21 UNL     1      41.120  53.529  18.731  1.00  0.00     0.277 HD
ENDBRANCH  10  14
ENDBRANCH   1  10
TORSDOF 5
ENDMDL
MODEL 5
REMARK VINA RESULT: -3.560610440      6.337      7.173
REMARK  5 active torsions:
REMARK  status: ('A' for Active; 'I' for Inactive)
REMARK    1  A    between atoms: C2_2  and  N1_3 
REMARK    2  A    between atoms: C2_2  and  C3_7 
REMARK    3  A    between atoms: C3_7  and  O1_8 
REMARK    4  A    between atoms: C3_7  and  C4_10 
REMARK    5  A    between atoms: C4_10  and  N2_11 
ROOT
HETATM    1  C3  UNL     1      43.635  54.009  16.946  1.00  0.00     0.217 C 
ENDROOT
BRANCH   1   2
HETATM    2  C2  UNL     1      45.121  54.392  16.910  1.00  0.00     0.212 C 
HETATM    3  C1  UNL     1      45.502  54.875  15.528  1.00  0.00     0.042 C 
BRANCH   2   4
HETATM    4  N1  UNL     1      45.351  55.472  17.828  1.00  0.00    -0.073 N 
ATOM      5  H13 UNL     1      46.169  55.323  18.419  1.00  0.00     0.274 HD
ATOM      6  H12 UNL     1      45.672  56.323  17.367  1.00  0.00     0.274 HD
ATOM      7  H11 UNL     1      44.495  55.610  18.365  1.00  0.00     0.274 HD
ENDBRANCH   2   4
ENDBRANCH   1   2
BRANCH   1   8
HETATM    8  O1  UNL     1      43.196  53.626  15.688  1.00  0.00    -0.389 OA
ATOM      9  H1  UNL     1      43.409  54.289  15.042  1.00  0.00     0.210 HD
ENDBRANCH   1   8
BRANCH   1  10
HETATM   10  C4  UNL     1      43.387  52.936  17.970  1.00  0.00     0.370 A 
HETATM   11  C5  UNL     1      42.440  53.381  19.082  1.00  0.00     0.350 A 
HETATM   12  N3  UNL     1      42.049  52.389  18.102  1.00  0.00     0.130 N 
HETATM   13  C6  UNL     1      41.889  51.068  18.623  1.00  0.00     0.313 C 
BRANCH  10  14
HETATM   14  N2  UNL     1      44.514  52.156  18.389  1.00  0.00    -0.037 N 
ATOM     15  H23 UNL     1      45.354  52.493  17.917  1.00  0.00     0.277 HD
ATOM     16  H22 UNL     1      44.739  52.377  19.359  1.00  0.00     0.277 HD
ATOM     17  H21 UNL     1      44.448  51.144  18.279  1.00  0.00     0.277 HD
ENDBRANCH  10  14
ENDBRANCH   1  10
TORSDOF 5
ENDMDL
