MODEL 1
REMARK VINA RESULT: -5.273909203      0.000      0.000
REMARK  7 active torsions:
REMARK  status: ('A' for Active; 'I' for Inactive)
REMARK    1  A    between atoms: C2_2  and  C3_3 
REMARK    2  A    between atoms: C3_3  and  C4_5 
REMARK    3  A    between atoms: C4_5  and  C6_8 
REMARK       I    between atoms: C6_8  and  N2_10 
REMARK    4  A    between atoms: C7_11  and  C8_12 
REMARK    5  A    between atoms: C15_20  and  C16_21 
REMARK    6  A    between atoms: C16_21  and  N4_22 
REMARK    7  A    between atoms: C16_21  and  C17_26 
ROOT
HETATM    1  C4  UNL     1      11.476  44.307 106.452  1.00  0.00     0.254 C 
HETATM    2  C5  UNL     1      11.123  44.443 107.875  1.00  0.00     0.081 C 
HETATM    3  N1  UNL     1      10.826  44.563 108.988  1.00  0.00    -0.196 NA
ENDROOT
BRANCH   1   4
HETATM    4  C3  UNL     1      10.571  45.209 105.691  1.00  0.00     0.153 C 
HETATM    5  O1  UNL     1      10.000  44.793 104.710  1.00  0.00    -0.296 OA
BRANCH   4   6
HETATM    6  C2  UNL     1      10.368  46.599 106.125  1.00  0.00     0.076 C 
HETATM    7  C1  UNL     1       8.894  46.929 106.306  1.00  0.00     0.013 C 
ENDBRANCH   4   6
ENDBRANCH   1   4
BRANCH   1   8
HETATM    8  C6  UNL     1      12.891  44.545 106.220  1.00  0.00     0.250 C 
HETATM    9  O2  UNL     1      13.476  45.188 107.174  1.00  0.00    -0.271 OA
HETATM   10  N2  UNL     1      13.713  44.183 105.137  1.00  0.00    -0.301 N 
HETATM   11  C7  UNL     1      15.156  44.425 105.130  1.00  0.00     0.068 C 
HETATM   12  C15 UNL     1      13.433  43.486 103.885  1.00  0.00     0.155 C 
HETATM   13  N3  UNL     1      15.742  43.552 104.154  1.00  0.00    -0.266 NA
HETATM   14  C11 UNL     1      16.876  42.811 104.685  1.00  0.00     0.119 C 
HETATM   15  C12 UNL     1      14.682  42.627 103.743  1.00  0.00     0.034 C 
HETATM   16  C13 UNL     1      15.021  42.095 102.424  1.00  0.00     0.034 C 
HETATM   17  C14 UNL     1      14.633  41.489 104.741  1.00  0.00     0.034 C 
BRANCH  11  18
HETATM   18  C8  UNL     1      15.639  45.794 105.227  1.00  0.00     0.040 C 
HETATM   19  C9  UNL     1      16.038  46.068 106.701  1.00  0.00     0.017 C 
HETATM   20  C10 UNL     1      16.789  46.260 104.432  1.00  0.00     0.017 C 
ENDBRANCH  11  18
BRANCH  12  21
HETATM   21  C16 UNL     1      13.102  44.257 102.691  1.00  0.00     0.296 C 
BRANCH  21  22
HETATM   22  N4  UNL     1      11.656  44.021 102.439  1.00  0.00    -0.065 N 
ATOM     23  H43 UNL     1      11.392  44.125 101.459  1.00  0.00     0.275 HD
ATOM     24  H42 UNL     1      11.379  43.045 102.538  1.00  0.00     0.275 HD
ATOM     25  H41 UNL     1      11.155  44.652 103.065  1.00  0.00     0.275 HD
ENDBRANCH  21  22
BRANCH  21  26
HETATM   26  C17 UNL     1      13.324  45.699 102.819  1.00  0.00     0.264 C 
HETATM   27  N5  UNL     1      14.438  46.290 102.108  1.00  0.00    -0.060 NA
HETATM   28  O3  UNL     1      12.660  46.516 103.483  1.00  0.00    -0.274 OA
ENDBRANCH  21  26
ENDBRANCH  12  21
ENDBRANCH   1   8
TORSDOF 7
ENDMDL
MODEL 2
REMARK VINA RESULT: -5.225228160      1.943      3.563
REMARK  7 active torsions:
REMARK  status: ('A' for Active; 'I' for Inactive)
REMARK    1  A    between atoms: C2_2  and  C3_3 
REMARK    2  A    between atoms: C3_3  and  C4_5 
REMARK    3  A    between atoms: C4_5  and  C6_8 
REMARK       I    between atoms: C6_8  and  N2_10 
REMARK    4  A    between atoms: C7_11  and  C8_12 
REMARK    5  A    between atoms: C15_20  and  C16_21 
REMARK    6  A    between atoms: C16_21  and  N4_22 
REMARK    7  A    between atoms: C16_21  and  C17_26 
ROOT
HETATM    1  C4  UNL     1      11.858  45.368 107.003  1.00  0.00     0.254 C 
HETATM    2  C5  UNL     1      11.316  46.441 106.151  1.00  0.00     0.081 C 
HETATM    3  N1  UNL     1      10.867  47.280 105.492  1.00  0.00    -0.196 NA
ENDROOT
BRANCH   1   4
HETATM    4  C3  UNL     1      10.702  44.720 107.676  1.00  0.00     0.153 C 
HETATM    5  O1  UNL     1       9.653  44.608 107.085  1.00  0.00    -0.296 OA
BRANCH   4   6
HETATM    6  C2  UNL     1      10.827  44.217 109.052  1.00  0.00     0.076 C 
HETATM    7  C1  UNL     1       9.639  44.615 109.914  1.00  0.00     0.013 C 
ENDBRANCH   4   6
ENDBRANCH   1   4
BRANCH   1   8
HETATM    8  C6  UNL     1      12.702  44.454 106.250  1.00  0.00     0.250 C 
HETATM    9  O2  UNL     1      12.604  43.223 106.624  1.00  0.00    -0.271 OA
HETATM   10  N2  UNL     1      13.591  44.698 105.188  1.00  0.00    -0.301 N 
HETATM   11  C7  UNL     1      14.286  43.620 104.482  1.00  0.00     0.068 C 
HETATM   12  C15 UNL     1      13.992  45.925 104.506  1.00  0.00     0.155 C 
HETATM   13  N3  UNL     1      14.714  44.134 103.212  1.00  0.00    -0.266 NA
HETATM   14  C11 UNL     1      14.337  43.265 102.108  1.00  0.00     0.119 C 
HETATM   15  C12 UNL     1      14.077  45.446 103.065  1.00  0.00     0.034 C 
HETATM   16  C13 UNL     1      14.856  46.230 102.108  1.00  0.00     0.034 C 
HETATM   17  C14 UNL     1      12.682  45.235 102.515  1.00  0.00     0.034 C 
BRANCH  11  18
HETATM   18  C8  UNL     1      15.187  42.756 105.229  1.00  0.00     0.040 C 
HETATM   19  C9  UNL     1      14.653  41.301 105.140  1.00  0.00     0.017 C 
HETATM   20  C10 UNL     1      16.616  42.656 104.885  1.00  0.00     0.017 C 
ENDBRANCH  11  18
BRANCH  12  21
HETATM   21  C16 UNL     1      15.173  46.650 104.963  1.00  0.00     0.296 C 
BRANCH  21  22
HETATM   22  N4  UNL     1      14.990  48.056 104.517  1.00  0.00    -0.065 N 
ATOM     23  H43 UNL     1      14.315  48.576 105.078  1.00  0.00     0.275 HD
ATOM     24  H42 UNL     1      15.795  48.652 104.710  1.00  0.00     0.275 HD
ATOM     25  H41 UNL     1      14.748  48.008 103.527  1.00  0.00     0.275 HD
ENDBRANCH  21  22
BRANCH  21  26
HETATM   26  C17 UNL     1      15.365  46.643 106.415  1.00  0.00     0.264 C 
HETATM   27  N5  UNL     1      14.622  47.596 107.213  1.00  0.00    -0.060 NA
HETATM   28  O3  UNL     1      16.110  45.900 107.082  1.00  0.00    -0.274 OA
ENDBRANCH  21  26
ENDBRANCH  12  21
ENDBRANCH   1   8
TORSDOF 7
ENDMDL
MODEL 3
REMARK VINA RESULT: -4.978645577      2.975      5.325
REMARK  7 active torsions:
REMARK  status: ('A' for Active; 'I' for Inactive)
REMARK    1  A    between atoms: C2_2  and  C3_3 
REMARK    2  A    between atoms: C3_3  and  C4_5 
REMARK    3  A    between atoms: C4_5  and  C6_8 
REMARK       I    between atoms: C6_8  and  N2_10 
REMARK    4  A    between atoms: C7_11  and  C8_12 
REMARK    5  A    between atoms: C15_20  and  C16_21 
REMARK    6  A    between atoms: C16_21  and  N4_22 
REMARK    7  A    between atoms: C16_21  and  C17_26 
ROOT
HETATM    1  C4  UNL     1      14.413  49.151 104.279  1.00  0.00     0.254 C 
HETATM    2  C5  UNL     1      15.341  48.626 103.261  1.00  0.00     0.081 C 
HETATM    3  N1  UNL     1      16.067  48.236 102.449  1.00  0.00    -0.196 NA
ENDROOT
BRANCH   1   4
HETATM    4  C3  UNL     1      13.858  50.423 103.747  1.00  0.00     0.153 C 
HETATM    5  O1  UNL     1      12.710  50.718 103.985  1.00  0.00    -0.296 OA
BRANCH   4   6
HETATM    6  C2  UNL     1      14.694  51.320 102.936  1.00  0.00     0.076 C 
HETATM    7  C1  UNL     1      14.105  52.720 102.847  1.00  0.00     0.013 C 
ENDBRANCH   4   6
ENDBRANCH   1   4
BRANCH   1   8
HETATM    8  C6  UNL     1      13.409  48.169 104.652  1.00  0.00     0.250 C 
HETATM    9  O2  UNL     1      12.319  48.684 105.110  1.00  0.00    -0.271 OA
HETATM   10  N2  UNL     1      13.437  46.764 104.587  1.00  0.00    -0.301 N 
HETATM   11  C7  UNL     1      12.275  45.938 104.919  1.00  0.00     0.068 C 
HETATM   12  C15 UNL     1      14.469  45.822 104.161  1.00  0.00     0.155 C 
HETATM   13  N3  UNL     1      12.467  44.649 104.318  1.00  0.00    -0.266 NA
HETATM   14  C11 UNL     1      11.307  44.216 103.555  1.00  0.00     0.119 C 
HETATM   15  C12 UNL     1      13.632  44.778 103.437  1.00  0.00     0.034 C 
HETATM   16  C13 UNL     1      14.198  43.447 103.226  1.00  0.00     0.034 C 
HETATM   17  C14 UNL     1      13.162  45.335 102.109  1.00  0.00     0.034 C 
BRANCH  11  18
HETATM   18  C8  UNL     1      11.723  46.010 106.263  1.00  0.00     0.040 C 
HETATM   19  C9  UNL     1      10.183  46.164 106.150  1.00  0.00     0.017 C 
HETATM   20  C10 UNL     1      11.922  44.919 107.234  1.00  0.00     0.017 C 
ENDBRANCH  11  18
BRANCH  12  21
HETATM   21  C16 UNL     1      15.389  45.267 105.149  1.00  0.00     0.296 C 
BRANCH  21  22
HETATM   22  N4  UNL     1      16.585  44.817 104.389  1.00  0.00    -0.065 N 
ATOM     23  H43 UNL     1      16.461  43.913 103.933  1.00  0.00     0.275 HD
ATOM     24  H42 UNL     1      16.756  45.359 103.543  1.00  0.00     0.275 HD
ATOM     25  H41 UNL     1      17.362  44.837 105.049  1.00  0.00     0.275 HD
ENDBRANCH  21  22
BRANCH  21  26
HETATM   26  C17 UNL     1      15.821  46.217 106.177  1.00  0.00     0.264 C 
HETATM   27  N5  UNL     1      16.890  47.139 105.857  1.00  0.00    -0.060 NA
HETATM   28  O3  UNL     1      15.376  46.343 107.333  1.00  0.00    -0.274 OA
ENDBRANCH  21  26
ENDBRANCH  12  21
ENDBRANCH   1   8
TORSDOF 7
ENDMDL
MODEL 4
REMARK VINA RESULT: -4.956597449      1.828      2.881
REMARK  7 active torsions:
REMARK  status: ('A' for Active; 'I' for Inactive)
REMARK    1  A    between atoms: C2_2  and  C3_3 
REMARK    2  A    between atoms: C3_3  and  C4_5 
REMARK    3  A    between atoms: C4_5  and  C6_8 
REMARK       I    between atoms: C6_8  and  N2_10 
REMARK    4  A    between atoms: C7_11  and  C8_12 
REMARK    5  A    between atoms: C15_20  and  C16_21 
REMARK    6  A    between atoms: C16_21  and  N4_22 
REMARK    7  A    between atoms: C16_21  and  C17_26 
ROOT
HETATM    1  C4  UNL     1      11.501  44.849 105.776  1.00  0.00     0.254 C 
HETATM    2  C5  UNL     1      11.347  44.699 107.233  1.00  0.00     0.081 C 
HETATM    3  N1  UNL     1      11.201  44.580 108.376  1.00  0.00    -0.196 NA
ENDROOT
BRANCH   1   4
HETATM    4  C3  UNL     1      10.135  44.977 105.205  1.00  0.00     0.153 C 
HETATM    5  O1  UNL     1       9.957  44.758 104.029  1.00  0.00    -0.296 OA
BRANCH   4   6
HETATM    6  C2  UNL     1       9.004  45.368 106.058  1.00  0.00     0.076 C 
HETATM    7  C1  UNL     1       8.255  46.567 105.498  1.00  0.00     0.013 C 
ENDBRANCH   4   6
ENDBRANCH   1   4
BRANCH   1   8
HETATM    8  C6  UNL     1      12.397  45.942 105.437  1.00  0.00     0.250 C 
HETATM    9  O2  UNL     1      11.846  47.107 105.494  1.00  0.00    -0.271 OA
HETATM   10  N2  UNL     1      13.755  45.929 105.068  1.00  0.00    -0.301 N 
HETATM   11  C7  UNL     1      14.525  47.157 104.859  1.00  0.00     0.068 C 
HETATM   12  C15 UNL     1      14.707  44.840 104.872  1.00  0.00     0.155 C 
HETATM   13  N3  UNL     1      15.916  46.824 104.964  1.00  0.00    -0.266 NA
HETATM   14  C11 UNL     1      16.631  47.713 105.866  1.00  0.00     0.119 C 
HETATM   15  C12 UNL     1      15.972  45.446 105.462  1.00  0.00     0.034 C 
HETATM   16  C13 UNL     1      17.265  44.875 105.090  1.00  0.00     0.034 C 
HETATM   17  C14 UNL     1      15.860  45.484 106.972  1.00  0.00     0.034 C 
BRANCH  11  18
HETATM   18  C8  UNL     1      14.101  48.084 103.821  1.00  0.00     0.040 C 
HETATM   19  C9  UNL     1      13.678  49.415 104.498  1.00  0.00     0.017 C 
HETATM   20  C10 UNL     1      15.010  48.487 102.734  1.00  0.00     0.017 C 
ENDBRANCH  11  18
BRANCH  12  21
HETATM   21  C16 UNL     1      14.886  44.272 103.539  1.00  0.00     0.296 C 
BRANCH  21  22
HETATM   22  N4  UNL     1      15.288  42.855 103.748  1.00  0.00    -0.065 N 
ATOM     23  H43 UNL     1      16.283  42.738 103.940  1.00  0.00     0.275 HD
ATOM     24  H42 UNL     1      14.946  42.460 104.624  1.00  0.00     0.275 HD
ATOM     25  H41 UNL     1      14.970  42.348 102.922  1.00  0.00     0.275 HD
ENDBRANCH  21  22
BRANCH  21  26
HETATM   26  C17 UNL     1      13.684  44.296 102.703  1.00  0.00     0.264 C 
HETATM   27  N5  UNL     1      12.957  43.059 102.504  1.00  0.00    -0.060 NA
HETATM   28  O3  UNL     1      13.183  45.274 102.117  1.00  0.00    -0.274 OA
ENDBRANCH  21  26
ENDBRANCH  12  21
ENDBRANCH   1   8
TORSDOF 7
ENDMDL
MODEL 5
REMARK VINA RESULT: -4.921462762      2.166      5.299
REMARK  7 active torsions:
REMARK  status: ('A' for Active; 'I' for Inactive)
REMARK    1  A    between atoms: C2_2  and  C3_3 
REMARK    2  A    between atoms: C3_3  and  C4_5 
REMARK    3  A    between atoms: C4_5  and  C6_8 
REMARK       I    between atoms: C6_8  and  N2_10 
REMARK    4  A    between atoms: C7_11  and  C8_12 
REMARK    5  A    between atoms: C15_20  and  C16_21 
REMARK    6  A    between atoms: C16_21  and  N4_22 
REMARK    7  A    between atoms: C16_21  and  C17_26 
ROOT
HETATM    1  C4  UNL     1      13.842  47.510 104.844  1.00  0.00     0.254 C 
HETATM    2  C5  UNL     1      13.246  48.848 104.695  1.00  0.00     0.081 C 
HETATM    3  N1  UNL     1      12.800  49.911 104.577  1.00  0.00    -0.196 NA
ENDROOT
BRANCH   1   4
HETATM    4  C3  UNL     1      15.303  47.702 105.037  1.00  0.00     0.153 C 
HETATM    5  O1  UNL     1      15.747  48.821 105.153  1.00  0.00    -0.296 OA
BRANCH   4   6
HETATM    6  C2  UNL     1      16.208  46.544 105.087  1.00  0.00     0.076 C 
HETATM    7  C1  UNL     1      16.160  45.730 103.803  1.00  0.00     0.013 C 
ENDBRANCH   4   6
ENDBRANCH   1   4
BRANCH   1   8
HETATM    8  C6  UNL     1      13.195  46.744 105.897  1.00  0.00     0.250 C 
HETATM    9  O2  UNL     1      13.805  46.796 107.032  1.00  0.00    -0.271 OA
HETATM   10  N2  UNL     1      12.020  45.970 105.873  1.00  0.00    -0.301 N 
HETATM   11  C7  UNL     1      11.465  45.346 107.076  1.00  0.00     0.068 C 
HETATM   12  C15 UNL     1      11.080  45.648 104.804  1.00  0.00     0.155 C 
HETATM   13  N3  UNL     1      10.084  45.054 106.819  1.00  0.00    -0.266 NA
HETATM   14  C11 UNL     1       9.211  45.539 107.877  1.00  0.00     0.119 C 
HETATM   15  C12 UNL     1       9.755  45.710 105.550  1.00  0.00     0.034 C 
HETATM   16  C13 UNL     1       8.592  45.038 104.973  1.00  0.00     0.034 C 
HETATM   17  C14 UNL     1       9.402  47.154 105.841  1.00  0.00     0.034 C 
BRANCH  11  18
HETATM   18  C8  UNL     1      12.268  44.369 107.795  1.00  0.00     0.040 C 
HETATM   19  C9  UNL     1      11.343  43.612 108.785  1.00  0.00     0.017 C 
HETATM   20  C10 UNL     1      13.007  43.310 107.084  1.00  0.00     0.017 C 
ENDBRANCH  11  18
BRANCH  12  21
HETATM   21  C16 UNL     1      11.267  44.429 104.023  1.00  0.00     0.296 C 
BRANCH  21  22
HETATM   22  N4  UNL     1      10.115  44.362 103.085  1.00  0.00    -0.065 N 
ATOM     23  H43 UNL     1       9.703  43.432 103.012  1.00  0.00     0.275 HD
ATOM     24  H42 UNL     1       9.282  44.839 103.429  1.00  0.00     0.275 HD
ATOM     25  H41 UNL     1      10.455  44.728 102.196  1.00  0.00     0.275 HD
ENDBRANCH  21  22
BRANCH  21  26
HETATM   26  C17 UNL     1      12.506  44.393 103.243  1.00  0.00     0.264 C 
HETATM   27  N5  UNL     1      13.408  43.277 103.434  1.00  0.00    -0.060 NA
HETATM   28  O3  UNL     1      12.904  45.224 102.406  1.00  0.00    -0.274 OA
ENDBRANCH  21  26
ENDBRANCH  12  21
ENDBRANCH   1   8
TORSDOF 7
ENDMDL
