MODEL 1
REMARK VINA RESULT: -6.686440413      0.000      0.000
REMARK  5 active torsions:
REMARK  status: ('A' for Active; 'I' for Inactive)
REMARK    1  A    between atoms: N1_1  and  C1_4 
REMARK    2  A    between atoms: C2_9  and  C3_10 
REMARK    3  A    between atoms: C3_10  and  C4_11 
REMARK    4  A    between atoms: C4_11  and  C5_12 
REMARK    5  A    between atoms: C6_17  and  N6_18 
ROOT
HETATM    1  C5  UNL     1      10.107   0.194  -3.693  1.00  0.00     0.092 A 
HETATM    2  N4  UNL     1      11.134   0.755  -3.065  1.00  0.00    -0.292 N 
ATOM      3  H4  UNL     1      11.775   1.360  -3.579  1.00  0.00     0.187 HD
HETATM    4  N5  UNL     1      11.321   0.542  -1.836  1.00  0.00    -0.279 N 
ATOM      5  H5  UNL     1      12.111   0.975  -1.357  1.00  0.00     0.189 HD
HETATM    6  C6  UNL     1      10.488  -0.244  -1.163  1.00  0.00     0.163 A 
HETATM    7  S1  UNL     1       9.390  -0.686  -2.395  1.00  0.00    -0.034 SA
ENDROOT
BRANCH   1   8
HETATM    8  C4  UNL     1       9.699   0.296  -5.099  1.00  0.00     0.041 C 
BRANCH   8   9
HETATM    9  C3  UNL     1      10.585   0.729  -5.943  1.00  0.00     0.041 C 
BRANCH   9  10
HETATM   10  C2  UNL     1      10.976  -0.187  -7.042  1.00  0.00     0.092 A 
HETATM   11  N3  UNL     1      12.111  -0.847  -7.204  1.00  0.00    -0.292 N 
HETATM   12  N2  UNL     1      12.279  -1.596  -8.215  1.00  0.00    -0.279 N 
ATOM     13  H3  UNL     1      12.856  -0.752  -6.513  1.00  0.00     0.187 HD
HETATM   14  C1  UNL     1      11.283  -1.697  -9.107  1.00  0.00     0.159 A 
ATOM     15  H2  UNL     1      13.151  -2.108  -8.347  1.00  0.00     0.189 HD
HETATM   16  S2  UNL     1      10.099  -0.672  -8.426  1.00  0.00    -0.034 SA
BRANCH  14  17
HETATM   17  N1  UNL     1      11.267  -2.415 -10.208  1.00  0.00    -0.379 N 
ATOM     18  H12 UNL     1      11.546  -3.381 -10.378  1.00  0.00     0.158 HD
ATOM     19  H11 UNL     1      10.959  -2.121 -11.134  1.00  0.00     0.158 HD
ENDBRANCH  14  17
ENDBRANCH   9  10
ENDBRANCH   8   9
ENDBRANCH   1   8
BRANCH   6  20
HETATM   20  N6  UNL     1      10.546  -0.590   0.216  1.00  0.00    -0.357 N 
HETATM   21  C7  UNL     1       9.639  -0.005   1.162  1.00  0.00     0.144 C 
HETATM   22  C8  UNL     1      10.344   0.094   2.491  1.00  0.00     0.133 C 
HETATM   23  N7  UNL     1      10.789  -1.161   3.006  1.00  0.00    -0.418 N 
HETATM   24  C9  UNL     1      11.144  -2.131   2.021  1.00  0.00     0.133 C 
ATOM     25  H7  UNL     1      10.849  -1.350   4.007  1.00  0.00     0.153 HD
HETATM   26  C10 UNL     1      11.527  -1.540   0.688  1.00  0.00     0.144 C 
ENDBRANCH   6  20
TORSDOF 5
ENDMDL
MODEL 2
REMARK VINA RESULT: -6.612433922      2.039      8.871
REMARK  5 active torsions:
REMARK  status: ('A' for Active; 'I' for Inactive)
REMARK    1  A    between atoms: N1_1  and  C1_4 
REMARK    2  A    between atoms: C2_9  and  C3_10 
REMARK    3  A    between atoms: C3_10  and  C4_11 
REMARK    4  A    between atoms: C4_11  and  C5_12 
REMARK    5  A    between atoms: C6_17  and  N6_18 
ROOT
HETATM    1  C5  UNL     1      10.833   0.053  -6.544  1.00  0.00     0.092 A 
HETATM    2  N4  UNL     1      12.070  -0.424  -6.460  1.00  0.00    -0.292 N 
ATOM      3  H4  UNL     1      12.598  -0.316  -5.594  1.00  0.00     0.187 HD
HETATM    4  N5  UNL     1      12.593  -1.011  -7.446  1.00  0.00    -0.279 N 
ATOM      5  H5  UNL     1      13.544  -1.376  -7.377  1.00  0.00     0.189 HD
HETATM    6  C6  UNL     1      11.907  -1.154  -8.575  1.00  0.00     0.163 A 
HETATM    7  S1  UNL     1      10.436  -0.393  -8.161  1.00  0.00    -0.034 SA
ENDROOT
BRANCH   1   8
HETATM    8  C4  UNL     1      10.032   0.761  -5.539  1.00  0.00     0.041 C 
BRANCH   8   9
HETATM    9  C3  UNL     1       9.743   0.117  -4.449  1.00  0.00     0.041 C 
BRANCH   9  10
HETATM   10  C2  UNL     1      10.536   0.446  -3.240  1.00  0.00     0.092 A 
HETATM   11  N3  UNL     1      11.721   1.028  -3.161  1.00  0.00    -0.292 N 
HETATM   12  N2  UNL     1      12.260   1.235  -2.030  1.00  0.00    -0.279 N 
ATOM     13  H3  UNL     1      12.205   1.313  -4.013  1.00  0.00     0.187 HD
HETATM   14  C1  UNL     1      11.601   0.847  -0.929  1.00  0.00     0.159 A 
ATOM     15  H2  UNL     1      13.173   1.685  -1.961  1.00  0.00     0.189 HD
HETATM   16  S2  UNL     1      10.177   0.178  -1.591  1.00  0.00    -0.034 SA
BRANCH  14  17
HETATM   17  N1  UNL     1      11.991   0.972   0.320  1.00  0.00    -0.379 N 
ATOM     18  H12 UNL     1      12.542   1.699   0.777  1.00  0.00     0.158 HD
ATOM     19  H11 UNL     1      11.805   0.334   1.094  1.00  0.00     0.158 HD
ENDBRANCH  14  17
ENDBRANCH   9  10
ENDBRANCH   8   9
ENDBRANCH   1   8
BRANCH   6  20
HETATM   20  N6  UNL     1      12.338  -1.784  -9.776  1.00  0.00    -0.357 N 
HETATM   21  C7  UNL     1      11.464  -2.659 -10.505  1.00  0.00     0.144 C 
HETATM   22  C8  UNL     1      12.308  -3.707 -11.184  1.00  0.00     0.133 C 
HETATM   23  N7  UNL     1      13.275  -3.177 -12.090  1.00  0.00    -0.418 N 
HETATM   24  C9  UNL     1      13.785  -1.888 -11.749  1.00  0.00     0.133 C 
ATOM     25  H7  UNL     1      13.581  -3.683 -12.921  1.00  0.00     0.153 HD
HETATM   26  C10 UNL     1      13.671  -1.552 -10.283  1.00  0.00     0.144 C 
ENDBRANCH   6  20
TORSDOF 5
ENDMDL
MODEL 3
REMARK VINA RESULT: -6.610718085      0.118      1.126
REMARK  5 active torsions:
REMARK  status: ('A' for Active; 'I' for Inactive)
REMARK    1  A    between atoms: N1_1  and  C1_4 
REMARK    2  A    between atoms: C2_9  and  C3_10 
REMARK    3  A    between atoms: C3_10  and  C4_11 
REMARK    4  A    between atoms: C4_11  and  C5_12 
REMARK    5  A    between atoms: C6_17  and  N6_18 
ROOT
HETATM    1  C5  UNL     1      10.135   0.200  -3.654  1.00  0.00     0.092 A 
HETATM    2  N4  UNL     1      11.192   0.759  -3.076  1.00  0.00    -0.292 N 
ATOM      3  H4  UNL     1      11.821   1.345  -3.625  1.00  0.00     0.187 HD
HETATM    4  N5  UNL     1      11.422   0.567  -1.851  1.00  0.00    -0.279 N 
ATOM      5  H5  UNL     1      12.235   0.997  -1.410  1.00  0.00     0.189 HD
HETATM    6  C6  UNL     1      10.604  -0.196  -1.133  1.00  0.00     0.163 A 
HETATM    7  S1  UNL     1       9.456  -0.645  -2.315  1.00  0.00    -0.034 SA
ENDROOT
BRANCH   1   8
HETATM    8  C4  UNL     1       9.676   0.283  -5.046  1.00  0.00     0.041 C 
BRANCH   8   9
HETATM    9  C3  UNL     1      10.512   0.754  -5.919  1.00  0.00     0.041 C 
BRANCH   9  10
HETATM   10  C2  UNL     1      10.937  -0.157  -7.010  1.00  0.00     0.092 A 
HETATM   11  N3  UNL     1      12.090  -0.791  -7.156  1.00  0.00    -0.292 N 
HETATM   12  N2  UNL     1      12.287  -1.540  -8.161  1.00  0.00    -0.279 N 
ATOM     13  H3  UNL     1      12.824  -0.676  -6.456  1.00  0.00     0.187 HD
HETATM   14  C1  UNL     1      11.303  -1.668  -9.064  1.00  0.00     0.159 A 
ATOM     15  H2  UNL     1      13.172  -2.033  -8.280  1.00  0.00     0.189 HD
HETATM   16  S2  UNL     1      10.088  -0.669  -8.401  1.00  0.00    -0.034 SA
BRANCH  14  17
HETATM   17  N1  UNL     1      11.317  -2.391 -10.161  1.00  0.00    -0.379 N 
ATOM     18  H12 UNL     1      11.023  -3.354 -10.330  1.00  0.00     0.158 HD
ATOM     19  H11 UNL     1      11.639  -2.107 -11.086  1.00  0.00     0.158 HD
ENDBRANCH  14  17
ENDBRANCH   9  10
ENDBRANCH   8   9
ENDBRANCH   1   8
BRANCH   6  20
HETATM   20  N6  UNL     1      10.710  -0.517   0.250  1.00  0.00    -0.357 N 
HETATM   21  C7  UNL     1      11.646  -1.504   0.708  1.00  0.00     0.144 C 
HETATM   22  C8  UNL     1      11.064  -2.171   1.929  1.00  0.00     0.133 C 
HETATM   23  N7  UNL     1      10.789  -1.274   3.004  1.00  0.00    -0.418 N 
HETATM   24  C9  UNL     1      10.433   0.052   2.615  1.00  0.00     0.133 C 
ATOM     25  H7  UNL     1      10.843  -1.561   3.982  1.00  0.00     0.153 HD
HETATM   26  C10 UNL     1       9.872   0.151   1.219  1.00  0.00     0.144 C 
ENDBRANCH   6  20
TORSDOF 5
ENDMDL
MODEL 4
REMARK VINA RESULT: -6.597253714      2.042      8.876
REMARK  5 active torsions:
REMARK  status: ('A' for Active; 'I' for Inactive)
REMARK    1  A    between atoms: N1_1  and  C1_4 
REMARK    2  A    between atoms: C2_9  and  C3_10 
REMARK    3  A    between atoms: C3_10  and  C4_11 
REMARK    4  A    between atoms: C4_11  and  C5_12 
REMARK    5  A    between atoms: C6_17  and  N6_18 
ROOT
HETATM    1  C5  UNL     1      10.828   0.057  -6.533  1.00  0.00     0.092 A 
HETATM    2  N4  UNL     1      12.060  -0.428  -6.433  1.00  0.00    -0.292 N 
ATOM      3  H4  UNL     1      12.581  -0.317  -5.563  1.00  0.00     0.187 HD
HETATM    4  N5  UNL     1      12.589  -1.025  -7.410  1.00  0.00    -0.279 N 
ATOM      5  H5  UNL     1      13.536  -1.396  -7.330  1.00  0.00     0.189 HD
HETATM    6  C6  UNL     1      11.913  -1.171  -8.545  1.00  0.00     0.163 A 
HETATM    7  S1  UNL     1      10.443  -0.397  -8.150  1.00  0.00    -0.034 SA
ENDROOT
BRANCH   1   8
HETATM    8  C4  UNL     1      10.022   0.778  -5.540  1.00  0.00     0.041 C 
BRANCH   8   9
HETATM    9  C3  UNL     1       9.721   0.145  -4.447  1.00  0.00     0.041 C 
BRANCH   9  10
HETATM   10  C2  UNL     1      10.523   0.461  -3.240  1.00  0.00     0.092 A 
HETATM   11  N3  UNL     1      11.718   1.024  -3.165  1.00  0.00    -0.292 N 
HETATM   12  N2  UNL     1      12.264   1.222  -2.036  1.00  0.00    -0.279 N 
ATOM     13  H3  UNL     1      12.204   1.300  -4.019  1.00  0.00     0.187 HD
HETATM   14  C1  UNL     1      11.601   0.847  -0.933  1.00  0.00     0.159 A 
ATOM     15  H2  UNL     1      13.184   1.657  -1.970  1.00  0.00     0.189 HD
HETATM   16  S2  UNL     1      10.164   0.202  -1.590  1.00  0.00    -0.034 SA
BRANCH  14  17
HETATM   17  N1  UNL     1      11.997   0.967   0.315  1.00  0.00    -0.379 N 
ATOM     18  H12 UNL     1      12.932   1.045   0.714  1.00  0.00     0.158 HD
ATOM     19  H11 UNL     1      11.411   1.005   1.149  1.00  0.00     0.158 HD
ENDBRANCH  14  17
ENDBRANCH   9  10
ENDBRANCH   8   9
ENDBRANCH   1   8
BRANCH   6  20
HETATM   20  N6  UNL     1      12.351  -1.812  -9.737  1.00  0.00    -0.357 N 
HETATM   21  C7  UNL     1      13.697  -1.649 -10.210  1.00  0.00     0.144 C 
HETATM   22  C8  UNL     1      13.678  -1.732 -11.716  1.00  0.00     0.133 C 
HETATM   23  N7  UNL     1      13.166  -2.964 -12.223  1.00  0.00    -0.418 N 
HETATM   24  C9  UNL     1      12.173  -3.590 -11.410  1.00  0.00     0.133 C 
ATOM     25  H7  UNL     1      13.485  -3.367 -13.104  1.00  0.00     0.153 HD
HETATM   26  C10 UNL     1      11.443  -2.642 -10.495  1.00  0.00     0.144 C 
ENDBRANCH   6  20
TORSDOF 5
ENDMDL
MODEL 5
REMARK VINA RESULT: -6.406782360      1.561      1.877
REMARK  5 active torsions:
REMARK  status: ('A' for Active; 'I' for Inactive)
REMARK    1  A    between atoms: N1_1  and  C1_4 
REMARK    2  A    between atoms: C2_9  and  C3_10 
REMARK    3  A    between atoms: C3_10  and  C4_11 
REMARK    4  A    between atoms: C4_11  and  C5_12 
REMARK    5  A    between atoms: C6_17  and  N6_18 
ROOT
HETATM    1  C5  UNL     1      10.042   0.329  -4.477  1.00  0.00     0.092 A 
HETATM    2  N4  UNL     1       9.012   0.010  -3.702  1.00  0.00    -0.292 N 
ATOM      3  H4  UNL     1       8.103  -0.188  -4.121  1.00  0.00     0.187 HD
HETATM    4  N5  UNL     1       9.153  -0.050  -2.450  1.00  0.00    -0.279 N 
ATOM      5  H5  UNL     1       8.358  -0.295  -1.858  1.00  0.00     0.189 HD
HETATM    6  C6  UNL     1      10.335   0.206  -1.901  1.00  0.00     0.163 A 
HETATM    7  S1  UNL     1      11.271   0.547  -3.289  1.00  0.00    -0.034 SA
ENDROOT
BRANCH   1   8
HETATM    8  C4  UNL     1      10.112   0.457  -5.937  1.00  0.00     0.041 C 
BRANCH   8   9
HETATM    9  C3  UNL     1      11.155  -0.041  -6.528  1.00  0.00     0.041 C 
BRANCH   9  10
HETATM   10  C2  UNL     1      11.047  -0.304  -7.983  1.00  0.00     0.092 A 
HETATM   11  N3  UNL     1      11.886   0.033  -8.949  1.00  0.00    -0.292 N 
HETATM   12  N2  UNL     1      11.634  -0.276 -10.154  1.00  0.00    -0.279 N 
ATOM     13  H3  UNL     1      12.740   0.545  -8.724  1.00  0.00     0.187 HD
HETATM   14  C1  UNL     1      10.503  -0.946 -10.418  1.00  0.00     0.159 A 
ATOM     15  H2  UNL     1      12.277  -0.021 -10.904  1.00  0.00     0.189 HD
HETATM   16  S2  UNL     1       9.824  -1.112  -8.861  1.00  0.00    -0.034 SA
BRANCH  14  17
HETATM   17  N1  UNL     1      10.071  -1.352 -11.591  1.00  0.00    -0.379 N 
ATOM     18  H12 UNL     1       9.688  -0.828 -12.379  1.00  0.00     0.158 HD
ATOM     19  H11 UNL     1      10.039  -2.308 -11.942  1.00  0.00     0.158 HD
ENDBRANCH  14  17
ENDBRANCH   9  10
ENDBRANCH   8   9
ENDBRANCH   1   8
BRANCH   6  20
HETATM   20  N6  UNL     1      10.671   0.185  -0.519  1.00  0.00    -0.357 N 
HETATM   21  C7  UNL     1      11.963   0.619  -0.067  1.00  0.00     0.144 C 
HETATM   22  C8  UNL     1      12.320  -0.174   1.165  1.00  0.00     0.133 C 
HETATM   23  N7  UNL     1      11.391  -0.027   2.239  1.00  0.00    -0.418 N 
HETATM   24  C9  UNL     1      10.039   0.209   1.847  1.00  0.00     0.133 C 
ATOM     25  H7  UNL     1      11.674  -0.086   3.218  1.00  0.00     0.153 HD
HETATM   26  C10 UNL     1       9.711  -0.276   0.458  1.00  0.00     0.144 C 
ENDBRANCH   6  20
TORSDOF 5
ENDMDL
