MODEL 1
REMARK VINA RESULT: -7.398017468      0.000      0.000
REMARK  7 active torsions:
REMARK  status: ('A' for Active; 'I' for Inactive)
REMARK    1  A    between atoms: N1_1  and  N2_4 
REMARK    2  A    between atoms: N2_4  and  N3_5 
REMARK    3  A    between atoms: N3_5  and  N4_7 
REMARK       I    between atoms: N4_7  and  C1_9 
REMARK    4  A    between atoms: C1_9  and  C2_11 
REMARK    5  A    between atoms: C3_15  and  N6_16 
REMARK    6  A    between atoms: N6_16  and  N7_18 
REMARK    7  A    between atoms: N7_18  and  C4_20 
ROOT
HETATM    1  C2  UNL     1      11.005   0.558  -2.967  1.00  0.00     0.153 A 
HETATM    2  N5  UNL     1      12.208   1.170  -2.898  1.00  0.00    -0.314 N 
ATOM      3  H5  UNL     1      12.738   1.469  -3.715  1.00  0.00     0.175 HD
HETATM    4  S1  UNL     1      12.735   1.382  -1.308  1.00  0.00     0.014 SA
HETATM    5  C3  UNL     1      11.560   0.744  -0.276  1.00  0.00     0.149 A 
HETATM    6  S2  UNL     1      10.422   0.204  -1.408  1.00  0.00    -0.038 SA
ENDROOT
BRANCH   5   7
HETATM    7  N6  UNL     1      11.586   0.711   1.007  1.00  0.00    -0.272 N 
ATOM      8  H6  UNL     1      12.411   1.022   1.520  1.00  0.00     0.188 HD
BRANCH   7   9
HETATM    9  N7  UNL     1      10.465   0.240   1.681  1.00  0.00    -0.129 N 
ATOM     10  H7  UNL     1       9.895  -0.502   1.275  1.00  0.00     0.205 HD
BRANCH   9  11
HETATM   11  C4  UNL     1      10.149   0.753   2.830  1.00  0.00     0.712 A 
HETATM   12  N8  UNL     1       9.272   1.728   3.118  1.00  0.00    -0.184 N 
HETATM   13  C5  UNL     1       9.273   1.933   4.449  1.00  0.00     0.215 A 
ATOM     14  H8  UNL     1       8.700   2.232   2.440  1.00  0.00     0.185 HD
HETATM   15  N9  UNL     1      10.146   1.085   4.968  1.00  0.00    -0.281 N 
HETATM   16  N10 UNL     1      10.681   0.368   4.001  1.00  0.00    -0.130 N 
ATOM     17  H9  UNL     1      10.369   1.001   5.960  1.00  0.00     0.188 HD
ATOM     18  H10 UNL     1      11.385  -0.361   4.122  1.00  0.00     0.205 HD
ENDBRANCH   9  11
ENDBRANCH   7   9
ENDBRANCH   5   7
BRANCH   1  19
HETATM   19  C1  UNL     1      10.310   0.247  -4.214  1.00  0.00     0.296 C 
HETATM   20  N4  UNL     1      10.998   0.259  -5.456  1.00  0.00    -0.238 N 
ATOM     21  H4  UNL     1      11.991   0.484  -5.504  1.00  0.00     0.193 HD
HETATM   22  O1  UNL     1       9.084  -0.033  -4.177  1.00  0.00    -0.264 OA
BRANCH  20  23
HETATM   23  N3  UNL     1      10.277  -0.047  -6.609  1.00  0.00    -0.153 N 
ATOM     24  H3  UNL     1       9.268  -0.185  -6.558  1.00  0.00     0.226 HD
BRANCH  23  25
HETATM   25  N2  UNL     1      10.856  -0.150  -7.689  1.00  0.00    -0.228 NA
BRANCH  25  26
HETATM   26  N1  UNL     1      11.409  -0.095  -8.771  1.00  0.00    -0.259 N 
ATOM     27  H12 UNL     1      10.809   0.712  -8.941  1.00  0.00     0.193 HD
ATOM     28  H11 UNL     1      11.943  -0.155  -9.638  1.00  0.00     0.193 HD
ENDBRANCH  25  26
ENDBRANCH  23  25
ENDBRANCH  20  23
ENDBRANCH   1  19
TORSDOF 7
ENDMDL
MODEL 2
REMARK VINA RESULT: -7.371511723      2.422      8.509
REMARK  7 active torsions:
REMARK  status: ('A' for Active; 'I' for Inactive)
REMARK    1  A    between atoms: N1_1  and  N2_4 
REMARK    2  A    between atoms: N2_4  and  N3_5 
REMARK    3  A    between atoms: N3_5  and  N4_7 
REMARK       I    between atoms: N4_7  and  C1_9 
REMARK    4  A    between atoms: C1_9  and  C2_11 
REMARK    5  A    between atoms: C3_15  and  N6_16 
REMARK    6  A    between atoms: N6_16  and  N7_18 
REMARK    7  A    between atoms: N7_18  and  C4_20 
ROOT
HETATM    1  C2  UNL     1      10.931   0.194   1.201  1.00  0.00     0.153 A 
HETATM    2  N5  UNL     1      11.955   0.744   0.512  1.00  0.00    -0.314 N 
ATOM      3  H5  UNL     1      12.769   1.173   0.952  1.00  0.00     0.175 HD
HETATM    4  S1  UNL     1      11.737   0.643  -1.159  1.00  0.00     0.014 SA
HETATM    5  C3  UNL     1      10.267  -0.135  -1.451  1.00  0.00     0.149 A 
HETATM    6  S2  UNL     1       9.754  -0.420   0.138  1.00  0.00    -0.038 SA
ENDROOT
BRANCH   5   7
HETATM    7  N6  UNL     1       9.741  -0.403  -2.591  1.00  0.00    -0.272 N 
ATOM      8  H6  UNL     1       9.316  -1.313  -2.769  1.00  0.00     0.188 HD
BRANCH   7   9
HETATM    9  N7  UNL     1       9.764   0.576  -3.577  1.00  0.00    -0.129 N 
ATOM     10  H7  UNL     1       9.345   1.490  -3.405  1.00  0.00     0.205 HD
BRANCH   9  11
HETATM   11  C4  UNL     1      10.325   0.319  -4.719  1.00  0.00     0.712 A 
HETATM   12  N8  UNL     1       9.768   0.186  -5.934  1.00  0.00    -0.184 N 
HETATM   13  C5  UNL     1      10.737  -0.080  -6.829  1.00  0.00     0.215 A 
ATOM     14  H8  UNL     1       8.773   0.273  -6.144  1.00  0.00     0.185 HD
HETATM   15  N9  UNL     1      11.880  -0.109  -6.162  1.00  0.00    -0.281 N 
HETATM   16  N10 UNL     1      11.644   0.130  -4.888  1.00  0.00    -0.130 N 
ATOM     17  H9  UNL     1      12.797  -0.289  -6.569  1.00  0.00     0.188 HD
ATOM     18  H10 UNL     1      12.347   0.166  -4.150  1.00  0.00     0.205 HD
ENDBRANCH   9  11
ENDBRANCH   7   9
ENDBRANCH   5   7
BRANCH   1  19
HETATM   19  C1  UNL     1      10.855   0.142   2.659  1.00  0.00     0.296 C 
HETATM   20  N4  UNL     1      10.180   1.154   3.393  1.00  0.00    -0.238 N 
ATOM     21  H4  UNL     1       9.734   1.938   2.916  1.00  0.00     0.193 HD
HETATM   22  O1  UNL     1      11.399  -0.816   3.265  1.00  0.00    -0.264 OA
BRANCH  20  23
HETATM   23  N3  UNL     1      10.144   1.045   4.782  1.00  0.00    -0.153 N 
ATOM     24  H3  UNL     1      10.706   0.335   5.252  1.00  0.00     0.226 HD
BRANCH  23  25
HETATM   25  N2  UNL     1       9.436   1.804   5.441  1.00  0.00    -0.228 NA
BRANCH  25  26
HETATM   26  N1  UNL     1       8.778   2.467   6.220  1.00  0.00    -0.259 N 
ATOM     27  H12 UNL     1       9.252   1.928   6.946  1.00  0.00     0.193 HD
ATOM     28  H11 UNL     1       8.176   3.083   6.766  1.00  0.00     0.193 HD
ENDBRANCH  25  26
ENDBRANCH  23  25
ENDBRANCH  20  23
ENDBRANCH   1  19
TORSDOF 7
ENDMDL
MODEL 3
REMARK VINA RESULT: -7.286469158      1.463      1.849
REMARK  7 active torsions:
REMARK  status: ('A' for Active; 'I' for Inactive)
REMARK    1  A    between atoms: N1_1  and  N2_4 
REMARK    2  A    between atoms: N2_4  and  N3_5 
REMARK    3  A    between atoms: N3_5  and  N4_7 
REMARK       I    between atoms: N4_7  and  C1_9 
REMARK    4  A    between atoms: C1_9  and  C2_11 
REMARK    5  A    between atoms: C3_15  and  N6_16 
REMARK    6  A    between atoms: N6_16  and  N7_18 
REMARK    7  A    between atoms: N7_18  and  C4_20 
ROOT
HETATM    1  C2  UNL     1      10.652   0.400  -3.929  1.00  0.00     0.153 A 
HETATM    2  N5  UNL     1      11.696   0.903  -3.234  1.00  0.00    -0.314 N 
ATOM      3  H5  UNL     1      12.488   1.379  -3.666  1.00  0.00     0.175 HD
HETATM    4  S1  UNL     1      11.544   0.654  -1.571  1.00  0.00     0.014 SA
HETATM    5  C3  UNL     1      10.095  -0.169  -1.294  1.00  0.00     0.149 A 
HETATM    6  S2  UNL     1       9.525  -0.323  -2.880  1.00  0.00    -0.038 SA
ENDROOT
BRANCH   5   7
HETATM    7  N6  UNL     1       9.618  -0.544  -0.162  1.00  0.00    -0.272 N 
ATOM      8  H6  UNL     1       9.249  -1.486  -0.038  1.00  0.00     0.188 HD
BRANCH   7   9
HETATM    9  N7  UNL     1       9.617   0.365   0.890  1.00  0.00    -0.129 N 
ATOM     10  H7  UNL     1       9.168   1.275   0.783  1.00  0.00     0.205 HD
BRANCH   9  11
HETATM   11  C4  UNL     1      10.191   0.048   2.009  1.00  0.00     0.712 A 
HETATM   12  N8  UNL     1      10.839  -1.079   2.348  1.00  0.00    -0.184 N 
HETATM   13  C5  UNL     1      11.271  -0.966   3.618  1.00  0.00     0.215 A 
ATOM     14  H8  UNL     1      10.980  -1.888   1.742  1.00  0.00     0.185 HD
HETATM   15  N9  UNL     1      10.888   0.224   4.050  1.00  0.00    -0.281 N 
HETATM   16  N10 UNL     1      10.235   0.845   3.089  1.00  0.00    -0.130 N 
ATOM     17  H9  UNL     1      11.069   0.601   4.981  1.00  0.00     0.188 HD
ATOM     18  H10 UNL     1       9.829   1.779   3.154  1.00  0.00     0.205 HD
ENDBRANCH   9  11
ENDBRANCH   7   9
ENDBRANCH   5   7
BRANCH   1  19
HETATM   19  C1  UNL     1      10.521   0.471  -5.383  1.00  0.00     0.296 C 
HETATM   20  N4  UNL     1      11.536  -0.038  -6.235  1.00  0.00    -0.238 N 
ATOM     21  H4  UNL     1      12.379  -0.465  -5.849  1.00  0.00     0.193 HD
HETATM   22  O1  UNL     1       9.490   0.995  -5.878  1.00  0.00    -0.264 OA
BRANCH  20  23
HETATM   23  N3  UNL     1      11.350   0.062  -7.612  1.00  0.00    -0.153 N 
ATOM     24  H3  UNL     1      11.869   0.757  -8.147  1.00  0.00     0.226 HD
BRANCH  23  25
HETATM   25  N2  UNL     1      10.560  -0.688  -8.184  1.00  0.00    -0.228 NA
BRANCH  25  26
HETATM   26  N1  UNL     1       9.663  -1.348  -8.674  1.00  0.00    -0.259 N 
ATOM     27  H12 UNL     1       9.147  -0.468  -8.702  1.00  0.00     0.193 HD
ATOM     28  H11 UNL     1       8.994  -2.005  -9.074  1.00  0.00     0.193 HD
ENDBRANCH  25  26
ENDBRANCH  23  25
ENDBRANCH  20  23
ENDBRANCH   1  19
TORSDOF 7
ENDMDL
MODEL 4
REMARK VINA RESULT: -7.256417255      1.680      2.211
REMARK  7 active torsions:
REMARK  status: ('A' for Active; 'I' for Inactive)
REMARK    1  A    between atoms: N1_1  and  N2_4 
REMARK    2  A    between atoms: N2_4  and  N3_5 
REMARK    3  A    between atoms: N3_5  and  N4_7 
REMARK       I    between atoms: N4_7  and  C1_9 
REMARK    4  A    between atoms: C1_9  and  C2_11 
REMARK    5  A    between atoms: C3_15  and  N6_16 
REMARK    6  A    between atoms: N6_16  and  N7_18 
REMARK    7  A    between atoms: N7_18  and  C4_20 
ROOT
HETATM    1  C2  UNL     1      10.581   0.393  -3.780  1.00  0.00     0.153 A 
HETATM    2  N5  UNL     1       9.527   0.148  -2.969  1.00  0.00    -0.314 N 
ATOM      3  H5  UNL     1       8.613  -0.154  -3.304  1.00  0.00     0.175 HD
HETATM    4  S1  UNL     1       9.894   0.400  -1.340  1.00  0.00     0.014 SA
HETATM    5  C3  UNL     1      11.506   0.893  -1.235  1.00  0.00     0.149 A 
HETATM    6  S2  UNL     1      11.935   0.879  -2.873  1.00  0.00    -0.038 SA
ENDROOT
BRANCH   5   7
HETATM    7  N6  UNL     1      12.162   1.183  -0.170  1.00  0.00    -0.272 N 
ATOM      8  H6  UNL     1      12.364   2.153   0.070  1.00  0.00     0.188 HD
BRANCH   7   9
HETATM    9  N7  UNL     1      12.592   0.143   0.647  1.00  0.00    -0.129 N 
ATOM     10  H7  UNL     1      13.386  -0.434   0.369  1.00  0.00     0.205 HD
BRANCH   9  11
HETATM   11  C4  UNL     1      11.976  -0.087   1.765  1.00  0.00     0.712 A 
HETATM   12  N8  UNL     1      11.907  -1.218   2.486  1.00  0.00    -0.184 N 
HETATM   13  C5  UNL     1      11.154  -0.991   3.578  1.00  0.00     0.215 A 
ATOM     14  H8  UNL     1      12.353  -2.104   2.245  1.00  0.00     0.185 HD
HETATM   15  N9  UNL     1      10.765   0.273   3.522  1.00  0.00    -0.281 N 
HETATM   16  N10 UNL     1      11.255   0.829   2.433  1.00  0.00    -0.130 N 
ATOM     17  H9  UNL     1      10.180   0.742   4.213  1.00  0.00     0.188 HD
ATOM     18  H10 UNL     1      11.110   1.796   2.143  1.00  0.00     0.205 HD
ENDBRANCH   9  11
ENDBRANCH   7   9
ENDBRANCH   5   7
BRANCH   1  19
HETATM   19  C1  UNL     1      10.548   0.258  -5.234  1.00  0.00     0.296 C 
HETATM   20  N4  UNL     1      11.710  -0.118  -5.959  1.00  0.00    -0.238 N 
ATOM     21  H4  UNL     1      12.591  -0.301  -5.479  1.00  0.00     0.193 HD
HETATM   22  O1  UNL     1       9.472   0.481  -5.844  1.00  0.00    -0.264 OA
BRANCH  20  23
HETATM   23  N3  UNL     1      11.613  -0.229  -7.345  1.00  0.00    -0.153 N 
ATOM     24  H3  UNL     1      11.169   0.513  -7.885  1.00  0.00     0.226 HD
BRANCH  23  25
HETATM   25  N2  UNL     1      12.060  -1.221  -7.917  1.00  0.00    -0.228 NA
BRANCH  25  26
HETATM   26  N1  UNL     1      12.462  -2.284  -8.352  1.00  0.00    -0.259 N 
ATOM     27  H12 UNL     1      11.522  -2.624  -8.150  1.00  0.00     0.193 HD
ATOM     28  H11 UNL     1      12.915  -3.113  -8.736  1.00  0.00     0.193 HD
ENDBRANCH  25  26
ENDBRANCH  23  25
ENDBRANCH  20  23
ENDBRANCH   1  19
TORSDOF 7
ENDMDL
MODEL 5
REMARK VINA RESULT: -7.164408587      2.350      8.561
REMARK  7 active torsions:
REMARK  status: ('A' for Active; 'I' for Inactive)
REMARK    1  A    between atoms: N1_1  and  N2_4 
REMARK    2  A    between atoms: N2_4  and  N3_5 
REMARK    3  A    between atoms: N3_5  and  N4_7 
REMARK       I    between atoms: N4_7  and  C1_9 
REMARK    4  A    between atoms: C1_9  and  C2_11 
REMARK    5  A    between atoms: C3_15  and  N6_16 
REMARK    6  A    between atoms: N6_16  and  N7_18 
REMARK    7  A    between atoms: N7_18  and  C4_20 
ROOT
HETATM    1  C2  UNL     1      10.114   0.034  -1.017  1.00  0.00     0.153 A 
HETATM    2  N5  UNL     1       9.127  -0.584  -1.703  1.00  0.00    -0.314 N 
ATOM      3  H5  UNL     1       8.341  -1.059  -1.259  1.00  0.00     0.175 HD
HETATM    4  S1  UNL     1       9.340  -0.483  -3.374  1.00  0.00     0.014 SA
HETATM    5  C3  UNL     1      10.760   0.382  -3.671  1.00  0.00     0.149 A 
HETATM    6  S2  UNL     1      11.252   0.711  -2.085  1.00  0.00    -0.038 SA
ENDROOT
BRANCH   5   7
HETATM    7  N6  UNL     1      11.269   0.673  -4.813  1.00  0.00    -0.272 N 
ATOM      8  H6  UNL     1      12.254   0.924  -4.897  1.00  0.00     0.188 HD
BRANCH   7   9
HETATM    9  N7  UNL     1      10.446   0.639  -5.933  1.00  0.00    -0.129 N 
ATOM     10  H7  UNL     1       9.593   1.197  -5.961  1.00  0.00     0.205 HD
BRANCH   9  11
HETATM   11  C4  UNL     1      10.772  -0.109  -6.942  1.00  0.00     0.712 A 
HETATM   12  N8  UNL     1      10.020  -0.528  -7.973  1.00  0.00    -0.184 N 
HETATM   13  C5  UNL     1      10.780  -1.287  -8.784  1.00  0.00     0.215 A 
ATOM     14  H8  UNL     1       9.034  -0.307  -8.118  1.00  0.00     0.185 HD
HETATM   15  N9  UNL     1      11.990  -1.330  -8.249  1.00  0.00    -0.281 N 
HETATM   16  N10 UNL     1      11.997  -0.622  -7.138  1.00  0.00    -0.130 N 
ATOM     17  H9  UNL     1      12.789  -1.831  -8.636  1.00  0.00     0.188 HD
ATOM     18  H10 UNL     1      12.801  -0.487  -6.525  1.00  0.00     0.205 HD
ENDBRANCH   9  11
ENDBRANCH   7   9
ENDBRANCH   5   7
BRANCH   1  19
HETATM   19  C1  UNL     1      10.186   0.102   0.441  1.00  0.00     0.296 C 
HETATM   20  N4  UNL     1      11.313   0.669   1.091  1.00  0.00    -0.238 N 
ATOM     21  H4  UNL     1      12.097   1.041   0.554  1.00  0.00     0.193 HD
HETATM   22  O1  UNL     1       9.230  -0.351   1.121  1.00  0.00    -0.264 OA
BRANCH  20  23
HETATM   23  N3  UNL     1      11.319   0.704   2.485  1.00  0.00    -0.153 N 
ATOM     24  H3  UNL     1      11.416   1.595   2.971  1.00  0.00     0.226 HD
BRANCH  23  25
HETATM   25  N2  UNL     1      11.209  -0.338   3.128  1.00  0.00    -0.228 NA
BRANCH  25  26
HETATM   26  N1  UNL     1      10.961  -1.389   3.688  1.00  0.00    -0.259 N 
ATOM     27  H12 UNL     1      11.413  -1.825   2.884  1.00  0.00     0.193 HD
ATOM     28  H11 UNL     1      10.699  -2.196   4.254  1.00  0.00     0.193 HD
ENDBRANCH  25  26
ENDBRANCH  23  25
ENDBRANCH  20  23
ENDBRANCH   1  19
TORSDOF 7
ENDMDL
