MODEL 1
REMARK VINA RESULT: -6.632105559      0.000      0.000
REMARK  2 active torsions:
REMARK  status: ('A' for Active; 'I' for Inactive)
REMARK    1  A    between atoms: C4_7  and  N3_8 
REMARK    2  A    between atoms: C5_11  and  C6_12 
REMARK       I    between atoms: C6_12  and  N5_14 
ROOT
HETATM    1  N1  UNL     1     -22.490 -19.864 -15.263  1.00  0.00    -0.190 NA
HETATM    2  C1  UNL     1     -22.614 -19.518 -16.364  1.00  0.00     0.119 C 
HETATM    3  C2  UNL     1     -22.785 -19.075 -17.720  1.00  0.00     0.145 A 
HETATM    4  C3  UNL     1     -23.866 -18.419 -18.280  1.00  0.00     0.147 A 
HETATM    5  N2  UNL     1     -23.619 -18.186 -19.581  1.00  0.00    -0.196 N 
ATOM      6  H2  UNL     1     -24.244 -17.718 -20.238  1.00  0.00     0.183 HD
HETATM    7  C4  UNL     1     -22.420 -18.674 -19.858  1.00  0.00     0.720 A 
HETATM    8  N9  UNL     1     -21.914 -19.211 -18.735  1.00  0.00    -0.177 N 
ATOM      9  H9  UNL     1     -20.999 -19.658 -18.664  1.00  0.00     0.185 HD
ENDROOT
BRANCH   7  10
HETATM   10  N3  UNL     1     -21.806 -18.614 -21.158  1.00  0.00    -0.017 N 
HETATM   11  N4  UNL     1     -21.682 -17.702 -22.095  1.00  0.00    -0.243 N 
HETATM   12  C5  UNL     1     -20.994 -18.495 -22.907  1.00  0.00     0.209 A 
ATOM     13  H4  UNL     1     -21.999 -16.735 -22.171  1.00  0.00     0.191 HD
HETATM   14  N8  UNL     1     -21.130 -19.448 -21.916  1.00  0.00    -0.243 N 
ATOM     15  H8  UNL     1     -20.826 -20.416 -21.812  1.00  0.00     0.191 HD
BRANCH  12  16
HETATM   16  C6  UNL     1     -20.336 -18.551 -24.213  1.00  0.00     0.307 C 
HETATM   17  O1  UNL     1     -19.209 -17.955 -24.369  1.00  0.00    -0.263 OA
HETATM   18  N5  UNL     1     -20.912 -19.239 -25.290  1.00  0.00    -0.174 N 
HETATM   19  C7  UNL     1     -20.314 -19.271 -26.517  1.00  0.00     0.352 A 
HETATM   20  C8  UNL     1     -22.034 -19.942 -25.334  1.00  0.00     0.352 A 
HETATM   21  O2  UNL     1     -19.226 -18.719 -26.874  1.00  0.00    -0.244 OA
HETATM   22  N6  UNL     1     -21.105 -20.010 -27.298  1.00  0.00    -0.247 N 
HETATM   23  N7  UNL     1     -22.141 -20.420 -26.605  1.00  0.00    -0.247 N 
ATOM     24  H6  UNL     1     -20.932 -20.222 -28.280  1.00  0.00     0.192 HD
ATOM     25  H7  UNL     1     -22.900 -21.001 -26.960  1.00  0.00     0.192 HD
HETATM   26  O3  UNL     1     -22.895 -20.186 -24.456  1.00  0.00    -0.244 OA
ENDBRANCH  12  16
ENDBRANCH   7  10
TORSDOF 2
ENDMDL
MODEL 2
REMARK VINA RESULT: -6.288020843      1.253      2.085
REMARK  2 active torsions:
REMARK  status: ('A' for Active; 'I' for Inactive)
REMARK    1  A    between atoms: C4_7  and  N3_8 
REMARK    2  A    between atoms: C5_11  and  C6_12 
REMARK       I    between atoms: C6_12  and  N5_14 
ROOT
HETATM    1  N1  UNL     1     -21.615 -19.742 -15.056  1.00  0.00    -0.190 NA
HETATM    2  C1  UNL     1     -22.027 -19.498 -16.113  1.00  0.00     0.119 C 
HETATM    3  C2  UNL     1     -22.550 -19.178 -17.412  1.00  0.00     0.145 A 
HETATM    4  C3  UNL     1     -23.642 -18.391 -17.730  1.00  0.00     0.147 A 
HETATM    5  N2  UNL     1     -23.786 -18.350 -19.067  1.00  0.00    -0.196 N 
ATOM      6  H2  UNL     1     -24.509 -17.843 -19.578  1.00  0.00     0.183 HD
HETATM    7  C4  UNL     1     -22.822 -19.085 -19.599  1.00  0.00     0.720 A 
HETATM    8  N9  UNL     1     -22.074 -19.585 -18.603  1.00  0.00    -0.177 N 
ATOM      9  H9  UNL     1     -21.261 -20.188 -18.731  1.00  0.00     0.185 HD
ENDROOT
BRANCH   7  10
HETATM   10  N3  UNL     1     -22.649 -19.282 -21.014  1.00  0.00    -0.017 N 
HETATM   11  N4  UNL     1     -23.423 -19.205 -22.073  1.00  0.00    -0.243 N 
HETATM   12  C5  UNL     1     -22.456 -19.537 -22.920  1.00  0.00     0.209 A 
ATOM     13  H4  UNL     1     -24.408 -18.974 -22.200  1.00  0.00     0.191 HD
HETATM   14  N8  UNL     1     -21.650 -19.616 -21.799  1.00  0.00    -0.243 N 
ATOM     15  H8  UNL     1     -20.668 -19.843 -21.643  1.00  0.00     0.191 HD
BRANCH  12  16
HETATM   16  C6  UNL     1     -22.162 -19.764 -24.335  1.00  0.00     0.307 C 
HETATM   17  O1  UNL     1     -22.957 -20.497 -25.027  1.00  0.00    -0.263 OA
HETATM   18  N5  UNL     1     -21.033 -19.200 -24.944  1.00  0.00    -0.174 N 
HETATM   19  C7  UNL     1     -20.740 -19.432 -26.258  1.00  0.00     0.352 A 
HETATM   20  C8  UNL     1     -20.115 -18.395 -24.429  1.00  0.00     0.352 A 
HETATM   21  O2  UNL     1     -21.381 -20.149 -27.089  1.00  0.00    -0.244 OA
HETATM   22  N6  UNL     1     -19.625 -18.746 -26.518  1.00  0.00    -0.247 N 
HETATM   23  N7  UNL     1     -19.236 -18.119 -25.434  1.00  0.00    -0.247 N 
ATOM     24  H6  UNL     1     -19.149 -18.715 -27.420  1.00  0.00     0.192 HD
ATOM     25  H7  UNL     1     -18.413 -17.523 -25.355  1.00  0.00     0.192 HD
HETATM   26  O3  UNL     1     -19.981 -17.919 -23.277  1.00  0.00    -0.244 OA
ENDBRANCH  12  16
ENDBRANCH   7  10
TORSDOF 2
ENDMDL
MODEL 3
REMARK VINA RESULT: -6.230881224      2.932      7.828
REMARK  2 active torsions:
REMARK  status: ('A' for Active; 'I' for Inactive)
REMARK    1  A    between atoms: C4_7  and  N3_8 
REMARK    2  A    between atoms: C5_11  and  C6_12 
REMARK       I    between atoms: C6_12  and  N5_14 
ROOT
HETATM    1  N1  UNL     1     -19.257 -18.702 -30.949  1.00  0.00    -0.190 NA
HETATM    2  C1  UNL     1     -19.429 -19.068 -29.862  1.00  0.00     0.119 C 
HETATM    3  C2  UNL     1     -19.630 -19.540 -28.520  1.00  0.00     0.145 A 
HETATM    4  C3  UNL     1     -19.447 -20.817 -28.020  1.00  0.00     0.147 A 
HETATM    5  N2  UNL     1     -19.747 -20.829 -26.710  1.00  0.00    -0.196 N 
ATOM      6  H2  UNL     1     -19.701 -21.638 -26.089  1.00  0.00     0.183 HD
HETATM    7  C4  UNL     1     -20.114 -19.603 -26.368  1.00  0.00     0.720 A 
HETATM    8  N9  UNL     1     -20.043 -18.823 -27.459  1.00  0.00    -0.177 N 
ATOM      9  H9  UNL     1     -20.270 -17.828 -27.480  1.00  0.00     0.185 HD
ENDROOT
BRANCH   7  10
HETATM   10  N3  UNL     1     -20.512 -19.223 -25.039  1.00  0.00    -0.017 N 
HETATM   11  N4  UNL     1     -20.466 -18.121 -24.325  1.00  0.00    -0.243 N 
HETATM   12  C5  UNL     1     -21.034 -18.675 -23.261  1.00  0.00     0.209 A 
ATOM     13  H4  UNL     1     -20.120 -17.181 -24.519  1.00  0.00     0.191 HD
HETATM   14  N8  UNL     1     -21.078 -19.830 -24.020  1.00  0.00    -0.243 N 
ATOM     15  H8  UNL     1     -21.416 -20.778 -23.854  1.00  0.00     0.191 HD
BRANCH  12  16
HETATM   16  C6  UNL     1     -21.478 -18.404 -21.894  1.00  0.00     0.307 C 
HETATM   17  O1  UNL     1     -20.772 -18.835 -20.911  1.00  0.00    -0.263 OA
HETATM   18  N5  UNL     1     -22.655 -17.687 -21.639  1.00  0.00    -0.174 N 
HETATM   19  C7  UNL     1     -23.088 -17.455 -20.365  1.00  0.00     0.352 A 
HETATM   20  C8  UNL     1     -23.501 -17.129 -22.493  1.00  0.00     0.352 A 
HETATM   21  O2  UNL     1     -22.550 -17.827 -19.274  1.00  0.00    -0.244 OA
HETATM   22  N6  UNL     1     -24.212 -16.744 -20.475  1.00  0.00    -0.247 N 
HETATM   23  N7  UNL     1     -24.475 -16.540 -21.744  1.00  0.00    -0.247 N 
ATOM     24  H6  UNL     1     -24.779 -16.412 -19.695  1.00  0.00     0.192 HD
ATOM     25  H7  UNL     1     -25.275 -16.024 -22.110  1.00  0.00     0.192 HD
HETATM   26  O3  UNL     1     -23.505 -17.085 -23.746  1.00  0.00    -0.244 OA
ENDBRANCH  12  16
ENDBRANCH   7  10
TORSDOF 2
ENDMDL
MODEL 4
REMARK VINA RESULT: -5.690733250      2.588      7.897
REMARK  2 active torsions:
REMARK  status: ('A' for Active; 'I' for Inactive)
REMARK    1  A    between atoms: C4_7  and  N3_8 
REMARK    2  A    between atoms: C5_11  and  C6_12 
REMARK       I    between atoms: C6_12  and  N5_14 
ROOT
HETATM    1  N1  UNL     1     -19.181 -19.251 -30.798  1.00  0.00    -0.190 NA
HETATM    2  C1  UNL     1     -19.441 -19.434 -29.682  1.00  0.00     0.119 C 
HETATM    3  C2  UNL     1     -19.748 -19.676 -28.299  1.00  0.00     0.145 A 
HETATM    4  C3  UNL     1     -19.399 -20.763 -27.519  1.00  0.00     0.147 A 
HETATM    5  N2  UNL     1     -19.886 -20.593 -26.277  1.00  0.00    -0.196 N 
ATOM      6  H2  UNL     1     -19.779 -21.240 -25.495  1.00  0.00     0.183 HD
HETATM    7  C4  UNL     1     -20.530 -19.436 -26.250  1.00  0.00     0.720 A 
HETATM    8  N9  UNL     1     -20.447 -18.880 -27.470  1.00  0.00    -0.177 N 
ATOM      9  H9  UNL     1     -20.857 -17.982 -27.730  1.00  0.00     0.185 HD
ENDROOT
BRANCH   7  10
HETATM   10  N3  UNL     1     -21.190 -18.909 -25.086  1.00  0.00    -0.017 N 
HETATM   11  N4  UNL     1     -20.859 -18.097 -24.107  1.00  0.00    -0.243 N 
HETATM   12  C5  UNL     1     -22.043 -18.179 -23.513  1.00  0.00     0.209 A 
ATOM     13  H4  UNL     1     -20.003 -17.588 -23.885  1.00  0.00     0.191 HD
HETATM   14  N8  UNL     1     -22.381 -19.033 -24.547  1.00  0.00    -0.243 N 
ATOM     15  H8  UNL     1     -23.223 -19.552 -24.794  1.00  0.00     0.191 HD
BRANCH  12  16
HETATM   16  C6  UNL     1     -22.814 -17.708 -22.362  1.00  0.00     0.307 C 
HETATM   17  O1  UNL     1     -23.776 -16.880 -22.553  1.00  0.00    -0.263 OA
HETATM   18  N5  UNL     1     -22.520 -18.141 -21.062  1.00  0.00    -0.174 N 
HETATM   19  C7  UNL     1     -23.219 -17.683 -19.983  1.00  0.00     0.352 A 
HETATM   20  C8  UNL     1     -21.605 -19.008 -20.652  1.00  0.00     0.352 A 
HETATM   21  O2  UNL     1     -24.174 -16.843 -19.966  1.00  0.00    -0.244 OA
HETATM   22  N6  UNL     1     -22.702 -18.295 -18.915  1.00  0.00    -0.247 N 
HETATM   23  N7  UNL     1     -21.734 -19.094 -19.298  1.00  0.00    -0.247 N 
ATOM     24  H6  UNL     1     -23.011 -18.164 -17.953  1.00  0.00     0.192 HD
ATOM     25  H7  UNL     1     -21.171 -19.681 -18.684  1.00  0.00     0.192 HD
HETATM   26  O3  UNL     1     -20.750 -19.672 -21.284  1.00  0.00    -0.244 OA
ENDBRANCH  12  16
ENDBRANCH   7  10
TORSDOF 2
ENDMDL
MODEL 5
REMARK VINA RESULT: -5.511716628      2.380      8.215
REMARK  2 active torsions:
REMARK  status: ('A' for Active; 'I' for Inactive)
REMARK    1  A    between atoms: C4_7  and  N3_8 
REMARK    2  A    between atoms: C5_11  and  C6_12 
REMARK       I    between atoms: C6_12  and  N5_14 
ROOT
HETATM    1  N1  UNL     1     -18.976 -18.365 -31.386  1.00  0.00    -0.190 NA
HETATM    2  C1  UNL     1     -19.224 -18.881 -30.377  1.00  0.00     0.119 C 
HETATM    3  C2  UNL     1     -19.513 -19.534 -29.130  1.00  0.00     0.145 A 
HETATM    4  C3  UNL     1     -19.080 -20.770 -28.686  1.00  0.00     0.147 A 
HETATM    5  N2  UNL     1     -19.582 -21.003 -27.461  1.00  0.00    -0.196 N 
ATOM      6  H2  UNL     1     -19.425 -21.838 -26.895  1.00  0.00     0.183 HD
HETATM    7  C4  UNL     1     -20.317 -19.956 -27.120  1.00  0.00     0.720 A 
HETATM    8  N9  UNL     1     -20.276 -19.067 -28.125  1.00  0.00    -0.177 N 
ATOM      9  H9  UNL     1     -20.756 -18.167 -28.127  1.00  0.00     0.185 HD
ENDROOT
BRANCH   7  10
HETATM   10  N3  UNL     1     -21.020 -19.839 -25.870  1.00  0.00    -0.017 N 
HETATM   11  N4  UNL     1     -20.676 -19.672 -24.613  1.00  0.00    -0.243 N 
HETATM   12  C5  UNL     1     -21.929 -19.677 -24.172  1.00  0.00     0.209 A 
ATOM     13  H4  UNL     1     -19.775 -19.575 -24.145  1.00  0.00     0.191 HD
HETATM   14  N8  UNL     1     -22.280 -19.853 -25.498  1.00  0.00    -0.243 N 
ATOM     15  H8  UNL     1     -23.166 -19.953 -25.992  1.00  0.00     0.191 HD
BRANCH  12  16
HETATM   16  C6  UNL     1     -22.748 -19.571 -22.965  1.00  0.00     0.307 C 
HETATM   17  O1  UNL     1     -23.874 -20.186 -22.919  1.00  0.00    -0.263 OA
HETATM   18  N5  UNL     1     -22.327 -18.813 -21.864  1.00  0.00    -0.174 N 
HETATM   19  C7  UNL     1     -23.101 -18.689 -20.745  1.00  0.00     0.352 A 
HETATM   20  C8  UNL     1     -21.200 -18.138 -21.690  1.00  0.00     0.352 A 
HETATM   21  O2  UNL     1     -24.249 -19.189 -20.527  1.00  0.00    -0.244 OA
HETATM   22  N6  UNL     1     -22.411 -17.923 -19.897  1.00  0.00    -0.247 N 
HETATM   23  N7  UNL     1     -21.269 -17.584 -20.446  1.00  0.00    -0.247 N 
ATOM     24  H6  UNL     1     -22.722 -17.646 -18.966  1.00  0.00     0.192 HD
ATOM     25  H7  UNL     1     -20.551 -17.003 -20.014  1.00  0.00     0.192 HD
HETATM   26  O3  UNL     1     -20.208 -17.974 -22.438  1.00  0.00    -0.244 OA
ENDBRANCH  12  16
ENDBRANCH   7  10
TORSDOF 2
ENDMDL
