MODEL 1
REMARK VINA RESULT: -8.747752243      0.000      0.000
REMARK  2 active torsions:
REMARK  status: ('A' for Active; 'I' for Inactive)
REMARK    1  A    between atoms: C3_4  and  N2_5 
REMARK    2  A    between atoms: C4_7  and  C6_10 
ROOT
HETATM    1  N2  UNL     1     -22.237 -19.417 -21.988  1.00  0.00    -0.339 N 
ATOM      2  H2  UNL     1     -21.912 -20.223 -21.455  1.00  0.00     0.167 HD
HETATM    3  C4  UNL     1     -22.940 -18.662 -21.294  1.00  0.00     0.161 C 
HETATM    4  C5  UNL     1     -23.160 -19.057 -19.897  1.00  0.00     0.121 C 
HETATM    5  N3  UNL     1     -23.313 -19.370 -18.794  1.00  0.00    -0.190 NA
ENDROOT
BRANCH   3   6
HETATM    6  C6  UNL     1     -23.581 -17.414 -21.700  1.00  0.00     0.173 A 
HETATM    7  N4  UNL     1     -24.347 -16.628 -20.875  1.00  0.00    -0.268 N 
HETATM    8  N5  UNL     1     -24.778 -15.588 -21.523  1.00  0.00    -0.131 N 
ATOM      9  H4  UNL     1     -24.548 -16.833 -19.896  1.00  0.00     0.189 HD
HETATM   10  C7  UNL     1     -24.329 -15.628 -22.784  1.00  0.00     0.692 A 
ATOM     11  H5  UNL     1     -25.368 -14.854 -21.131  1.00  0.00     0.205 HD
HETATM   12  N6  UNL     1     -24.512 -14.805 -23.763  1.00  0.00    -0.233 N 
HETATM   13  N7  UNL     1     -23.591 -16.767 -22.867  1.00  0.00    -0.171 N 
ATOM     14  H62 UNL     1     -25.066 -13.951 -23.701  1.00  0.00     0.174 HD
ATOM     15  H61 UNL     1     -24.171 -14.835 -24.724  1.00  0.00     0.174 HD
ATOM     16  H7  UNL     1     -23.111 -17.085 -23.709  1.00  0.00     0.186 HD
ENDBRANCH   3   6
BRANCH   1  17
HETATM   17  C3  UNL     1     -21.783 -19.452 -23.283  1.00  0.00     0.118 A 
HETATM   18  C2  UNL     1     -20.659 -18.725 -23.639  1.00  0.00     0.130 A 
HETATM   19  N1  UNL     1     -20.184 -18.743 -24.870  1.00  0.00    -0.312 N 
HETATM   20  C1  UNL     1     -18.995 -17.985 -25.282  1.00  0.00     0.160 C 
HETATM   21  C9  UNL     1     -20.780 -19.469 -25.815  1.00  0.00     0.328 A 
HETATM   22  N8  UNL     1     -21.873 -20.186 -25.502  1.00  0.00    -0.273 N 
HETATM   23  O2  UNL     1     -20.355 -19.507 -26.986  1.00  0.00    -0.246 OA
HETATM   24  C8  UNL     1     -22.408 -20.213 -24.273  1.00  0.00     0.277 A 
ATOM     25  H8  UNL     1     -22.317 -20.737 -26.236  1.00  0.00     0.173 HD
HETATM   26  O1  UNL     1     -23.446 -20.899 -23.997  1.00  0.00    -0.266 OA
ENDBRANCH   1  17
TORSDOF 2
ENDMDL
MODEL 2
REMARK VINA RESULT: -8.596654664      0.581      1.045
REMARK  2 active torsions:
REMARK  status: ('A' for Active; 'I' for Inactive)
REMARK    1  A    between atoms: C3_4  and  N2_5 
REMARK    2  A    between atoms: C4_7  and  C6_10 
ROOT
HETATM    1  N2  UNL     1     -22.282 -19.225 -21.774  1.00  0.00    -0.339 N 
ATOM      2  H2  UNL     1     -21.905 -19.958 -21.173  1.00  0.00     0.167 HD
HETATM    3  C4  UNL     1     -22.989 -18.428 -21.135  1.00  0.00     0.161 C 
HETATM    4  C5  UNL     1     -23.143 -18.681 -19.697  1.00  0.00     0.121 C 
HETATM    5  N3  UNL     1     -23.243 -18.881 -18.562  1.00  0.00    -0.190 NA
ENDROOT
BRANCH   3   6
HETATM    6  C6  UNL     1     -23.695 -17.254 -21.642  1.00  0.00     0.173 A 
HETATM    7  N4  UNL     1     -23.539 -16.737 -22.904  1.00  0.00    -0.268 N 
HETATM    8  N5  UNL     1     -24.300 -15.695 -23.057  1.00  0.00    -0.131 N 
ATOM      9  H4  UNL     1     -22.917 -17.116 -23.617  1.00  0.00     0.189 HD
HETATM   10  C7  UNL     1     -24.986 -15.471 -21.928  1.00  0.00     0.692 A 
ATOM     11  H5  UNL     1     -24.364 -15.132 -23.906  1.00  0.00     0.205 HD
HETATM   12  N6  UNL     1     -25.848 -14.552 -21.641  1.00  0.00    -0.233 N 
HETATM   13  N7  UNL     1     -24.593 -16.450 -21.069  1.00  0.00    -0.171 N 
ATOM     14  H62 UNL     1     -26.142 -13.818 -22.285  1.00  0.00     0.174 HD
ATOM     15  H61 UNL     1     -26.370 -14.383 -20.782  1.00  0.00     0.174 HD
ATOM     16  H7  UNL     1     -24.939 -16.556 -20.115  1.00  0.00     0.186 HD
ENDBRANCH   3   6
BRANCH   1  17
HETATM   17  C3  UNL     1     -21.874 -19.380 -23.075  1.00  0.00     0.118 A 
HETATM   18  C2  UNL     1     -20.745 -18.717 -23.527  1.00  0.00     0.130 A 
HETATM   19  N1  UNL     1     -20.314 -18.850 -24.767  1.00  0.00    -0.312 N 
HETATM   20  C1  UNL     1     -19.121 -18.162 -25.280  1.00  0.00     0.160 C 
HETATM   21  C9  UNL     1     -20.959 -19.635 -25.628  1.00  0.00     0.328 A 
HETATM   22  N8  UNL     1     -22.058 -20.293 -25.220  1.00  0.00    -0.273 N 
HETATM   23  O2  UNL     1     -20.576 -19.782 -26.805  1.00  0.00    -0.246 OA
HETATM   24  C8  UNL     1     -22.551 -20.203 -23.977  1.00  0.00     0.277 A 
ATOM     25  H8  UNL     1     -22.540 -20.891 -25.891  1.00  0.00     0.173 HD
HETATM   26  O1  UNL     1     -23.595 -20.836 -23.611  1.00  0.00    -0.266 OA
ENDBRANCH   1  17
TORSDOF 2
ENDMDL
MODEL 3
REMARK VINA RESULT: -6.034421029      2.466      5.642
REMARK  2 active torsions:
REMARK  status: ('A' for Active; 'I' for Inactive)
REMARK    1  A    between atoms: C3_4  and  N2_5 
REMARK    2  A    between atoms: C4_7  and  C6_10 
ROOT
HETATM    1  N2  UNL     1     -23.017 -17.444 -21.212  1.00  0.00    -0.339 N 
ATOM      2  H2  UNL     1     -23.323 -16.558 -20.810  1.00  0.00     0.167 HD
HETATM    3  C4  UNL     1     -23.259 -17.501 -22.430  1.00  0.00     0.161 C 
HETATM    4  C5  UNL     1     -23.911 -16.332 -23.034  1.00  0.00     0.121 C 
HETATM    5  N3  UNL     1     -24.410 -15.400 -23.501  1.00  0.00    -0.190 NA
ENDROOT
BRANCH   3   6
HETATM    6  C6  UNL     1     -22.969 -18.600 -23.348  1.00  0.00     0.173 A 
HETATM    7  N4  UNL     1     -23.470 -19.871 -23.222  1.00  0.00    -0.268 N 
HETATM    8  N5  UNL     1     -23.034 -20.621 -24.189  1.00  0.00    -0.131 N 
ATOM      9  H4  UNL     1     -24.095 -20.182 -22.478  1.00  0.00     0.189 HD
HETATM   10  C7  UNL     1     -22.237 -19.901 -24.990  1.00  0.00     0.692 A 
ATOM     11  H5  UNL     1     -23.261 -21.607 -24.318  1.00  0.00     0.205 HD
HETATM   12  N6  UNL     1     -21.598 -20.242 -26.059  1.00  0.00    -0.233 N 
HETATM   13  N7  UNL     1     -22.215 -18.654 -24.447  1.00  0.00    -0.171 N 
ATOM     14  H62 UNL     1     -21.614 -21.177 -26.466  1.00  0.00     0.174 HD
ATOM     15  H61 UNL     1     -20.992 -19.693 -26.670  1.00  0.00     0.174 HD
ATOM     16  H7  UNL     1     -21.691 -17.866 -24.830  1.00  0.00     0.186 HD
ENDBRANCH   3   6
BRANCH   1  17
HETATM   17  C3  UNL     1     -22.448 -18.258 -20.265  1.00  0.00     0.118 A 
HETATM   18  C2  UNL     1     -23.112 -18.499 -19.074  1.00  0.00     0.130 A 
HETATM   19  N1  UNL     1     -22.603 -19.286 -18.145  1.00  0.00    -0.312 N 
HETATM   20  C1  UNL     1     -23.280 -19.564 -16.870  1.00  0.00     0.160 C 
HETATM   21  C9  UNL     1     -21.424 -19.877 -18.328  1.00  0.00     0.328 A 
HETATM   22  N8  UNL     1     -20.754 -19.664 -19.474  1.00  0.00    -0.273 N 
HETATM   23  O2  UNL     1     -20.918 -20.625 -17.470  1.00  0.00    -0.246 OA
HETATM   24  C8  UNL     1     -21.211 -18.877 -20.459  1.00  0.00     0.277 A 
ATOM     25  H8  UNL     1     -19.853 -20.124 -19.601  1.00  0.00     0.173 HD
HETATM   26  O1  UNL     1     -20.560 -18.688 -21.538  1.00  0.00    -0.266 OA
ENDBRANCH   1  17
TORSDOF 2
ENDMDL
MODEL 4
REMARK VINA RESULT: -5.973911179      1.329      3.432
REMARK  2 active torsions:
REMARK  status: ('A' for Active; 'I' for Inactive)
REMARK    1  A    between atoms: C3_4  and  N2_5 
REMARK    2  A    between atoms: C4_7  and  C6_10 
ROOT
HETATM    1  N2  UNL     1     -22.983 -17.956 -22.803  1.00  0.00    -0.339 N 
ATOM      2  H2  UNL     1     -23.684 -17.367 -23.255  1.00  0.00     0.167 HD
HETATM    3  C4  UNL     1     -23.093 -17.929 -21.565  1.00  0.00     0.161 C 
HETATM    4  C5  UNL     1     -24.162 -17.090 -21.010  1.00  0.00     0.121 C 
HETATM    5  N3  UNL     1     -25.019 -16.438 -20.586  1.00  0.00    -0.190 NA
ENDROOT
BRANCH   3   6
HETATM    6  C6  UNL     1     -22.279 -18.637 -20.580  1.00  0.00     0.173 A 
HETATM    7  N4  UNL     1     -20.940 -18.902 -20.722  1.00  0.00    -0.268 N 
HETATM    8  N5  UNL     1     -20.499 -19.544 -19.683  1.00  0.00    -0.131 N 
ATOM      9  H4  UNL     1     -20.374 -18.633 -21.527  1.00  0.00     0.189 HD
HETATM   10  C7  UNL     1     -21.502 -19.735 -18.815  1.00  0.00     0.692 A 
ATOM     11  H5  UNL     1     -19.537 -19.856 -19.548  1.00  0.00     0.205 HD
HETATM   12  N6  UNL     1     -21.511 -20.320 -17.663  1.00  0.00    -0.233 N 
HETATM   13  N7  UNL     1     -22.591 -19.164 -19.394  1.00  0.00    -0.171 N 
ATOM     14  H62 UNL     1     -20.694 -20.749 -17.229  1.00  0.00     0.174 HD
ATOM     15  H61 UNL     1     -22.274 -20.465 -17.002  1.00  0.00     0.174 HD
ATOM     16  H7  UNL     1     -23.523 -19.142 -18.978  1.00  0.00     0.186 HD
ENDBRANCH   3   6
BRANCH   1  17
HETATM   17  C3  UNL     1     -22.170 -18.569 -23.723  1.00  0.00     0.118 A 
HETATM   18  C2  UNL     1     -20.966 -17.983 -24.076  1.00  0.00     0.130 A 
HETATM   19  N1  UNL     1     -20.151 -18.548 -24.947  1.00  0.00    -0.312 N 
HETATM   20  C1  UNL     1     -18.866 -17.956 -25.345  1.00  0.00     0.160 C 
HETATM   21  C9  UNL     1     -20.467 -19.710 -25.517  1.00  0.00     0.328 A 
HETATM   22  N8  UNL     1     -21.629 -20.304 -25.194  1.00  0.00    -0.273 N 
HETATM   23  O2  UNL     1     -19.718 -20.268 -26.342  1.00  0.00    -0.246 OA
HETATM   24  C8  UNL     1     -22.502 -19.787 -24.319  1.00  0.00     0.277 A 
ATOM     25  H8  UNL     1     -21.856 -21.194 -25.638  1.00  0.00     0.173 HD
HETATM   26  O1  UNL     1     -23.600 -20.367 -24.028  1.00  0.00    -0.266 OA
ENDBRANCH   1  17
TORSDOF 2
ENDMDL
MODEL 5
REMARK VINA RESULT: -5.856544983      1.294      3.271
REMARK  2 active torsions:
REMARK  status: ('A' for Active; 'I' for Inactive)
REMARK    1  A    between atoms: C3_4  and  N2_5 
REMARK    2  A    between atoms: C4_7  and  C6_10 
ROOT
HETATM    1  N2  UNL     1     -23.273 -17.390 -22.756  1.00  0.00    -0.339 N 
ATOM      2  H2  UNL     1     -23.673 -16.647 -23.329  1.00  0.00     0.167 HD
HETATM    3  C4  UNL     1     -23.682 -17.333 -21.583  1.00  0.00     0.161 C 
HETATM    4  C5  UNL     1     -24.624 -16.254 -21.259  1.00  0.00     0.121 C 
HETATM    5  N3  UNL     1     -25.377 -15.410 -21.019  1.00  0.00    -0.190 NA
ENDROOT
BRANCH   3   6
HETATM    6  C6  UNL     1     -23.340 -18.220 -20.473  1.00  0.00     0.173 A 
HETATM    7  N4  UNL     1     -24.249 -18.757 -19.598  1.00  0.00    -0.268 N 
HETATM    8  N5  UNL     1     -23.641 -19.501 -18.723  1.00  0.00    -0.131 N 
ATOM      9  H4  UNL     1     -25.256 -18.596 -19.629  1.00  0.00     0.189 HD
HETATM   10  C7  UNL     1     -22.324 -19.497 -18.969  1.00  0.00     0.692 A 
ATOM     11  H5  UNL     1     -24.096 -20.011 -17.966  1.00  0.00     0.205 HD
HETATM   12  N6  UNL     1     -21.357 -20.094 -18.356  1.00  0.00    -0.233 N 
HETATM   13  N7  UNL     1     -22.165 -18.696 -20.057  1.00  0.00    -0.171 N 
ATOM     14  H62 UNL     1     -21.476 -20.694 -17.540  1.00  0.00     0.174 HD
ATOM     15  H61 UNL     1     -20.354 -20.090 -18.543  1.00  0.00     0.174 HD
ATOM     16  H7  UNL     1     -21.267 -18.488 -20.496  1.00  0.00     0.186 HD
ENDBRANCH   3   6
BRANCH   1  17
HETATM   17  C3  UNL     1     -22.426 -18.187 -23.483  1.00  0.00     0.118 A 
HETATM   18  C2  UNL     1     -21.260 -17.655 -24.008  1.00  0.00     0.130 A 
HETATM   19  N1  UNL     1     -20.413 -18.392 -24.702  1.00  0.00    -0.312 N 
HETATM   20  C1  UNL     1     -19.168 -17.861 -25.273  1.00  0.00     0.160 C 
HETATM   21  C9  UNL     1     -20.659 -19.683 -24.918  1.00  0.00     0.328 A 
HETATM   22  N8  UNL     1     -21.782 -20.230 -24.421  1.00  0.00    -0.273 N 
HETATM   23  O2  UNL     1     -19.878 -20.405 -25.568  1.00  0.00    -0.246 OA
HETATM   24  C8  UNL     1     -22.684 -19.541 -23.709  1.00  0.00     0.277 A 
ATOM     25  H8  UNL     1     -21.955 -21.220 -24.595  1.00  0.00     0.173 HD
HETATM   26  O1  UNL     1     -23.743 -20.078 -23.247  1.00  0.00    -0.266 OA
ENDBRANCH   1  17
TORSDOF 2
ENDMDL
