MODEL 1
REMARK VINA RESULT: -7.792210689      0.000      0.000
REMARK  13 active torsions:
REMARK  status: ('A' for Active; 'I' for Inactive)
REMARK    1  A    between atoms: O1_2  and  C2_3 
REMARK    2  A    between atoms: C2_3  and  S1_5 
REMARK    3  A    between atoms: S1_5  and  C3_6 
REMARK    4  A    between atoms: C3_6  and  C4_7 
REMARK    5  A    between atoms: C4_7  and  C5_8 
REMARK    6  A    between atoms: C5_8  and  C6_9 
REMARK    7  A    between atoms: C6_9  and  C7_10 
REMARK    8  A    between atoms: C7_10  and  C8_11 
REMARK    9  A    between atoms: C8_11  and  C9_12 
REMARK   10  A    between atoms: C9_12  and  C10_13 
REMARK   11  A    between atoms: C11_17  and  C12_18 
REMARK   12  A    between atoms: C19_26  and  O6_27 
REMARK   13  A    between atoms: C21_30  and  O7_31 
ROOT
HETATM    1  C9  UNL     1      38.252  41.745  11.574  1.00  0.00     0.193 C 
HETATM    2  O5  UNL     1      37.350  42.818  11.693  1.00  0.00    -0.350 OA
HETATM    3  C11 UNL     1      37.358  43.637  12.744  1.00  0.00     0.185 C 
HETATM    4  C19 UNL     1      38.699  43.915  13.314  1.00  0.00     0.154 C 
HETATM    5  C20 UNL     1      39.409  42.592  13.625  1.00  0.00     0.070 C 
HETATM    6  C21 UNL     1      39.559  41.951  12.236  1.00  0.00     0.170 C 
ENDROOT
BRANCH   1   7
HETATM    7  C8  UNL     1      37.531  40.583  12.152  1.00  0.00     0.024 C 
BRANCH   7   8
HETATM    8  C7  UNL     1      37.821  39.217  11.849  1.00  0.00    -0.005 C 
BRANCH   8   9
HETATM    9  C6  UNL     1      37.117  38.172  11.592  1.00  0.00    -0.027 C 
BRANCH   9  10
HETATM   10  C5  UNL     1      37.559  36.843  12.279  1.00  0.00     0.028 C 
BRANCH  10  11
HETATM   11  C4  UNL     1      36.751  35.804  11.596  1.00  0.00     0.014 C 
BRANCH  11  12
HETATM   12  C3  UNL     1      36.040  34.852  12.503  1.00  0.00     0.085 C 
BRANCH  12  13
HETATM   13  S1  UNL     1      37.089  33.743  13.393  1.00  0.00    -0.061 SA
BRANCH  13  14
HETATM   14  C2  UNL     1      37.461  32.209  12.605  1.00  0.00     0.321 C 
HETATM   15  O2  UNL     1      38.374  32.127  11.754  1.00  0.00    -0.252 OA
BRANCH  14  16
HETATM   16  O1  UNL     1      36.768  31.030  12.876  1.00  0.00    -0.318 OA
HETATM   17  C1  UNL     1      35.382  31.054  13.213  1.00  0.00     0.214 C 
ENDBRANCH  14  16
ENDBRANCH  13  14
ENDBRANCH  12  13
ENDBRANCH  11  12
ENDBRANCH  10  11
ENDBRANCH   9  10
ENDBRANCH   8   9
ENDBRANCH   7   8
ENDBRANCH   1   7
BRANCH   1  18
HETATM   18  C10 UNL     1      38.416  41.504  10.091  1.00  0.00     0.216 C 
HETATM   19  O3  UNL     1      37.363  41.772   9.396  1.00  0.00    -0.645 OA
HETATM   20  O4  UNL     1      39.467  41.066   9.394  1.00  0.00    -0.645 OA
ENDBRANCH   1  18
BRANCH   6  21
HETATM   21  O7  UNL     1      40.406  42.814  11.533  1.00  0.00    -0.392 OA
ATOM     22  H7  UNL     1      41.309  42.779  11.828  1.00  0.00     0.210 HD
ENDBRANCH   6  21
BRANCH   3  23
HETATM   23  C12 UNL     1      36.301  43.290  13.726  1.00  0.00    -0.026 A 
HETATM   24  C13 UNL     1      34.992  43.644  13.367  1.00  0.00     0.010 A 
HETATM   25  C14 UNL     1      33.924  43.378  14.195  1.00  0.00     0.009 A 
HETATM   26  C15 UNL     1      34.100  42.763  15.397  1.00  0.00    -0.045 A 
HETATM   27  C16 UNL     1      32.936  42.470  16.308  1.00  0.00     0.049 C 
HETATM   28  C17 UNL     1      35.374  42.410  15.766  1.00  0.00     0.017 A 
HETATM   29 BR1  UNL     1      35.738  41.545  17.420  1.00  0.00    -0.051 Br
HETATM   30  C18 UNL     1      36.455  42.679  14.923  1.00  0.00     0.029 A 
ENDBRANCH   3  23
BRANCH   4  31
HETATM   31  O6  UNL     1      38.791  44.849  14.299  1.00  0.00    -0.393 OA
ATOM     32  H6  UNL     1      39.465  45.513  14.219  1.00  0.00     0.210 HD
ENDBRANCH   4  31
TORSDOF 13
ENDMDL
MODEL 2
REMARK VINA RESULT: -7.710290148      0.625      1.018
REMARK  13 active torsions:
REMARK  status: ('A' for Active; 'I' for Inactive)
REMARK    1  A    between atoms: O1_2  and  C2_3 
REMARK    2  A    between atoms: C2_3  and  S1_5 
REMARK    3  A    between atoms: S1_5  and  C3_6 
REMARK    4  A    between atoms: C3_6  and  C4_7 
REMARK    5  A    between atoms: C4_7  and  C5_8 
REMARK    6  A    between atoms: C5_8  and  C6_9 
REMARK    7  A    between atoms: C6_9  and  C7_10 
REMARK    8  A    between atoms: C7_10  and  C8_11 
REMARK    9  A    between atoms: C8_11  and  C9_12 
REMARK   10  A    between atoms: C9_12  and  C10_13 
REMARK   11  A    between atoms: C11_17  and  C12_18 
REMARK   12  A    between atoms: C19_26  and  O6_27 
REMARK   13  A    between atoms: C21_30  and  O7_31 
ROOT
HETATM    1  C9  UNL     1      38.353  41.606  11.565  1.00  0.00     0.193 C 
HETATM    2  O5  UNL     1      37.454  42.686  11.618  1.00  0.00    -0.350 OA
HETATM    3  C11 UNL     1      37.441  43.548  12.635  1.00  0.00     0.185 C 
HETATM    4  C19 UNL     1      38.770  43.844  13.224  1.00  0.00     0.154 C 
HETATM    5  C20 UNL     1      39.466  42.532  13.605  1.00  0.00     0.070 C 
HETATM    6  C21 UNL     1      39.646  41.834  12.248  1.00  0.00     0.170 C 
ENDROOT
BRANCH   1   7
HETATM    7  C8  UNL     1      37.613  40.471  12.173  1.00  0.00     0.024 C 
BRANCH   7   8
HETATM    8  C7  UNL     1      37.851  39.095  11.871  1.00  0.00    -0.005 C 
BRANCH   8   9
HETATM    9  C6  UNL     1      37.107  38.064  11.678  1.00  0.00    -0.027 C 
BRANCH   9  10
HETATM   10  C5  UNL     1      37.828  36.682  11.617  1.00  0.00     0.028 C 
BRANCH  10  11
HETATM   11  C4  UNL     1      36.729  35.701  11.789  1.00  0.00     0.014 C 
BRANCH  11  12
HETATM   12  C3  UNL     1      37.154  34.342  12.245  1.00  0.00     0.085 C 
BRANCH  12  13
HETATM   13  S1  UNL     1      35.940  33.450  13.171  1.00  0.00    -0.061 SA
BRANCH  13  14
HETATM   14  C2  UNL     1      36.051  31.691  13.123  1.00  0.00     0.321 C 
HETATM   15  O2  UNL     1      35.089  30.974  13.479  1.00  0.00    -0.252 OA
BRANCH  14  16
HETATM   16  O1  UNL     1      37.194  31.014  12.699  1.00  0.00    -0.318 OA
HETATM   17  C1  UNL     1      38.361  30.960  13.518  1.00  0.00     0.214 C 
ENDBRANCH  14  16
ENDBRANCH  13  14
ENDBRANCH  12  13
ENDBRANCH  11  12
ENDBRANCH  10  11
ENDBRANCH   9  10
ENDBRANCH   8   9
ENDBRANCH   7   8
ENDBRANCH   1   7
BRANCH   1  18
HETATM   18  C10 UNL     1      38.551  41.304  10.097  1.00  0.00     0.216 C 
HETATM   19  O3  UNL     1      37.542  41.613   9.356  1.00  0.00    -0.645 OA
HETATM   20  O4  UNL     1      39.594  40.775   9.452  1.00  0.00    -0.645 OA
ENDBRANCH   1  18
BRANCH   6  21
HETATM   21  O7  UNL     1      40.512  42.665  11.531  1.00  0.00    -0.392 OA
ATOM     22  H7  UNL     1      40.134  43.510  11.318  1.00  0.00     0.210 HD
ENDBRANCH   6  21
BRANCH   3  23
HETATM   23  C12 UNL     1      36.360  43.246  13.604  1.00  0.00    -0.026 A 
HETATM   24  C13 UNL     1      35.064  43.611  13.210  1.00  0.00     0.010 A 
HETATM   25  C14 UNL     1      33.976  43.386  14.024  1.00  0.00     0.009 A 
HETATM   26  C15 UNL     1      34.119  42.801  15.246  1.00  0.00    -0.045 A 
HETATM   27  C16 UNL     1      32.932  42.553  16.142  1.00  0.00     0.049 C 
HETATM   28  C17 UNL     1      35.379  42.438  15.649  1.00  0.00     0.017 A 
HETATM   29 BR1  UNL     1      35.697  41.614  17.333  1.00  0.00    -0.051 Br
HETATM   30  C18 UNL     1      36.480  42.665  14.820  1.00  0.00     0.029 A 
ENDBRANCH   3  23
BRANCH   4  31
HETATM   31  O6  UNL     1      38.843  44.818  14.171  1.00  0.00    -0.393 OA
ATOM     32  H6  UNL     1      39.660  44.917  14.644  1.00  0.00     0.210 HD
ENDBRANCH   4  31
TORSDOF 13
ENDMDL
MODEL 3
REMARK VINA RESULT: -7.560631576      1.598      1.823
REMARK  13 active torsions:
REMARK  status: ('A' for Active; 'I' for Inactive)
REMARK    1  A    between atoms: O1_2  and  C2_3 
REMARK    2  A    between atoms: C2_3  and  S1_5 
REMARK    3  A    between atoms: S1_5  and  C3_6 
REMARK    4  A    between atoms: C3_6  and  C4_7 
REMARK    5  A    between atoms: C4_7  and  C5_8 
REMARK    6  A    between atoms: C5_8  and  C6_9 
REMARK    7  A    between atoms: C6_9  and  C7_10 
REMARK    8  A    between atoms: C7_10  and  C8_11 
REMARK    9  A    between atoms: C8_11  and  C9_12 
REMARK   10  A    between atoms: C9_12  and  C10_13 
REMARK   11  A    between atoms: C11_17  and  C12_18 
REMARK   12  A    between atoms: C19_26  and  O6_27 
REMARK   13  A    between atoms: C21_30  and  O7_31 
ROOT
HETATM    1  C9  UNL     1      38.864  42.112  11.039  1.00  0.00     0.193 C 
HETATM    2  O5  UNL     1      37.779  42.900  10.613  1.00  0.00    -0.350 OA
HETATM    3  C11 UNL     1      37.520  44.095  11.144  1.00  0.00     0.185 C 
HETATM    4  C19 UNL     1      38.716  44.882  11.534  1.00  0.00     0.154 C 
HETATM    5  C20 UNL     1      39.608  44.038  12.453  1.00  0.00     0.070 C 
HETATM    6  C21 UNL     1      40.029  42.873  11.544  1.00  0.00     0.170 C 
ENDROOT
BRANCH   1   7
HETATM    7  C8  UNL     1      38.298  41.230  12.090  1.00  0.00     0.024 C 
BRANCH   7   8
HETATM    8  C7  UNL     1      37.366  40.175  11.846  1.00  0.00    -0.005 C 
BRANCH   8   9
HETATM    9  C6  UNL     1      37.300  38.929  12.158  1.00  0.00    -0.027 C 
BRANCH   9  10
HETATM   10  C5  UNL     1      38.102  37.938  11.257  1.00  0.00     0.028 C 
BRANCH  10  11
HETATM   11  C4  UNL     1      37.276  36.707  11.260  1.00  0.00     0.014 C 
BRANCH  11  12
HETATM   12  C3  UNL     1      37.554  35.756  12.379  1.00  0.00     0.085 C 
BRANCH  12  13
HETATM   13  S1  UNL     1      36.310  34.528  12.644  1.00  0.00    -0.061 SA
BRANCH  13  14
HETATM   14  C2  UNL     1      36.863  32.857  12.742  1.00  0.00     0.321 C 
HETATM   15  O2  UNL     1      37.756  32.427  11.979  1.00  0.00    -0.252 OA
BRANCH  14  16
HETATM   16  O1  UNL     1      36.342  31.938  13.652  1.00  0.00    -0.318 OA
HETATM   17  C1  UNL     1      35.394  30.954  13.241  1.00  0.00     0.214 C 
ENDBRANCH  14  16
ENDBRANCH  13  14
ENDBRANCH  12  13
ENDBRANCH  11  12
ENDBRANCH  10  11
ENDBRANCH   9  10
ENDBRANCH   8   9
ENDBRANCH   7   8
ENDBRANCH   1   7
BRANCH   1  18
HETATM   18  C10 UNL     1      39.239  41.250   9.855  1.00  0.00     0.216 C 
HETATM   19  O3  UNL     1      40.316  40.562  10.026  1.00  0.00    -0.645 OA
HETATM   20  O4  UNL     1      38.637  41.088   8.674  1.00  0.00    -0.645 OA
ENDBRANCH   1  18
BRANCH   6  21
HETATM   21  O7  UNL     1      40.785  43.467  10.529  1.00  0.00    -0.392 OA
ATOM     22  H7  UNL     1      41.550  43.931  10.850  1.00  0.00     0.210 HD
ENDBRANCH   6  21
BRANCH   3  23
HETATM   23  C12 UNL     1      36.435  44.030  12.153  1.00  0.00    -0.026 A 
HETATM   24  C13 UNL     1      35.409  43.110  11.891  1.00  0.00     0.010 A 
HETATM   25  C14 UNL     1      34.344  42.959  12.750  1.00  0.00     0.009 A 
HETATM   26  C15 UNL     1      34.245  43.700  13.888  1.00  0.00    -0.045 A 
HETATM   27  C16 UNL     1      33.081  43.540  14.832  1.00  0.00     0.049 C 
HETATM   28  C17 UNL     1      35.239  44.607  14.162  1.00  0.00     0.017 A 
HETATM   29 BR1  UNL     1      35.206  45.694  15.721  1.00  0.00    -0.051 Br
HETATM   30  C18 UNL     1      36.319  44.756  13.289  1.00  0.00     0.029 A 
ENDBRANCH   3  23
BRANCH   4  31
HETATM   31  O6  UNL     1      38.526  46.162  11.953  1.00  0.00    -0.393 OA
ATOM     32  H6  UNL     1      39.235  46.586  12.421  1.00  0.00     0.210 HD
ENDBRANCH   4  31
TORSDOF 13
ENDMDL
MODEL 4
REMARK VINA RESULT: -7.446531097      1.064      1.344
REMARK  13 active torsions:
REMARK  status: ('A' for Active; 'I' for Inactive)
REMARK    1  A    between atoms: O1_2  and  C2_3 
REMARK    2  A    between atoms: C2_3  and  S1_5 
REMARK    3  A    between atoms: S1_5  and  C3_6 
REMARK    4  A    between atoms: C3_6  and  C4_7 
REMARK    5  A    between atoms: C4_7  and  C5_8 
REMARK    6  A    between atoms: C5_8  and  C6_9 
REMARK    7  A    between atoms: C6_9  and  C7_10 
REMARK    8  A    between atoms: C7_10  and  C8_11 
REMARK    9  A    between atoms: C8_11  and  C9_12 
REMARK   10  A    between atoms: C9_12  and  C10_13 
REMARK   11  A    between atoms: C11_17  and  C12_18 
REMARK   12  A    between atoms: C19_26  and  O6_27 
REMARK   13  A    between atoms: C21_30  and  O7_31 
ROOT
HETATM    1  C9  UNL     1      38.212  41.839  11.593  1.00  0.00     0.193 C 
HETATM    2  O5  UNL     1      37.296  42.900  11.711  1.00  0.00    -0.350 OA
HETATM    3  C11 UNL     1      37.274  43.703  12.775  1.00  0.00     0.185 C 
HETATM    4  C19 UNL     1      38.602  43.987  13.375  1.00  0.00     0.154 C 
HETATM    5  C20 UNL     1      39.321  42.667  13.678  1.00  0.00     0.070 C 
HETATM    6  C21 UNL     1      39.505  42.050  12.283  1.00  0.00     0.170 C 
ENDROOT
BRANCH   1   7
HETATM    7  C8  UNL     1      37.494  40.660  12.139  1.00  0.00     0.024 C 
BRANCH   7   8
HETATM    8  C7  UNL     1      37.768  39.306  11.775  1.00  0.00    -0.005 C 
BRANCH   8   9
HETATM    9  C6  UNL     1      37.260  38.163  12.074  1.00  0.00    -0.027 C 
BRANCH   9  10
HETATM   10  C5  UNL     1      37.778  36.933  11.267  1.00  0.00     0.028 C 
BRANCH  10  11
HETATM   11  C4  UNL     1      36.701  35.926  11.424  1.00  0.00     0.014 C 
BRANCH  11  12
HETATM   12  C3  UNL     1      36.725  35.163  12.709  1.00  0.00     0.085 C 
BRANCH  12  13
HETATM   13  S1  UNL     1      37.969  33.912  12.814  1.00  0.00    -0.061 SA
BRANCH  13  14
HETATM   14  C2  UNL     1      37.403  32.245  12.905  1.00  0.00     0.321 C 
HETATM   15  O2  UNL     1      37.959  31.337  12.248  1.00  0.00    -0.252 OA
BRANCH  14  16
HETATM   16  O1  UNL     1      36.321  31.853  13.694  1.00  0.00    -0.318 OA
HETATM   17  C1  UNL     1      35.314  30.983  13.180  1.00  0.00     0.214 C 
ENDBRANCH  14  16
ENDBRANCH  13  14
ENDBRANCH  12  13
ENDBRANCH  11  12
ENDBRANCH  10  11
ENDBRANCH   9  10
ENDBRANCH   8   9
ENDBRANCH   7   8
ENDBRANCH   1   7
BRANCH   1  18
HETATM   18  C10 UNL     1      38.407  41.624  10.110  1.00  0.00     0.216 C 
HETATM   19  O3  UNL     1      37.350  41.839   9.404  1.00  0.00    -0.645 OA
HETATM   20  O4  UNL     1      39.490  41.254   9.421  1.00  0.00    -0.645 OA
ENDBRANCH   1  18
BRANCH   6  21
HETATM   21  O7  UNL     1      40.354  42.934  11.611  1.00  0.00    -0.392 OA
ATOM     22  H7  UNL     1      41.275  42.781  11.790  1.00  0.00     0.210 HD
ENDBRANCH   6  21
BRANCH   3  23
HETATM   23  C12 UNL     1      36.203  43.328  13.731  1.00  0.00    -0.026 A 
HETATM   24  C13 UNL     1      36.525  42.314  14.644  1.00  0.00     0.010 A 
HETATM   25  C14 UNL     1      35.615  41.875  15.579  1.00  0.00     0.009 A 
HETATM   26  C15 UNL     1      34.364  42.409  15.651  1.00  0.00    -0.045 A 
HETATM   27  C16 UNL     1      33.362  41.932  16.671  1.00  0.00     0.049 C 
HETATM   28  C17 UNL     1      34.030  43.402  14.765  1.00  0.00     0.017 A 
HETATM   29 BR1  UNL     1      32.314  44.221  14.772  1.00  0.00    -0.051 Br
HETATM   30  C18 UNL     1      34.957  43.847  13.818  1.00  0.00     0.029 A 
ENDBRANCH   3  23
BRANCH   4  31
HETATM   31  O6  UNL     1      38.664  44.906  14.376  1.00  0.00    -0.393 OA
ATOM     32  H6  UNL     1      37.846  45.196  14.763  1.00  0.00     0.210 HD
ENDBRANCH   4  31
TORSDOF 13
ENDMDL
MODEL 5
REMARK VINA RESULT: -7.240470209      2.873      5.093
REMARK  13 active torsions:
REMARK  status: ('A' for Active; 'I' for Inactive)
REMARK    1  A    between atoms: O1_2  and  C2_3 
REMARK    2  A    between atoms: C2_3  and  S1_5 
REMARK    3  A    between atoms: S1_5  and  C3_6 
REMARK    4  A    between atoms: C3_6  and  C4_7 
REMARK    5  A    between atoms: C4_7  and  C5_8 
REMARK    6  A    between atoms: C5_8  and  C6_9 
REMARK    7  A    between atoms: C6_9  and  C7_10 
REMARK    8  A    between atoms: C7_10  and  C8_11 
REMARK    9  A    between atoms: C8_11  and  C9_12 
REMARK   10  A    between atoms: C9_12  and  C10_13 
REMARK   11  A    between atoms: C11_17  and  C12_18 
REMARK   12  A    between atoms: C19_26  and  O6_27 
REMARK   13  A    between atoms: C21_30  and  O7_31 
ROOT
HETATM    1  C9  UNL     1      37.437  43.806  13.227  1.00  0.00     0.193 C 
HETATM    2  O5  UNL     1      38.700  43.193  13.325  1.00  0.00    -0.350 OA
HETATM    3  C11 UNL     1      39.611  43.289  12.356  1.00  0.00     0.185 C 
HETATM    4  C19 UNL     1      39.627  44.585  11.635  1.00  0.00     0.154 C 
HETATM    5  C20 UNL     1      38.219  44.903  11.118  1.00  0.00     0.070 C 
HETATM    6  C21 UNL     1      37.403  45.041  12.414  1.00  0.00     0.170 C 
ENDROOT
BRANCH   1   7
HETATM    7  C8  UNL     1      36.555  42.758  12.655  1.00  0.00     0.024 C 
BRANCH   7   8
HETATM    8  C7  UNL     1      36.294  41.494  13.270  1.00  0.00    -0.005 C 
BRANCH   8   9
HETATM    9  C6  UNL     1      36.874  40.347  13.271  1.00  0.00    -0.027 C 
BRANCH   9  10
HETATM   10  C5  UNL     1      36.707  39.476  11.987  1.00  0.00     0.028 C 
BRANCH  10  11
HETATM   11  C4  UNL     1      37.203  38.140  12.397  1.00  0.00     0.014 C 
BRANCH  11  12
HETATM   12  C3  UNL     1      37.263  37.121  11.305  1.00  0.00     0.085 C 
BRANCH  12  13
HETATM   13  S1  UNL     1      36.381  35.624  11.631  1.00  0.00    -0.061 SA
BRANCH  13  14
HETATM   14  C2  UNL     1      37.240  34.388  12.550  1.00  0.00     0.321 C 
HETATM   15  O2  UNL     1      38.371  34.615  13.035  1.00  0.00    -0.252 OA
BRANCH  14  16
HETATM   16  O1  UNL     1      36.721  33.114  12.778  1.00  0.00    -0.318 OA
HETATM   17  C1  UNL     1      36.844  32.489  14.054  1.00  0.00     0.214 C 
ENDBRANCH  14  16
ENDBRANCH  13  14
ENDBRANCH  12  13
ENDBRANCH  11  12
ENDBRANCH  10  11
ENDBRANCH   9  10
ENDBRANCH   8   9
ENDBRANCH   7   8
ENDBRANCH   1   7
BRANCH   1  18
HETATM   18  C10 UNL     1      36.993  44.068  14.648  1.00  0.00     0.216 C 
HETATM   19  O3  UNL     1      37.825  43.656  15.543  1.00  0.00    -0.645 OA
HETATM   20  O4  UNL     1      35.889  44.655  15.118  1.00  0.00    -0.645 OA
ENDBRANCH   1  18
BRANCH   6  21
HETATM   21  O7  UNL     1      37.953  46.149  13.065  1.00  0.00    -0.392 OA
ATOM     22  H7  UNL     1      38.275  45.952  13.938  1.00  0.00     0.210 HD
ENDBRANCH   6  21
BRANCH   3  23
HETATM   23  C12 UNL     1      39.641  42.077  11.502  1.00  0.00    -0.026 A 
HETATM   24  C13 UNL     1      40.197  40.929  12.087  1.00  0.00     0.010 A 
HETATM   25  C14 UNL     1      40.285  39.742  11.395  1.00  0.00     0.009 A 
HETATM   26  C15 UNL     1      39.837  39.638  10.113  1.00  0.00    -0.045 A 
HETATM   27  C16 UNL     1      39.931  38.342   9.349  1.00  0.00     0.049 C 
HETATM   28  C17 UNL     1      39.290  40.750   9.523  1.00  0.00     0.017 A 
HETATM   29 BR1  UNL     1      38.630  40.721   7.740  1.00  0.00    -0.051 Br
HETATM   30  C18 UNL     1      39.200  41.953  10.229  1.00  0.00     0.029 A 
ENDBRANCH   3  23
BRANCH   4  31
HETATM   31  O6  UNL     1      40.621  44.797  10.731  1.00  0.00    -0.393 OA
ATOM     32  H6  UNL     1      40.876  45.695  10.555  1.00  0.00     0.210 HD
ENDBRANCH   4  31
TORSDOF 13
ENDMDL
