MODEL 1
REMARK VINA RESULT: -6.363635440      0.000      0.000
REMARK  11 active torsions:
REMARK  status: ('A' for Active; 'I' for Inactive)
REMARK    1  A    between atoms: C2_2  and  S1_5 
REMARK    2  A    between atoms: S1_5  and  C5_6 
REMARK    3  A    between atoms: C5_6  and  C6_7 
REMARK    4  A    between atoms: C7_9  and  C8_10 
REMARK    5  A    between atoms: C9_12  and  C10_13 
REMARK    6  A    between atoms: C10_13  and  C11_14 
REMARK    7  A    between atoms: C12_15  and  C13_16 
REMARK    8  A    between atoms: C13_16  and  C14_17 
REMARK    9  A    between atoms: C16_21  and  C17_22 
REMARK   10  A    between atoms: C21_27  and  O4_28 
REMARK   11  A    between atoms: C22_30  and  O5_31 
ROOT
HETATM    1  C8  UNL     1      38.062  44.289  12.714  1.00  0.00     0.187 C 
HETATM    2  O2  UNL     1      37.563  43.089  12.133  1.00  0.00    -0.373 OA
HETATM    3  C9  UNL     1      38.482  42.602  11.194  1.00  0.00     0.149 C 
HETATM    4  C15 UNL     1      38.690  43.658  10.104  1.00  0.00     0.201 C 
HETATM    5  O3  UNL     1      37.775  44.659  10.351  1.00  0.00    -0.376 OA
HETATM    6  C16 UNL     1      38.141  45.253  11.598  1.00  0.00     0.193 C 
ENDROOT
BRANCH   1   7
HETATM    7  C7  UNL     1      37.188  44.659  13.885  1.00  0.00     0.185 C 
HETATM    8  O1  UNL     1      36.074  43.809  13.824  1.00  0.00    -0.372 OA
HETATM    9  C6  UNL     1      35.646  43.601  15.133  1.00  0.00     0.162 C 
HETATM   10  C22 UNL     1      36.898  43.339  15.890  1.00  0.00     0.179 C 
HETATM   11  C21 UNL     1      37.896  44.236  15.183  1.00  0.00     0.181 C 
BRANCH   9  12
HETATM   12  C5  UNL     1      34.761  42.354  15.202  1.00  0.00     0.109 C 
BRANCH  12  13
HETATM   13  S1  UNL     1      33.216  42.799  16.025  1.00  0.00    -0.158 SA
BRANCH  13  14
HETATM   14  C2  UNL     1      33.089  42.056  17.672  1.00  0.00    -0.003 C 
HETATM   15  C1  UNL     1      32.114  40.884  17.666  1.00  0.00     0.026 C 
HETATM   16  C3  UNL     1      34.401  41.480  18.177  1.00  0.00     0.026 C 
HETATM   17  C4  UNL     1      32.613  43.087  18.648  1.00  0.00     0.026 C 
ENDBRANCH  13  14
ENDBRANCH  12  13
ENDBRANCH   9  12
BRANCH  10  18
HETATM   18  O5  UNL     1      36.714  43.705  17.235  1.00  0.00    -0.390 OA
ATOM     19  H5  UNL     1      35.827  43.494  17.501  1.00  0.00     0.210 HD
ENDBRANCH  10  18
BRANCH  11  20
HETATM   20  O4  UNL     1      38.987  43.412  14.880  1.00  0.00    -0.390 OA
ATOM     21  H4  UNL     1      39.445  43.178  15.679  1.00  0.00     0.210 HD
ENDBRANCH  11  20
ENDBRANCH   1   7
BRANCH   6  22
HETATM   22  C17 UNL     1      37.303  46.495  11.736  1.00  0.00     0.014 A 
HETATM   23  C18 UNL     1      36.181  46.818  11.005  1.00  0.00     0.018 A 
HETATM   24  C19 UNL     1      35.598  47.993  11.253  1.00  0.00     0.008 A 
HETATM   25  C20 UNL     1      36.163  48.786  12.217  1.00  0.00     0.050 A 
HETATM   26  S2  UNL     1      37.487  47.859  12.741  1.00  0.00    -0.104 SA
ENDBRANCH   6  22
BRANCH   3  27
HETATM   27  C10 UNL     1      39.835  42.305  11.742  1.00  0.00     0.061 C 
BRANCH  27  28
HETATM   28  C11 UNL     1      40.206  40.918  11.290  1.00  0.00    -0.028 C 
HETATM   29  C12 UNL     1      39.261  40.059  11.005  1.00  0.00    -0.030 C 
BRANCH  29  30
HETATM   30  C13 UNL     1      39.604  38.688  10.559  1.00  0.00     0.037 C 
BRANCH  30  31
HETATM   31  C14 UNL     1      38.485  37.751  10.926  1.00  0.00     0.089 C 
HETATM   32 BR1  UNL     1      37.191  38.793  11.936  1.00  0.00    -0.096 Br
ENDBRANCH  30  31
ENDBRANCH  29  30
ENDBRANCH  27  28
ENDBRANCH   3  27
TORSDOF 11
ENDMDL
MODEL 2
REMARK VINA RESULT: -6.304362213      2.868      7.303
REMARK  11 active torsions:
REMARK  status: ('A' for Active; 'I' for Inactive)
REMARK    1  A    between atoms: C2_2  and  S1_5 
REMARK    2  A    between atoms: S1_5  and  C5_6 
REMARK    3  A    between atoms: C5_6  and  C6_7 
REMARK    4  A    between atoms: C7_9  and  C8_10 
REMARK    5  A    between atoms: C9_12  and  C10_13 
REMARK    6  A    between atoms: C10_13  and  C11_14 
REMARK    7  A    between atoms: C12_15  and  C13_16 
REMARK    8  A    between atoms: C13_16  and  C14_17 
REMARK    9  A    between atoms: C16_21  and  C17_22 
REMARK   10  A    between atoms: C21_27  and  O4_28 
REMARK   11  A    between atoms: C22_30  and  O5_31 
ROOT
HETATM    1  C8  UNL     1      36.155  45.257  14.843  1.00  0.00     0.187 C 
HETATM    2  O2  UNL     1      35.945  45.697  13.505  1.00  0.00    -0.373 OA
HETATM    3  C9  UNL     1      35.616  47.058  13.504  1.00  0.00     0.149 C 
HETATM    4  C15 UNL     1      34.338  47.266  14.323  1.00  0.00     0.201 C 
HETATM    5  O3  UNL     1      33.874  46.007  14.647  1.00  0.00    -0.376 OA
HETATM    6  C16 UNL     1      34.848  45.420  15.512  1.00  0.00     0.193 C 
ENDROOT
BRANCH   1   7
HETATM    7  C7  UNL     1      36.744  43.870  14.809  1.00  0.00     0.185 C 
HETATM    8  O1  UNL     1      36.615  43.424  13.486  1.00  0.00    -0.372 OA
HETATM    9  C6  UNL     1      37.683  42.564  13.237  1.00  0.00     0.162 C 
HETATM   10  C22 UNL     1      38.861  43.270  13.805  1.00  0.00     0.179 C 
HETATM   11  C21 UNL     1      38.265  43.974  15.010  1.00  0.00     0.181 C 
BRANCH   9  12
HETATM   12  C5  UNL     1      37.886  42.404  11.729  1.00  0.00     0.109 C 
BRANCH  12  13
HETATM   13  S1  UNL     1      37.867  40.641  11.338  1.00  0.00    -0.158 SA
BRANCH  13  14
HETATM   14  C2  UNL     1      39.236  40.176  10.247  1.00  0.00    -0.003 C 
HETATM   15  C1  UNL     1      40.573  40.614  10.835  1.00  0.00     0.026 C 
HETATM   16  C3  UNL     1      39.362  38.676  10.043  1.00  0.00     0.026 C 
HETATM   17  C4  UNL     1      39.049  40.826   8.910  1.00  0.00     0.026 C 
ENDBRANCH  13  14
ENDBRANCH  12  13
ENDBRANCH   9  12
BRANCH  10  18
HETATM   18  O5  UNL     1      39.838  42.328  14.170  1.00  0.00    -0.390 OA
ATOM     19  H5  UNL     1      39.800  41.588  13.575  1.00  0.00     0.210 HD
ENDBRANCH  10  18
BRANCH  11  20
HETATM   20  O4  UNL     1      38.667  45.311  14.894  1.00  0.00    -0.390 OA
ATOM     21  H4  UNL     1      38.343  45.809  15.637  1.00  0.00     0.210 HD
ENDBRANCH  11  20
ENDBRANCH   1   7
BRANCH   6  22
HETATM   22  C17 UNL     1      34.223  44.165  16.058  1.00  0.00     0.014 A 
HETATM   23  C18 UNL     1      33.286  43.371  15.434  1.00  0.00     0.018 A 
HETATM   24  C19 UNL     1      32.824  42.316  16.107  1.00  0.00     0.008 A 
HETATM   25  C20 UNL     1      33.318  42.104  17.368  1.00  0.00     0.050 A 
HETATM   26  S2  UNL     1      34.413  43.389  17.564  1.00  0.00    -0.104 SA
ENDBRANCH   6  22
BRANCH   3  27
HETATM   27  C10 UNL     1      36.643  47.950  14.111  1.00  0.00     0.061 C 
BRANCH  27  28
HETATM   28  C11 UNL     1      36.954  49.025  13.105  1.00  0.00    -0.028 C 
HETATM   29  C12 UNL     1      36.609  48.856  11.854  1.00  0.00    -0.030 C 
BRANCH  29  30
HETATM   30  C13 UNL     1      36.907  49.902  10.847  1.00  0.00     0.037 C 
BRANCH  30  31
HETATM   31  C14 UNL     1      36.237  49.546   9.548  1.00  0.00     0.089 C 
HETATM   32 BR1  UNL     1      34.634  48.542  10.001  1.00  0.00    -0.096 Br
ENDBRANCH  30  31
ENDBRANCH  29  30
ENDBRANCH  27  28
ENDBRANCH   3  27
TORSDOF 11
ENDMDL
MODEL 3
REMARK VINA RESULT: -6.284242933      0.996      1.413
REMARK  11 active torsions:
REMARK  status: ('A' for Active; 'I' for Inactive)
REMARK    1  A    between atoms: C2_2  and  S1_5 
REMARK    2  A    between atoms: S1_5  and  C5_6 
REMARK    3  A    between atoms: C5_6  and  C6_7 
REMARK    4  A    between atoms: C7_9  and  C8_10 
REMARK    5  A    between atoms: C9_12  and  C10_13 
REMARK    6  A    between atoms: C10_13  and  C11_14 
REMARK    7  A    between atoms: C12_15  and  C13_16 
REMARK    8  A    between atoms: C13_16  and  C14_17 
REMARK    9  A    between atoms: C16_21  and  C17_22 
REMARK   10  A    between atoms: C21_27  and  O4_28 
REMARK   11  A    between atoms: C22_30  and  O5_31 
ROOT
HETATM    1  C8  UNL     1      38.141  44.421  12.736  1.00  0.00     0.187 C 
HETATM    2  O2  UNL     1      37.618  43.195  12.234  1.00  0.00    -0.373 OA
HETATM    3  C9  UNL     1      38.487  42.674  11.267  1.00  0.00     0.149 C 
HETATM    4  C15 UNL     1      38.628  43.684  10.124  1.00  0.00     0.201 C 
HETATM    5  O3  UNL     1      37.721  44.691  10.380  1.00  0.00    -0.376 OA
HETATM    6  C16 UNL     1      38.152  45.338  11.578  1.00  0.00     0.193 C 
ENDROOT
BRANCH   1   7
HETATM    7  C7  UNL     1      37.331  44.836  13.937  1.00  0.00     0.185 C 
HETATM    8  O1  UNL     1      36.077  44.224  13.793  1.00  0.00    -0.372 OA
HETATM    9  C6  UNL     1      35.592  43.975  15.074  1.00  0.00     0.162 C 
HETATM   10  C22 UNL     1      36.756  43.407  15.803  1.00  0.00     0.179 C 
HETATM   11  C21 UNL     1      37.920  44.162  15.188  1.00  0.00     0.181 C 
BRANCH   9  12
HETATM   12  C5  UNL     1      34.485  42.920  15.020  1.00  0.00     0.109 C 
BRANCH  12  13
HETATM   13  S1  UNL     1      32.897  43.769  14.889  1.00  0.00    -0.158 SA
BRANCH  13  14
HETATM   14  C2  UNL     1      32.247  44.243  16.512  1.00  0.00    -0.003 C 
HETATM   15  C1  UNL     1      33.092  45.348  17.135  1.00  0.00     0.026 C 
HETATM   16  C3  UNL     1      30.837  44.803  16.457  1.00  0.00     0.026 C 
HETATM   17  C4  UNL     1      32.253  43.050  17.417  1.00  0.00     0.026 C 
ENDBRANCH  13  14
ENDBRANCH  12  13
ENDBRANCH   9  12
BRANCH  10  18
HETATM   18  O5  UNL     1      36.620  43.670  17.177  1.00  0.00    -0.390 OA
ATOM     19  H5  UNL     1      37.482  43.725  17.574  1.00  0.00     0.210 HD
ENDBRANCH  10  18
BRANCH  11  20
HETATM   20  O4  UNL     1      38.840  43.178  14.805  1.00  0.00    -0.390 OA
ATOM     21  H4  UNL     1      38.657  42.896  13.916  1.00  0.00     0.210 HD
ENDBRANCH  11  20
ENDBRANCH   1   7
BRANCH   6  22
HETATM   22  C17 UNL     1      37.314  46.581  11.711  1.00  0.00     0.014 A 
HETATM   23  C18 UNL     1      36.123  46.844  11.073  1.00  0.00     0.018 A 
HETATM   24  C19 UNL     1      35.551  48.030  11.295  1.00  0.00     0.008 A 
HETATM   25  C20 UNL     1      36.197  48.893  12.141  1.00  0.00     0.050 A 
HETATM   26  S2  UNL     1      37.578  48.014  12.597  1.00  0.00    -0.104 SA
ENDBRANCH   6  22
BRANCH   3  27
HETATM   27  C10 UNL     1      39.870  42.405  11.750  1.00  0.00     0.061 C 
BRANCH  27  28
HETATM   28  C11 UNL     1      40.249  41.027  11.278  1.00  0.00    -0.028 C 
HETATM   29  C12 UNL     1      39.311  40.143  11.051  1.00  0.00    -0.030 C 
BRANCH  29  30
HETATM   30  C13 UNL     1      39.662  38.780  10.587  1.00  0.00     0.037 C 
BRANCH  30  31
HETATM   31  C14 UNL     1      38.574  37.822  10.988  1.00  0.00     0.089 C 
HETATM   32 BR1  UNL     1      37.248  38.858  11.964  1.00  0.00    -0.096 Br
ENDBRANCH  30  31
ENDBRANCH  29  30
ENDBRANCH  27  28
ENDBRANCH   3  27
TORSDOF 11
ENDMDL
MODEL 4
REMARK VINA RESULT: -6.149534046      2.563      6.499
REMARK  11 active torsions:
REMARK  status: ('A' for Active; 'I' for Inactive)
REMARK    1  A    between atoms: C2_2  and  S1_5 
REMARK    2  A    between atoms: S1_5  and  C5_6 
REMARK    3  A    between atoms: C5_6  and  C6_7 
REMARK    4  A    between atoms: C7_9  and  C8_10 
REMARK    5  A    between atoms: C9_12  and  C10_13 
REMARK    6  A    between atoms: C10_13  and  C11_14 
REMARK    7  A    between atoms: C12_15  and  C13_16 
REMARK    8  A    between atoms: C13_16  and  C14_17 
REMARK    9  A    between atoms: C16_21  and  C17_22 
REMARK   10  A    between atoms: C21_27  and  O4_28 
REMARK   11  A    between atoms: C22_30  and  O5_31 
ROOT
HETATM    1  C8  UNL     1      36.356  45.256  13.687  1.00  0.00     0.187 C 
HETATM    2  O2  UNL     1      36.498  44.519  14.898  1.00  0.00    -0.373 OA
HETATM    3  C9  UNL     1      35.233  44.273  15.449  1.00  0.00     0.149 C 
HETATM    4  C15 UNL     1      34.542  45.610  15.735  1.00  0.00     0.201 C 
HETATM    5  O3  UNL     1      35.479  46.592  15.489  1.00  0.00    -0.376 OA
HETATM    6  C16 UNL     1      35.764  46.548  14.090  1.00  0.00     0.193 C 
ENDROOT
BRANCH   1   7
HETATM    7  C7  UNL     1      37.690  45.296  12.987  1.00  0.00     0.185 C 
HETATM    8  O1  UNL     1      38.430  44.220  13.496  1.00  0.00    -0.372 OA
HETATM    9  C6  UNL     1      39.282  43.791  12.480  1.00  0.00     0.162 C 
HETATM   10  C22 UNL     1      38.420  43.758  11.270  1.00  0.00     0.179 C 
HETATM   11  C21 UNL     1      37.484  44.928  11.508  1.00  0.00     0.181 C 
BRANCH   9  12
HETATM   12  C5  UNL     1      39.773  42.372  12.772  1.00  0.00     0.109 C 
BRANCH  12  13
HETATM   13  S1  UNL     1      38.518  41.207  12.198  1.00  0.00    -0.158 SA
BRANCH  13  14
HETATM   14  C2  UNL     1      39.197  40.006  11.025  1.00  0.00    -0.003 C 
HETATM   15  C1  UNL     1      39.073  40.514   9.593  1.00  0.00     0.026 C 
HETATM   16  C3  UNL     1      40.678  39.737  11.225  1.00  0.00     0.026 C 
HETATM   17  C4  UNL     1      38.455  38.711  11.153  1.00  0.00     0.026 C 
ENDBRANCH  13  14
ENDBRANCH  12  13
ENDBRANCH   9  12
BRANCH  10  18
HETATM   18  O5  UNL     1      39.216  43.940  10.125  1.00  0.00    -0.390 OA
ATOM     19  H5  UNL     1      38.690  44.325   9.434  1.00  0.00     0.210 HD
ENDBRANCH  10  18
BRANCH  11  20
HETATM   20  O4  UNL     1      36.193  44.415  11.325  1.00  0.00    -0.390 OA
ATOM     21  H4  UNL     1      36.152  43.524  11.654  1.00  0.00     0.210 HD
ENDBRANCH  11  20
ENDBRANCH   1   7
BRANCH   6  22
HETATM   22  C17 UNL     1      36.584  47.773  13.789  1.00  0.00     0.014 A 
HETATM   23  C18 UNL     1      37.413  48.446  14.659  1.00  0.00     0.018 A 
HETATM   24  C19 UNL     1      38.025  49.542  14.207  1.00  0.00     0.008 A 
HETATM   25  C20 UNL     1      37.780  49.913  12.911  1.00  0.00     0.050 A 
HETATM   26  S2  UNL     1      36.704  48.714  12.372  1.00  0.00    -0.104 SA
ENDBRANCH   6  22
BRANCH   3  27
HETATM   27  C10 UNL     1      34.306  43.510  14.567  1.00  0.00     0.061 C 
BRANCH  27  28
HETATM   28  C11 UNL     1      33.184  43.001  15.432  1.00  0.00    -0.028 C 
HETATM   29  C12 UNL     1      33.455  42.222  16.447  1.00  0.00    -0.030 C 
BRANCH  29  30
HETATM   30  C13 UNL     1      32.366  41.708  17.310  1.00  0.00     0.037 C 
BRANCH  30  31
HETATM   31  C14 UNL     1      32.924  40.682  18.258  1.00  0.00     0.089 C 
HETATM   32 BR1  UNL     1      31.613  39.249  18.365  1.00  0.00    -0.096 Br
ENDBRANCH  30  31
ENDBRANCH  29  30
ENDBRANCH  27  28
ENDBRANCH   3  27
TORSDOF 11
ENDMDL
MODEL 5
REMARK VINA RESULT: -6.113664771      3.269      7.271
REMARK  11 active torsions:
REMARK  status: ('A' for Active; 'I' for Inactive)
REMARK    1  A    between atoms: C2_2  and  S1_5 
REMARK    2  A    between atoms: S1_5  and  C5_6 
REMARK    3  A    between atoms: C5_6  and  C6_7 
REMARK    4  A    between atoms: C7_9  and  C8_10 
REMARK    5  A    between atoms: C9_12  and  C10_13 
REMARK    6  A    between atoms: C10_13  and  C11_14 
REMARK    7  A    between atoms: C12_15  and  C13_16 
REMARK    8  A    between atoms: C13_16  and  C14_17 
REMARK    9  A    between atoms: C16_21  and  C17_22 
REMARK   10  A    between atoms: C21_27  and  O4_28 
REMARK   11  A    between atoms: C22_30  and  O5_31 
ROOT
HETATM    1  C8  UNL     1      37.238  45.625  13.588  1.00  0.00     0.187 C 
HETATM    2  O2  UNL     1      36.160  45.461  12.672  1.00  0.00    -0.373 OA
HETATM    3  C9  UNL     1      35.440  46.659  12.575  1.00  0.00     0.149 C 
HETATM    4  C15 UNL     1      34.893  47.028  13.958  1.00  0.00     0.201 C 
HETATM    5  O3  UNL     1      35.176  45.961  14.786  1.00  0.00    -0.376 OA
HETATM    6  C16 UNL     1      36.598  45.889  14.893  1.00  0.00     0.193 C 
ENDROOT
BRANCH   1   7
HETATM    7  C7  UNL     1      38.139  44.420  13.493  1.00  0.00     0.185 C 
HETATM    8  O1  UNL     1      37.353  43.386  12.966  1.00  0.00    -0.372 OA
HETATM    9  C6  UNL     1      38.202  42.559  12.232  1.00  0.00     0.162 C 
HETATM   10  C22 UNL     1      39.039  43.501  11.445  1.00  0.00     0.179 C 
HETATM   11  C21 UNL     1      39.188  44.673  12.396  1.00  0.00     0.181 C 
BRANCH   9  12
HETATM   12  C5  UNL     1      37.387  41.699  11.264  1.00  0.00     0.109 C 
BRANCH  12  13
HETATM   13  S1  UNL     1      37.839  39.970  11.521  1.00  0.00    -0.158 SA
BRANCH  13  14
HETATM   14  C2  UNL     1      39.244  39.478  10.488  1.00  0.00    -0.003 C 
HETATM   15  C1  UNL     1      39.104  38.030  10.033  1.00  0.00     0.026 C 
HETATM   16  C3  UNL     1      39.366  40.288   9.210  1.00  0.00     0.026 C 
HETATM   17  C4  UNL     1      40.513  39.627  11.271  1.00  0.00     0.026 C 
ENDBRANCH  13  14
ENDBRANCH  12  13
ENDBRANCH   9  12
BRANCH  10  18
HETATM   18  O5  UNL     1      40.273  42.894  11.153  1.00  0.00    -0.390 OA
ATOM     19  H5  UNL     1      40.858  42.996  11.895  1.00  0.00     0.210 HD
ENDBRANCH  10  18
BRANCH  11  20
HETATM   20  O4  UNL     1      38.830  45.804  11.652  1.00  0.00    -0.390 OA
ATOM     21  H4  UNL     1      39.137  46.588  12.091  1.00  0.00     0.210 HD
ENDBRANCH  11  20
ENDBRANCH   1   7
BRANCH   6  22
HETATM   22  C17 UNL     1      36.889  44.896  15.985  1.00  0.00     0.014 A 
HETATM   23  C18 UNL     1      37.962  44.910  16.848  1.00  0.00     0.018 A 
HETATM   24  C19 UNL     1      38.062  43.910  17.727  1.00  0.00     0.008 A 
HETATM   25  C20 UNL     1      37.087  42.947  17.701  1.00  0.00     0.050 A 
HETATM   26  S2  UNL     1      36.066  43.476  16.450  1.00  0.00    -0.104 SA
ENDBRANCH   6  22
BRANCH   3  27
HETATM   27  C10 UNL     1      36.238  47.833  12.122  1.00  0.00     0.061 C 
BRANCH  27  28
HETATM   28  C11 UNL     1      36.095  47.920  10.626  1.00  0.00    -0.028 C 
HETATM   29  C12 UNL     1      34.963  48.327  10.110  1.00  0.00    -0.030 C 
BRANCH  29  30
HETATM   30  C13 UNL     1      34.801  48.418   8.640  1.00  0.00     0.037 C 
BRANCH  30  31
HETATM   31  C14 UNL     1      33.337  48.371   8.297  1.00  0.00     0.089 C 
HETATM   32 BR1  UNL     1      32.381  49.102   9.825  1.00  0.00    -0.096 Br
ENDBRANCH  30  31
ENDBRANCH  29  30
ENDBRANCH  27  28
ENDBRANCH   3  27
TORSDOF 11
ENDMDL
