MODEL 1
REMARK VINA RESULT: -6.684880348      0.000      0.000
REMARK  6 active torsions:
REMARK  status: ('A' for Active; 'I' for Inactive)
REMARK    1  A    between atoms: N1_1  and  C1_5 
REMARK    2  A    between atoms: C1_5  and  C2_6 
REMARK    3  A    between atoms: C2_6  and  C3_7 
REMARK       I    between atoms: C3_7  and  N2_9 
REMARK    4  A    between atoms: N2_9  and  C4_11 
REMARK    5  A    between atoms: C4_11  and  C5_12 
REMARK    6  A    between atoms: C5_12  and  N3_13 
ROOT
HETATM    1  N3  UNL     1      26.397  17.142  60.805  1.00  0.00    -0.358 N 
ATOM      2  H3  UNL     1      25.564  16.589  61.009  1.00  0.00     0.166 HD
HETATM    3  C6  UNL     1      26.525  18.208  61.517  1.00  0.00     0.084 C 
HETATM    4  C7  UNL     1      27.728  19.036  61.249  1.00  0.00     0.104 C 
HETATM    5  C8  UNL     1      29.033  18.477  61.671  1.00  0.00     0.240 C 
HETATM    6  N4  UNL     1      29.947  19.453  62.311  1.00  0.00    -0.073 N 
ATOM      7  H41 UNL     1      30.582  19.887  61.640  1.00  0.00     0.277 HD
ATOM      8  H42 UNL     1      30.647  19.002  62.899  1.00  0.00     0.277 HD
HETATM    9  C9  UNL     1      29.183  20.402  63.017  1.00  0.00     0.259 C 
HETATM   10  C10 UNL     1      29.722  20.903  64.349  1.00  0.00     0.260 C 
HETATM   11  N5  UNL     1      28.556  21.635  64.894  1.00  0.00    -0.069 N 
ATOM     12  H51 UNL     1      28.243  22.354  64.242  1.00  0.00     0.277 HD
ATOM     13  H52 UNL     1      28.833  22.227  65.677  1.00  0.00     0.277 HD
HETATM   14  C11 UNL     1      27.473  20.777  65.264  1.00  0.00     0.276 C 
HETATM   15  C12 UNL     1      26.226  20.918  64.422  1.00  0.00     0.090 C 
HETATM   16  N6  UNL     1      25.313  19.884  64.426  1.00  0.00    -0.343 N 
ATOM     17  H6  UNL     1      24.419  20.065  64.883  1.00  0.00     0.167 HD
HETATM   18  C13 UNL     1      25.486  18.613  63.871  1.00  0.00     0.193 C 
HETATM   19  N7  UNL     1      26.427  17.746  64.577  1.00  0.00    -0.063 NA
HETATM   20  N8  UNL     1      25.482  18.471  62.445  1.00  0.00    -0.320 N 
ATOM     21  H8  UNL     1      24.562  18.578  62.019  1.00  0.00     0.169 HD
ENDROOT
BRANCH   1  22
HETATM   22  C5  UNL     1      27.216  16.622  59.799  1.00  0.00     0.082 C 
BRANCH  22  23
HETATM   23  C4  UNL     1      27.606  15.194  60.129  1.00  0.00     0.167 C 
BRANCH  23  24
HETATM   24  N2  UNL     1      26.480  14.412  60.567  1.00  0.00    -0.356 N 
HETATM   25  C3  UNL     1      26.136  14.194  61.913  1.00  0.00     0.219 C 
HETATM   26  O1  UNL     1      26.771  14.651  62.882  1.00  0.00    -0.274 OA
ATOM     27  H2  UNL     1      25.890  13.987  59.851  1.00  0.00     0.162 HD
BRANCH  25  28
HETATM   28  C2  UNL     1      24.923  13.355  62.192  1.00  0.00     0.130 C 
BRANCH  28  29
HETATM   29  C1  UNL     1      23.708  14.198  61.890  1.00  0.00     0.238 C 
BRANCH  29  30
HETATM   30  N1  UNL     1      23.768  15.442  62.634  1.00  0.00    -0.079 N 
ATOM     31  H13 UNL     1      23.175  15.419  63.464  1.00  0.00     0.274 HD
ATOM     32  H12 UNL     1      24.669  15.567  63.097  1.00  0.00     0.274 HD
ATOM     33  H11 UNL     1      23.540  16.227  62.025  1.00  0.00     0.274 HD
ENDBRANCH  29  30
ENDBRANCH  28  29
ENDBRANCH  25  28
ENDBRANCH  23  24
ENDBRANCH  22  23
ENDBRANCH   1  22
TORSDOF 6
ENDMDL
MODEL 2
REMARK VINA RESULT: -6.505539853      2.177      2.526
REMARK  6 active torsions:
REMARK  status: ('A' for Active; 'I' for Inactive)
REMARK    1  A    between atoms: N1_1  and  C1_5 
REMARK    2  A    between atoms: C1_5  and  C2_6 
REMARK    3  A    between atoms: C2_6  and  C3_7 
REMARK       I    between atoms: C3_7  and  N2_9 
REMARK    4  A    between atoms: N2_9  and  C4_11 
REMARK    5  A    between atoms: C4_11  and  C5_12 
REMARK    6  A    between atoms: C5_12  and  N3_13 
ROOT
HETATM    1  N3  UNL     1      27.206  18.850  60.502  1.00  0.00    -0.358 N 
ATOM      2  H3  UNL     1      26.261  19.225  60.418  1.00  0.00     0.166 HD
HETATM    3  C6  UNL     1      27.715  18.926  61.682  1.00  0.00     0.084 C 
HETATM    4  C7  UNL     1      29.089  18.388  61.842  1.00  0.00     0.104 C 
HETATM    5  C8  UNL     1      29.246  16.917  61.760  1.00  0.00     0.240 C 
HETATM    6  N4  UNL     1      30.165  16.335  62.767  1.00  0.00    -0.073 N 
ATOM      7  H41 UNL     1      31.119  16.249  62.417  1.00  0.00     0.277 HD
ATOM      8  H42 UNL     1      29.984  15.345  62.932  1.00  0.00     0.277 HD
HETATM    9  C9  UNL     1      30.092  17.097  63.948  1.00  0.00     0.259 C 
HETATM   10  C10 UNL     1      30.164  16.361  65.279  1.00  0.00     0.260 C 
HETATM   11  N5  UNL     1      29.784  17.424  66.237  1.00  0.00    -0.069 N 
ATOM     12  H51 UNL     1      30.398  18.233  66.142  1.00  0.00     0.277 HD
ATOM     13  H52 UNL     1      30.012  17.150  67.192  1.00  0.00     0.277 HD
HETATM   14  C11 UNL     1      28.411  17.813  66.134  1.00  0.00     0.276 C 
HETATM   15  C12 UNL     1      28.178  19.218  65.629  1.00  0.00     0.090 C 
HETATM   16  N6  UNL     1      26.937  19.531  65.114  1.00  0.00    -0.343 N 
ATOM     17  H6  UNL     1      26.362  20.171  65.662  1.00  0.00     0.167 HD
HETATM   18  C13 UNL     1      26.385  19.062  63.919  1.00  0.00     0.193 C 
HETATM   19  N7  UNL     1      25.996  17.653  63.922  1.00  0.00    -0.063 NA
HETATM   20  N8  UNL     1      26.907  19.545  62.675  1.00  0.00    -0.320 N 
ATOM     21  H8  UNL     1      26.652  20.509  62.462  1.00  0.00     0.169 HD
ENDROOT
BRANCH   1  22
HETATM   22  C5  UNL     1      27.742  18.337  59.317  1.00  0.00     0.082 C 
BRANCH  22  23
HETATM   23  C4  UNL     1      26.861  17.223  58.786  1.00  0.00     0.167 C 
BRANCH  23  24
HETATM   24  N2  UNL     1      25.921  16.758  59.771  1.00  0.00    -0.356 N 
HETATM   25  C3  UNL     1      26.009  15.523  60.437  1.00  0.00     0.219 C 
HETATM   26  O1  UNL     1      26.911  14.687  60.246  1.00  0.00    -0.274 OA
ATOM     27  H2  UNL     1      25.136  17.368  60.002  1.00  0.00     0.162 HD
BRANCH  25  28
HETATM   28  C2  UNL     1      24.942  15.199  61.442  1.00  0.00     0.130 C 
BRANCH  28  29
HETATM   29  C1  UNL     1      23.779  16.125  61.184  1.00  0.00     0.238 C 
BRANCH  29  30
HETATM   30  N1  UNL     1      23.449  16.860  62.390  1.00  0.00    -0.079 N 
ATOM     31  H13 UNL     1      22.890  16.303  63.036  1.00  0.00     0.274 HD
ATOM     32  H12 UNL     1      24.266  17.005  62.983  1.00  0.00     0.274 HD
ATOM     33  H11 UNL     1      22.991  17.740  62.151  1.00  0.00     0.274 HD
ENDBRANCH  29  30
ENDBRANCH  28  29
ENDBRANCH  25  28
ENDBRANCH  23  24
ENDBRANCH  22  23
ENDBRANCH   1  22
TORSDOF 6
ENDMDL
MODEL 3
REMARK VINA RESULT: -6.433485642      1.774      1.997
REMARK  6 active torsions:
REMARK  status: ('A' for Active; 'I' for Inactive)
REMARK    1  A    between atoms: N1_1  and  C1_5 
REMARK    2  A    between atoms: C1_5  and  C2_6 
REMARK    3  A    between atoms: C2_6  and  C3_7 
REMARK       I    between atoms: C3_7  and  N2_9 
REMARK    4  A    between atoms: N2_9  and  C4_11 
REMARK    5  A    between atoms: C4_11  and  C5_12 
REMARK    6  A    between atoms: C5_12  and  N3_13 
ROOT
HETATM    1  N3  UNL     1      26.347  18.152  62.020  1.00  0.00    -0.358 N 
ATOM      2  H3  UNL     1      25.343  17.977  62.053  1.00  0.00     0.166 HD
HETATM    3  C6  UNL     1      26.721  19.256  62.569  1.00  0.00     0.084 C 
HETATM    4  C7  UNL     1      28.178  19.543  62.541  1.00  0.00     0.104 C 
HETATM    5  C8  UNL     1      29.042  18.705  63.404  1.00  0.00     0.240 C 
HETATM    6  N4  UNL     1      30.102  19.448  64.126  1.00  0.00    -0.073 N 
ATOM      7  H41 UNL     1      30.983  19.465  63.612  1.00  0.00     0.277 HD
ATOM      8  H42 UNL     1      30.429  18.950  64.954  1.00  0.00     0.277 HD
HETATM    9  C9  UNL     1      29.632  20.740  64.428  1.00  0.00     0.259 C 
HETATM   10  C10 UNL     1      30.023  21.347  65.768  1.00  0.00     0.260 C 
HETATM   11  N5  UNL     1      29.143  22.536  65.833  1.00  0.00    -0.069 N 
ATOM     12  H51 UNL     1      29.279  23.133  65.017  1.00  0.00     0.277 HD
ATOM     13  H52 UNL     1      29.452  23.177  66.564  1.00  0.00     0.277 HD
HETATM   14  C11 UNL     1      27.760  22.208  65.997  1.00  0.00     0.276 C 
HETATM   15  C12 UNL     1      26.877  22.542  64.817  1.00  0.00     0.090 C 
HETATM   16  N6  UNL     1      25.657  21.905  64.712  1.00  0.00    -0.343 N 
ATOM     17  H6  UNL     1      24.827  22.481  64.856  1.00  0.00     0.167 HD
HETATM   18  C13 UNL     1      25.440  20.554  64.429  1.00  0.00     0.193 C 
HETATM   19  N7  UNL     1      25.798  19.627  65.501  1.00  0.00    -0.063 NA
HETATM   20  N8  UNL     1      25.688  20.073  63.103  1.00  0.00    -0.320 N 
ATOM     21  H8  UNL     1      24.995  20.371  62.415  1.00  0.00     0.169 HD
ENDROOT
BRANCH   1  22
HETATM   22  C5  UNL     1      27.097  17.157  61.386  1.00  0.00     0.082 C 
BRANCH  22  23
HETATM   23  C4  UNL     1      26.443  16.768  60.074  1.00  0.00     0.167 C 
BRANCH  23  24
HETATM   24  N2  UNL     1      25.526  15.670  60.230  1.00  0.00    -0.356 N 
HETATM   25  C3  UNL     1      24.261  15.769  60.835  1.00  0.00     0.219 C 
HETATM   26  O1  UNL     1      23.791  16.820  61.310  1.00  0.00    -0.274 OA
ATOM     27  H2  UNL     1      25.813  14.758  59.876  1.00  0.00     0.162 HD
BRANCH  25  28
HETATM   28  C2  UNL     1      23.428  14.522  60.909  1.00  0.00     0.130 C 
BRANCH  28  29
HETATM   29  C1  UNL     1      23.742  13.845  62.221  1.00  0.00     0.238 C 
BRANCH  29  30
HETATM   30  N1  UNL     1      24.851  12.926  62.054  1.00  0.00    -0.079 N 
ATOM     31  H13 UNL     1      24.747  12.349  61.219  1.00  0.00     0.274 HD
ATOM     32  H12 UNL     1      25.711  13.409  61.795  1.00  0.00     0.274 HD
ATOM     33  H11 UNL     1      24.969  12.361  62.895  1.00  0.00     0.274 HD
ENDBRANCH  29  30
ENDBRANCH  28  29
ENDBRANCH  25  28
ENDBRANCH  23  24
ENDBRANCH  22  23
ENDBRANCH   1  22
TORSDOF 6
ENDMDL
MODEL 4
REMARK VINA RESULT: -6.427085705      1.465      1.553
REMARK  6 active torsions:
REMARK  status: ('A' for Active; 'I' for Inactive)
REMARK    1  A    between atoms: N1_1  and  C1_5 
REMARK    2  A    between atoms: C1_5  and  C2_6 
REMARK    3  A    between atoms: C2_6  and  C3_7 
REMARK       I    between atoms: C3_7  and  N2_9 
REMARK    4  A    between atoms: N2_9  and  C4_11 
REMARK    5  A    between atoms: C4_11  and  C5_12 
REMARK    6  A    between atoms: C5_12  and  N3_13 
ROOT
HETATM    1  N3  UNL     1      26.677  17.606  60.439  1.00  0.00    -0.358 N 
ATOM      2  H3  UNL     1      25.658  17.624  60.423  1.00  0.00     0.166 HD
HETATM    3  C6  UNL     1      27.219  18.410  61.287  1.00  0.00     0.084 C 
HETATM    4  C7  UNL     1      28.703  18.409  61.339  1.00  0.00     0.104 C 
HETATM    5  C8  UNL     1      29.352  17.208  61.913  1.00  0.00     0.240 C 
HETATM    6  N4  UNL     1      30.491  17.492  62.818  1.00  0.00    -0.073 N 
ATOM      7  H41 UNL     1      31.386  17.488  62.328  1.00  0.00     0.277 HD
ATOM      8  H42 UNL     1      30.677  16.723  63.461  1.00  0.00     0.277 HD
HETATM    9  C9  UNL     1      30.251  18.706  63.489  1.00  0.00     0.259 C 
HETATM   10  C10 UNL     1      30.676  18.811  64.947  1.00  0.00     0.260 C 
HETATM   11  N5  UNL     1      30.028  20.076  65.363  1.00  0.00    -0.069 N 
ATOM     12  H51 UNL     1      30.315  20.847  64.758  1.00  0.00     0.277 HD
ATOM     13  H52 UNL     1      30.411  20.406  66.249  1.00  0.00     0.277 HD
HETATM   14  C11 UNL     1      28.602  19.985  65.428  1.00  0.00     0.276 C 
HETATM   15  C12 UNL     1      27.858  20.810  64.403  1.00  0.00     0.090 C 
HETATM   16  N6  UNL     1      26.550  20.477  64.120  1.00  0.00    -0.343 N 
ATOM     17  H6  UNL     1      25.834  21.134  64.430  1.00  0.00     0.167 HD
HETATM   18  C13 UNL     1      26.103  19.333  63.452  1.00  0.00     0.193 C 
HETATM   19  N7  UNL     1      26.227  18.085  64.202  1.00  0.00    -0.063 NA
HETATM   20  N8  UNL     1      26.327  19.219  62.042  1.00  0.00    -0.320 N 
ATOM     21  H8  UNL     1      25.738  19.830  61.476  1.00  0.00     0.169 HD
ENDROOT
BRANCH   1  22
HETATM   22  C5  UNL     1      27.264  16.713  59.537  1.00  0.00     0.082 C 
BRANCH  22  23
HETATM   23  C4  UNL     1      26.743  15.310  59.779  1.00  0.00     0.167 C 
BRANCH  23  24
HETATM   24  N2  UNL     1      25.499  15.310  60.503  1.00  0.00    -0.356 N 
HETATM   25  C3  UNL     1      25.392  15.238  61.903  1.00  0.00     0.219 C 
HETATM   26  O1  UNL     1      26.364  15.162  62.678  1.00  0.00    -0.274 OA
ATOM     27  H2  UNL     1      24.636  15.367  59.963  1.00  0.00     0.162 HD
BRANCH  25  28
HETATM   28  C2  UNL     1      24.013  15.255  62.495  1.00  0.00     0.130 C 
BRANCH  28  29
HETATM   29  C1  UNL     1      23.522  16.682  62.461  1.00  0.00     0.238 C 
BRANCH  29  30
HETATM   30  N1  UNL     1      23.240  17.144  63.806  1.00  0.00    -0.079 N 
ATOM     31  H13 UNL     1      23.121  16.370  64.459  1.00  0.00     0.274 HD
ATOM     32  H12 UNL     1      24.054  17.581  64.238  1.00  0.00     0.274 HD
ATOM     33  H11 UNL     1      22.431  17.766  63.801  1.00  0.00     0.274 HD
ENDBRANCH  29  30
ENDBRANCH  28  29
ENDBRANCH  25  28
ENDBRANCH  23  24
ENDBRANCH  22  23
ENDBRANCH   1  22
TORSDOF 6
ENDMDL
MODEL 5
REMARK VINA RESULT: -6.413595810      1.392      1.419
REMARK  6 active torsions:
REMARK  status: ('A' for Active; 'I' for Inactive)
REMARK    1  A    between atoms: N1_1  and  C1_5 
REMARK    2  A    between atoms: C1_5  and  C2_6 
REMARK    3  A    between atoms: C2_6  and  C3_7 
REMARK       I    between atoms: C3_7  and  N2_9 
REMARK    4  A    between atoms: N2_9  and  C4_11 
REMARK    5  A    between atoms: C4_11  and  C5_12 
REMARK    6  A    between atoms: C5_12  and  N3_13 
ROOT
HETATM    1  N3  UNL     1      26.936  17.473  61.717  1.00  0.00    -0.358 N 
ATOM      2  H3  UNL     1      26.078  16.921  61.745  1.00  0.00     0.166 HD
HETATM    3  C6  UNL     1      26.854  18.630  62.277  1.00  0.00     0.084 C 
HETATM    4  C7  UNL     1      28.085  19.459  62.257  1.00  0.00     0.104 C 
HETATM    5  C8  UNL     1      29.206  19.013  63.116  1.00  0.00     0.240 C 
HETATM    6  N4  UNL     1      29.896  20.101  63.849  1.00  0.00    -0.073 N 
ATOM      7  H41 UNL     1      30.701  20.463  63.339  1.00  0.00     0.277 HD
ATOM      8  H42 UNL     1      30.390  19.761  64.674  1.00  0.00     0.277 HD
HETATM    9  C9  UNL     1      28.962  21.107  64.161  1.00  0.00     0.259 C 
HETATM   10  C10 UNL     1      29.087  21.805  65.508  1.00  0.00     0.260 C 
HETATM   11  N5  UNL     1      27.815  22.559  65.580  1.00  0.00    -0.069 N 
ATOM     12  H51 UNL     1      27.710  23.171  64.770  1.00  0.00     0.277 HD
ATOM     13  H52 UNL     1      27.852  23.263  66.318  1.00  0.00     0.277 HD
HETATM   14  C11 UNL     1      26.668  21.720  65.736  1.00  0.00     0.276 C 
HETATM   15  C12 UNL     1      25.724  21.697  64.555  1.00  0.00     0.090 C 
HETATM   16  N6  UNL     1      24.846  20.639  64.440  1.00  0.00    -0.343 N 
ATOM     17  H6  UNL     1      23.858  20.847  64.586  1.00  0.00     0.167 HD
HETATM   18  C13 UNL     1      25.169  19.312  64.144  1.00  0.00     0.193 C 
HETATM   19  N7  UNL     1      25.858  18.586  65.209  1.00  0.00    -0.063 NA
HETATM   20  N8  UNL     1      25.584  18.977  62.814  1.00  0.00    -0.320 N 
ATOM     21  H8  UNL     1      24.830  18.990  62.127  1.00  0.00     0.169 HD
ENDROOT
BRANCH   1  22
HETATM   22  C5  UNL     1      28.012  16.852  61.077  1.00  0.00     0.082 C 
BRANCH  22  23
HETATM   23  C4  UNL     1      28.337  15.537  61.758  1.00  0.00     0.167 C 
BRANCH  23  24
HETATM   24  N2  UNL     1      27.153  14.851  62.204  1.00  0.00    -0.356 N 
HETATM   25  C3  UNL     1      26.351  14.033  61.388  1.00  0.00     0.219 C 
HETATM   26  O1  UNL     1      26.573  13.813  60.182  1.00  0.00    -0.274 OA
ATOM     27  H2  UNL     1      26.876  14.965  63.179  1.00  0.00     0.162 HD
BRANCH  25  28
HETATM   28  C2  UNL     1      25.151  13.387  62.018  1.00  0.00     0.130 C 
BRANCH  28  29
HETATM   29  C1  UNL     1      23.987  14.332  61.851  1.00  0.00     0.238 C 
BRANCH  29  30
HETATM   30  N1  UNL     1      23.525  14.316  60.477  1.00  0.00    -0.079 N 
ATOM     31  H13 UNL     1      24.064  13.670  59.900  1.00  0.00     0.274 HD
ATOM     32  H12 UNL     1      22.612  13.871  60.387  1.00  0.00     0.274 HD
ATOM     33  H11 UNL     1      23.529  15.262  60.094  1.00  0.00     0.274 HD
ENDBRANCH  29  30
ENDBRANCH  28  29
ENDBRANCH  25  28
ENDBRANCH  23  24
ENDBRANCH  22  23
ENDBRANCH   1  22
TORSDOF 6
ENDMDL
