MODEL 1
REMARK VINA RESULT: -7.228680993      0.000      0.000
REMARK  10 active torsions:
REMARK  status: ('A' for Active; 'I' for Inactive)
REMARK    1  A    between atoms: N1_1  and  C1_4 
REMARK    2  A    between atoms: N3_7  and  O1_8 
REMARK    3  A    between atoms: C5_13  and  C6_14 
REMARK       I    between atoms: C6_14  and  N4_16 
REMARK    4  A    between atoms: N4_16  and  C7_18 
REMARK    5  A    between atoms: C7_18  and  O3_19 
REMARK    6  A    between atoms: C7_18  and  C8_21 
REMARK    7  A    between atoms: C8_21  and  N5_22 
REMARK    8  A    between atoms: C8_21  and  C9_26 
REMARK    9  A    between atoms: C9_26  and  N6_27 
REMARK   10  A    between atoms: C9_26  and  N7_31 
ROOT
HETATM    1  C6  UNL     1      26.610  19.706  63.188  1.00  0.00     0.253 C 
HETATM    2  O2  UNL     1      25.582  20.428  63.386  1.00  0.00    -0.268 OA
HETATM    3  N4  UNL     1      27.829  20.131  63.729  1.00  0.00    -0.329 N 
ATOM      4  H4  UNL     1      28.645  19.541  63.562  1.00  0.00     0.165 HD
ENDROOT
BRANCH   1   5
HETATM    5  C5  UNL     1      26.428  18.491  62.411  1.00  0.00     0.034 A 
HETATM    6  C4  UNL     1      27.149  18.255  61.262  1.00  0.00     0.019 A 
HETATM    7  C3  UNL     1      26.990  17.108  60.510  1.00  0.00     0.037 A 
HETATM    8  C2  UNL     1      26.088  16.139  60.891  1.00  0.00     0.109 A 
HETATM    9  N3  UNL     1      25.925  15.004  60.156  1.00  0.00    -0.147 N 
HETATM   10  C11 UNL     1      25.359  16.362  62.040  1.00  0.00     0.081 A 
HETATM   11  N2  UNL     1      25.047  14.117  60.572  1.00  0.00    -0.105 N 
HETATM   12  C1  UNL     1      24.311  14.286  61.686  1.00  0.00     0.693 A 
ATOM     13  H2  UNL     1      24.918  13.264  60.027  1.00  0.00     0.208 HD
HETATM   14  N8  UNL     1      24.465  15.403  62.419  1.00  0.00    -0.188 N 
ATOM     15  H8  UNL     1      23.909  15.534  63.265  1.00  0.00     0.184 HD
HETATM   16  C10 UNL     1      25.528  17.513  62.781  1.00  0.00     0.049 A 
BRANCH   9  17
HETATM   17  O1  UNL     1      26.688  14.867  59.034  1.00  0.00    -0.267 OA
ATOM     18  H1  UNL     1      26.549  15.350  58.228  1.00  0.00     0.247 HD
ENDBRANCH   9  17
BRANCH  12  19
HETATM   19  N1  UNL     1      23.446  13.423  62.106  1.00  0.00    -0.233 N 
ATOM     20  H12 UNL     1      23.542  12.467  61.764  1.00  0.00     0.174 HD
ATOM     21  H11 UNL     1      22.689  13.654  62.750  1.00  0.00     0.174 HD
ENDBRANCH  12  19
ENDBRANCH   1   5
BRANCH   3  22
HETATM   22  C7  UNL     1      28.029  21.321  64.494  1.00  0.00     0.255 C 
BRANCH  22  23
HETATM   23  O3  UNL     1      27.318  22.401  63.952  1.00  0.00    -0.374 OA
ATOM     24  H3  UNL     1      27.531  23.212  64.398  1.00  0.00     0.212 HD
ENDBRANCH  22  23
BRANCH  22  25
HETATM   25  C8  UNL     1      27.637  21.166  65.945  1.00  0.00     0.289 C 
BRANCH  25  26
HETATM   26  N5  UNL     1      26.248  21.508  66.162  1.00  0.00    -0.067 N 
ATOM     27  H53 UNL     1      25.744  21.595  65.279  1.00  0.00     0.275 HD
ATOM     28  H52 UNL     1      25.731  20.726  66.564  1.00  0.00     0.275 HD
ATOM     29  H51 UNL     1      26.152  22.349  66.731  1.00  0.00     0.275 HD
ENDBRANCH  25  26
BRANCH  25  30
HETATM   30  C9  UNL     1      28.467  21.996  66.865  1.00  0.00     0.412 C 
BRANCH  30  31
HETATM   31  N6  UNL     1      29.040  23.158  66.213  1.00  0.00    -0.048 N 
ATOM     32  H63 UNL     1      29.727  23.613  66.814  1.00  0.00     0.276 HD
ATOM     33  H62 UNL     1      29.650  22.882  65.444  1.00  0.00     0.276 HD
ATOM     34  H61 UNL     1      28.334  23.823  65.898  1.00  0.00     0.276 HD
ENDBRANCH  30  31
BRANCH  30  35
HETATM   35  N7  UNL     1      27.607  22.494  67.925  1.00  0.00    -0.048 N 
ATOM     36  H73 UNL     1      26.626  22.257  67.778  1.00  0.00     0.276 HD
ATOM     37  H72 UNL     1      27.739  21.996  68.805  1.00  0.00     0.276 HD
ATOM     38  H71 UNL     1      27.761  23.498  68.013  1.00  0.00     0.276 HD
ENDBRANCH  30  35
ENDBRANCH  25  30
ENDBRANCH  22  25
ENDBRANCH   3  22
TORSDOF 10
ENDMDL
MODEL 2
REMARK VINA RESULT: -6.985494938      4.314      5.192
REMARK  10 active torsions:
REMARK  status: ('A' for Active; 'I' for Inactive)
REMARK    1  A    between atoms: N1_1  and  C1_4 
REMARK    2  A    between atoms: N3_7  and  O1_8 
REMARK    3  A    between atoms: C5_13  and  C6_14 
REMARK       I    between atoms: C6_14  and  N4_16 
REMARK    4  A    between atoms: N4_16  and  C7_18 
REMARK    5  A    between atoms: C7_18  and  O3_19 
REMARK    6  A    between atoms: C7_18  and  C8_21 
REMARK    7  A    between atoms: C8_21  and  N5_22 
REMARK    8  A    between atoms: C8_21  and  C9_26 
REMARK    9  A    between atoms: C9_26  and  N6_27 
REMARK   10  A    between atoms: C9_26  and  N7_31 
ROOT
HETATM    1  C6  UNL     1      23.813  18.914  65.754  1.00  0.00     0.253 C 
HETATM    2  O2  UNL     1      23.631  20.173  65.734  1.00  0.00    -0.268 OA
HETATM    3  N4  UNL     1      23.452  18.215  66.912  1.00  0.00    -0.329 N 
ATOM      4  H4  UNL     1      23.603  17.206  66.913  1.00  0.00     0.165 HD
ENDROOT
BRANCH   1   5
HETATM    5  C5  UNL     1      24.385  18.307  64.564  1.00  0.00     0.034 A 
HETATM    6  C4  UNL     1      25.591  18.726  64.049  1.00  0.00     0.019 A 
HETATM    7  C3  UNL     1      26.149  18.162  62.919  1.00  0.00     0.037 A 
HETATM    8  C2  UNL     1      25.509  17.139  62.256  1.00  0.00     0.109 A 
HETATM    9  N3  UNL     1      26.053  16.577  61.141  1.00  0.00    -0.147 N 
HETATM   10  C11 UNL     1      24.300  16.709  62.761  1.00  0.00     0.081 A 
HETATM   11  N2  UNL     1      25.392  15.603  60.552  1.00  0.00    -0.105 N 
HETATM   12  C1  UNL     1      24.210  15.147  61.004  1.00  0.00     0.693 A 
ATOM     13  H2  UNL     1      25.792  15.177  59.716  1.00  0.00     0.208 HD
HETATM   14  N8  UNL     1      23.663  15.696  62.105  1.00  0.00    -0.188 N 
ATOM     15  H8  UNL     1      22.768  15.351  62.451  1.00  0.00     0.184 HD
HETATM   16  C10 UNL     1      23.753  17.282  63.890  1.00  0.00     0.049 A 
BRANCH   9  17
HETATM   17  O1  UNL     1      27.252  17.065  60.712  1.00  0.00    -0.267 OA
ATOM     18  H1  UNL     1      27.367  17.902  60.279  1.00  0.00     0.247 HD
ENDBRANCH   9  17
BRANCH  12  19
HETATM   19  N1  UNL     1      23.550  14.193  60.436  1.00  0.00    -0.233 N 
ATOM     20  H12 UNL     1      23.315  14.315  59.451  1.00  0.00     0.174 HD
ATOM     21  H11 UNL     1      23.261  13.342  60.921  1.00  0.00     0.174 HD
ENDBRANCH  12  19
ENDBRANCH   1   5
BRANCH   3  22
HETATM   22  C7  UNL     1      22.891  18.792  68.092  1.00  0.00     0.255 C 
BRANCH  22  23
HETATM   23  O3  UNL     1      21.906  19.738  67.777  1.00  0.00    -0.374 OA
ATOM     24  H3  UNL     1      22.148  20.604  68.082  1.00  0.00     0.212 HD
ENDBRANCH  22  23
BRANCH  22  25
HETATM   25  C8  UNL     1      22.293  17.767  69.027  1.00  0.00     0.289 C 
BRANCH  25  26
HETATM   26  N5  UNL     1      22.997  16.505  68.955  1.00  0.00    -0.067 N 
ATOM     27  H53 UNL     1      23.931  16.622  68.561  1.00  0.00     0.275 HD
ATOM     28  H52 UNL     1      23.257  16.171  69.883  1.00  0.00     0.275 HD
ATOM     29  H51 UNL     1      22.461  15.804  68.444  1.00  0.00     0.275 HD
ENDBRANCH  25  26
BRANCH  25  30
HETATM   30  C9  UNL     1      20.848  17.508  68.762  1.00  0.00     0.412 C 
BRANCH  30  31
HETATM   31  N6  UNL     1      20.538  16.093  68.671  1.00  0.00    -0.048 N 
ATOM     32  H63 UNL     1      20.606  15.644  69.584  1.00  0.00     0.276 HD
ATOM     33  H62 UNL     1      19.546  15.948  68.488  1.00  0.00     0.276 HD
ATOM     34  H61 UNL     1      21.111  15.607  67.982  1.00  0.00     0.276 HD
ENDBRANCH  30  31
BRANCH  30  35
HETATM   35  N7  UNL     1      20.083  18.030  69.880  1.00  0.00    -0.048 N 
ATOM     36  H73 UNL     1      19.241  18.525  69.584  1.00  0.00     0.276 HD
ATOM     37  H72 UNL     1      19.627  17.297  70.422  1.00  0.00     0.276 HD
ATOM     38  H71 UNL     1      20.702  18.611  70.446  1.00  0.00     0.276 HD
ENDBRANCH  30  35
ENDBRANCH  25  30
ENDBRANCH  22  25
ENDBRANCH   3  22
TORSDOF 10
ENDMDL
MODEL 3
REMARK VINA RESULT: -6.899021503      1.099      1.197
REMARK  10 active torsions:
REMARK  status: ('A' for Active; 'I' for Inactive)
REMARK    1  A    between atoms: N1_1  and  C1_4 
REMARK    2  A    between atoms: N3_7  and  O1_8 
REMARK    3  A    between atoms: C5_13  and  C6_14 
REMARK       I    between atoms: C6_14  and  N4_16 
REMARK    4  A    between atoms: N4_16  and  C7_18 
REMARK    5  A    between atoms: C7_18  and  O3_19 
REMARK    6  A    between atoms: C7_18  and  C8_21 
REMARK    7  A    between atoms: C8_21  and  N5_22 
REMARK    8  A    between atoms: C8_21  and  C9_26 
REMARK    9  A    between atoms: C9_26  and  N6_27 
REMARK   10  A    between atoms: C9_26  and  N7_31 
ROOT
HETATM    1  C6  UNL     1      27.039  19.664  62.911  1.00  0.00     0.253 C 
HETATM    2  O2  UNL     1      28.192  20.166  62.727  1.00  0.00    -0.268 OA
HETATM    3  N4  UNL     1      26.162  20.327  63.778  1.00  0.00    -0.329 N 
ATOM      4  H4  UNL     1      25.239  19.913  63.915  1.00  0.00     0.165 HD
ENDROOT
BRANCH   1   5
HETATM    5  C5  UNL     1      26.729  18.435  62.200  1.00  0.00     0.034 A 
HETATM    6  C4  UNL     1      27.441  18.046  61.088  1.00  0.00     0.019 A 
HETATM    7  C3  UNL     1      27.161  16.883  60.399  1.00  0.00     0.037 A 
HETATM    8  C2  UNL     1      26.141  16.053  60.808  1.00  0.00     0.109 A 
HETATM    9  N3  UNL     1      25.858  14.904  60.135  1.00  0.00    -0.147 N 
HETATM   10  C11 UNL     1      25.419  16.430  61.920  1.00  0.00     0.081 A 
HETATM   11  N2  UNL     1      24.871  14.153  60.576  1.00  0.00    -0.105 N 
HETATM   12  C1  UNL     1      24.136  14.476  61.656  1.00  0.00     0.693 A 
ATOM     13  H2  UNL     1      24.652  13.291  60.077  1.00  0.00     0.208 HD
HETATM   14  N8  UNL     1      24.407  15.610  62.328  1.00  0.00    -0.188 N 
ATOM     15  H8  UNL     1      23.853  15.857  63.148  1.00  0.00     0.184 HD
HETATM   16  C10 UNL     1      25.709  17.596  62.599  1.00  0.00     0.049 A 
BRANCH   9  17
HETATM   17  O1  UNL     1      26.624  14.609  59.045  1.00  0.00    -0.267 OA
ATOM     18  H1  UNL     1      26.397  14.838  58.152  1.00  0.00     0.247 HD
ENDBRANCH   9  17
BRANCH  12  19
HETATM   19  N1  UNL     1      23.164  13.750  62.100  1.00  0.00    -0.233 N 
ATOM     20  H12 UNL     1      22.697  13.142  61.427  1.00  0.00     0.174 HD
ATOM     21  H11 UNL     1      22.853  13.759  63.071  1.00  0.00     0.174 HD
ENDBRANCH  12  19
ENDBRANCH   1   5
BRANCH   3  22
HETATM   22  C7  UNL     1      26.448  21.534  64.487  1.00  0.00     0.255 C 
BRANCH  22  23
HETATM   23  O3  UNL     1      25.390  22.447  64.385  1.00  0.00    -0.374 OA
ATOM     24  H3  UNL     1      25.682  23.334  64.557  1.00  0.00     0.212 HD
ENDBRANCH  22  23
BRANCH  22  25
HETATM   25  C8  UNL     1      26.747  21.305  65.950  1.00  0.00     0.289 C 
BRANCH  25  26
HETATM   26  N5  UNL     1      25.861  22.069  66.802  1.00  0.00    -0.067 N 
ATOM     27  H53 UNL     1      26.384  22.653  67.455  1.00  0.00     0.275 HD
ATOM     28  H52 UNL     1      25.384  22.803  66.279  1.00  0.00     0.275 HD
ATOM     29  H51 UNL     1      25.197  21.468  67.289  1.00  0.00     0.275 HD
ENDBRANCH  25  26
BRANCH  25  30
HETATM   30  C9  UNL     1      28.152  21.647  66.318  1.00  0.00     0.412 C 
BRANCH  30  31
HETATM   31  N6  UNL     1      29.123  20.741  65.733  1.00  0.00    -0.048 N 
ATOM     32  H63 UNL     1      30.022  20.812  66.209  1.00  0.00     0.276 HD
ATOM     33  H62 UNL     1      28.896  19.771  65.953  1.00  0.00     0.276 HD
ATOM     34  H61 UNL     1      29.231  20.872  64.728  1.00  0.00     0.276 HD
ENDBRANCH  30  31
BRANCH  30  35
HETATM   35  N7  UNL     1      28.448  22.969  65.795  1.00  0.00    -0.048 N 
ATOM     36  H73 UNL     1      27.636  23.413  65.367  1.00  0.00     0.276 HD
ATOM     37  H72 UNL     1      28.608  23.656  66.531  1.00  0.00     0.276 HD
ATOM     38  H71 UNL     1      29.237  22.888  65.154  1.00  0.00     0.276 HD
ENDBRANCH  30  35
ENDBRANCH  25  30
ENDBRANCH  22  25
ENDBRANCH   3  22
TORSDOF 10
ENDMDL
MODEL 4
REMARK VINA RESULT: -6.885502691      4.976      7.782
REMARK  10 active torsions:
REMARK  status: ('A' for Active; 'I' for Inactive)
REMARK    1  A    between atoms: N1_1  and  C1_4 
REMARK    2  A    between atoms: N3_7  and  O1_8 
REMARK    3  A    between atoms: C5_13  and  C6_14 
REMARK       I    between atoms: C6_14  and  N4_16 
REMARK    4  A    between atoms: N4_16  and  C7_18 
REMARK    5  A    between atoms: C7_18  and  O3_19 
REMARK    6  A    between atoms: C7_18  and  C8_21 
REMARK    7  A    between atoms: C8_21  and  N5_22 
REMARK    8  A    between atoms: C8_21  and  C9_26 
REMARK    9  A    between atoms: C9_26  and  N6_27 
REMARK   10  A    between atoms: C9_26  and  N7_31 
ROOT
HETATM    1  C6  UNL     1      28.461  16.706  63.259  1.00  0.00     0.253 C 
HETATM    2  O2  UNL     1      27.916  16.054  64.205  1.00  0.00    -0.268 OA
HETATM    3  N4  UNL     1      27.634  17.227  62.257  1.00  0.00    -0.329 N 
ATOM      4  H4  UNL     1      28.085  17.749  61.505  1.00  0.00     0.165 HD
ENDROOT
BRANCH   1   5
HETATM    5  C5  UNL     1      29.906  16.854  63.301  1.00  0.00     0.034 A 
HETATM    6  C4  UNL     1      30.662  16.887  62.151  1.00  0.00     0.019 A 
HETATM    7  C3  UNL     1      32.035  17.026  62.170  1.00  0.00     0.037 A 
HETATM    8  C2  UNL     1      32.711  17.143  63.364  1.00  0.00     0.109 A 
HETATM    9  N3  UNL     1      34.065  17.281  63.392  1.00  0.00    -0.147 N 
HETATM   10  C11 UNL     1      31.967  17.112  64.524  1.00  0.00     0.081 A 
HETATM   11  N2  UNL     1      34.654  17.387  64.565  1.00  0.00    -0.105 N 
HETATM   12  C1  UNL     1      33.974  17.363  65.726  1.00  0.00     0.693 A 
ATOM     13  H2  UNL     1      35.668  17.491  64.595  1.00  0.00     0.208 HD
HETATM   14  N8  UNL     1      32.635  17.227  65.709  1.00  0.00    -0.188 N 
ATOM     15  H8  UNL     1      32.117  17.210  66.587  1.00  0.00     0.184 HD
HETATM   16  C10 UNL     1      30.595  16.971  64.490  1.00  0.00     0.049 A 
BRANCH   9  17
HETATM   17  O1  UNL     1      34.721  17.301  62.196  1.00  0.00    -0.267 OA
ATOM     18  H1  UNL     1      35.580  17.681  62.061  1.00  0.00     0.247 HD
ENDBRANCH   9  17
BRANCH  12  19
HETATM   19  N1  UNL     1      34.538  17.466  66.884  1.00  0.00    -0.233 N 
ATOM     20  H12 UNL     1      34.175  18.182  67.513  1.00  0.00     0.174 HD
ATOM     21  H11 UNL     1      35.312  16.875  67.187  1.00  0.00     0.174 HD
ENDBRANCH  12  19
ENDBRANCH   1   5
BRANCH   3  22
HETATM   22  C7  UNL     1      26.213  17.092  62.197  1.00  0.00     0.255 C 
BRANCH  22  23
HETATM   23  O3  UNL     1      25.589  18.336  62.035  1.00  0.00    -0.374 OA
ATOM     24  H3  UNL     1      25.258  18.666  62.861  1.00  0.00     0.212 HD
ENDBRANCH  22  23
BRANCH  22  25
HETATM   25  C8  UNL     1      25.751  16.173  61.090  1.00  0.00     0.289 C 
BRANCH  25  26
HETATM   26  N5  UNL     1      25.962  16.762  59.785  1.00  0.00    -0.067 N 
ATOM     27  H53 UNL     1      25.606  17.717  59.745  1.00  0.00     0.275 HD
ATOM     28  H52 UNL     1      26.950  16.953  59.619  1.00  0.00     0.275 HD
ATOM     29  H51 UNL     1      25.565  16.185  59.044  1.00  0.00     0.275 HD
ENDBRANCH  25  26
BRANCH  25  30
HETATM   30  C9  UNL     1      24.311  15.802  61.203  1.00  0.00     0.412 C 
BRANCH  30  31
HETATM   31  N6  UNL     1      23.839  15.786  62.575  1.00  0.00    -0.048 N 
ATOM     32  H63 UNL     1      24.621  15.781  63.230  1.00  0.00     0.276 HD
ATOM     33  H62 UNL     1      23.418  16.680  62.827  1.00  0.00     0.276 HD
ATOM     34  H61 UNL     1      23.200  15.014  62.765  1.00  0.00     0.276 HD
ENDBRANCH  30  31
BRANCH  30  35
HETATM   35  N7  UNL     1      23.529  16.807  60.505  1.00  0.00    -0.048 N 
ATOM     36  H73 UNL     1      23.756  17.757  60.800  1.00  0.00     0.276 HD
ATOM     37  H72 UNL     1      23.793  16.901  59.525  1.00  0.00     0.276 HD
ATOM     38  H71 UNL     1      22.541  16.582  60.627  1.00  0.00     0.276 HD
ENDBRANCH  30  35
ENDBRANCH  25  30
ENDBRANCH  22  25
ENDBRANCH   3  22
TORSDOF 10
ENDMDL
MODEL 5
REMARK VINA RESULT: -6.878793653      1.865      7.887
REMARK  10 active torsions:
REMARK  status: ('A' for Active; 'I' for Inactive)
REMARK    1  A    between atoms: N1_1  and  C1_4 
REMARK    2  A    between atoms: N3_7  and  O1_8 
REMARK    3  A    between atoms: C5_13  and  C6_14 
REMARK       I    between atoms: C6_14  and  N4_16 
REMARK    4  A    between atoms: N4_16  and  C7_18 
REMARK    5  A    between atoms: C7_18  and  O3_19 
REMARK    6  A    between atoms: C7_18  and  C8_21 
REMARK    7  A    between atoms: C8_21  and  N5_22 
REMARK    8  A    between atoms: C8_21  and  C9_26 
REMARK    9  A    between atoms: C9_26  and  N6_27 
REMARK   10  A    between atoms: C9_26  and  N7_31 
ROOT
HETATM    1  C6  UNL     1      27.555  17.653  62.257  1.00  0.00     0.253 C 
HETATM    2  O2  UNL     1      28.379  17.694  61.289  1.00  0.00    -0.268 OA
HETATM    3  N4  UNL     1      26.856  16.460  62.477  1.00  0.00    -0.329 N 
ATOM      4  H4  UNL     1      26.199  16.441  63.257  1.00  0.00     0.165 HD
ENDROOT
BRANCH   1   5
HETATM    5  C5  UNL     1      27.408  18.858  63.056  1.00  0.00     0.034 A 
HETATM    6  C4  UNL     1      26.195  19.494  63.186  1.00  0.00     0.019 A 
HETATM    7  C3  UNL     1      26.036  20.639  63.940  1.00  0.00     0.037 A 
HETATM    8  C2  UNL     1      27.106  21.196  64.604  1.00  0.00     0.109 A 
HETATM    9  N3  UNL     1      26.959  22.325  65.351  1.00  0.00    -0.147 N 
HETATM   10  C11 UNL     1      28.328  20.569  64.483  1.00  0.00     0.081 A 
HETATM   11  N2  UNL     1      28.020  22.809  65.961  1.00  0.00    -0.105 N 
HETATM   12  C1  UNL     1      29.234  22.235  65.876  1.00  0.00     0.693 A 
ATOM     13  H2  UNL     1      27.919  23.655  66.522  1.00  0.00     0.208 HD
HETATM   14  N8  UNL     1      29.391  21.119  65.141  1.00  0.00    -0.188 N 
ATOM     15  H8  UNL     1      30.310  20.680  65.075  1.00  0.00     0.184 HD
HETATM   16  C10 UNL     1      28.473  19.425  63.726  1.00  0.00     0.049 A 
BRANCH   9  17
HETATM   17  O1  UNL     1      25.714  22.879  65.415  1.00  0.00    -0.267 OA
ATOM     18  H1  UNL     1      24.904  22.384  65.381  1.00  0.00     0.247 HD
ENDBRANCH   9  17
BRANCH  12  19
HETATM   19  N1  UNL     1      30.285  22.698  66.469  1.00  0.00    -0.233 N 
ATOM     20  H12 UNL     1      30.330  23.707  66.609  1.00  0.00     0.174 HD
ATOM     21  H11 UNL     1      31.052  22.110  66.794  1.00  0.00     0.174 HD
ENDBRANCH  12  19
ENDBRANCH   1   5
BRANCH   3  22
HETATM   22  C7  UNL     1      26.985  15.266  61.703  1.00  0.00     0.255 C 
BRANCH  22  23
HETATM   23  O3  UNL     1      26.886  14.123  62.508  1.00  0.00    -0.374 OA
ATOM     24  H3  UNL     1      25.986  13.955  62.759  1.00  0.00     0.212 HD
ENDBRANCH  22  23
BRANCH  22  25
HETATM   25  C8  UNL     1      25.963  15.164  60.595  1.00  0.00     0.289 C 
BRANCH  25  26
HETATM   26  N5  UNL     1      26.255  16.081  59.514  1.00  0.00    -0.067 N 
ATOM     27  H53 UNL     1      26.408  17.029  59.860  1.00  0.00     0.275 HD
ATOM     28  H52 UNL     1      27.178  15.906  59.117  1.00  0.00     0.275 HD
ATOM     29  H51 UNL     1      25.531  16.059  58.796  1.00  0.00     0.275 HD
ENDBRANCH  25  26
BRANCH  25  30
HETATM   30  C9  UNL     1      24.570  15.426  61.060  1.00  0.00     0.412 C 
BRANCH  30  31
HETATM   31  N6  UNL     1      23.987  16.609  60.455  1.00  0.00    -0.048 N 
ATOM     32  H63 UNL     1      24.235  16.674  59.468  1.00  0.00     0.276 HD
ATOM     33  H62 UNL     1      22.976  16.513  60.366  1.00  0.00     0.276 HD
ATOM     34  H61 UNL     1      24.230  17.467  60.949  1.00  0.00     0.276 HD
ENDBRANCH  30  31
BRANCH  30  35
HETATM   35  N7  UNL     1      23.741  14.302  60.661  1.00  0.00    -0.048 N 
ATOM     36  H73 UNL     1      22.819  14.590  60.333  1.00  0.00     0.276 HD
ATOM     37  H72 UNL     1      24.063  13.863  59.798  1.00  0.00     0.276 HD
ATOM     38  H71 UNL     1      23.696  13.648  61.441  1.00  0.00     0.276 HD
ENDBRANCH  30  35
ENDBRANCH  25  30
ENDBRANCH  22  25
ENDBRANCH   3  22
TORSDOF 10
ENDMDL
