MODEL 1
REMARK VINA RESULT: -6.866391710      0.000      0.000
REMARK  8 active torsions:
REMARK  status: ('A' for Active; 'I' for Inactive)
REMARK       I    between atoms: C1_2  and  N2_4 
REMARK    1  A    between atoms: N2_4  and  C2_6 
REMARK    2  A    between atoms: C3_9  and  N4_10 
REMARK    3  A    between atoms: N4_10  and  C4_12 
REMARK    4  A    between atoms: C4_12  and  C5_13 
REMARK    5  A    between atoms: C5_13  and  O2_14 
REMARK    6  A    between atoms: O2_14  and  C6_15 
REMARK    7  A    between atoms: C6_15  and  C7_16 
REMARK    8  A    between atoms: C7_16  and  O3_17 
ROOT
HETATM    1  C2  UNL     1      24.729  17.721  63.627  1.00  0.00     0.155 A 
HETATM    2  N3  UNL     1      25.714  18.610  63.419  1.00  0.00    -0.174 N 
ATOM      3  H3  UNL     1      25.875  19.350  64.101  1.00  0.00     0.186 HD
HETATM    4  C3  UNL     1      26.502  18.538  62.310  1.00  0.00     0.681 A 
HETATM    5  N5  UNL     1      26.293  17.570  61.418  1.00  0.00    -0.174 N 
ATOM      6  H5  UNL     1      26.888  17.524  60.591  1.00  0.00     0.186 HD
HETATM    7  C8  UNL     1      25.323  16.653  61.576  1.00  0.00     0.155 A 
HETATM    8  N6  UNL     1      24.916  15.605  60.844  1.00  0.00    -0.292 N 
ATOM      9  H6  UNL     1      25.328  15.313  59.958  1.00  0.00     0.172 HD
HETATM   10  C9  UNL     1      23.877  14.992  61.458  1.00  0.00     0.326 A 
HETATM   11  O4  UNL     1      23.268  13.974  61.026  1.00  0.00    -0.247 OA
HETATM   12  N7  UNL     1      23.659  15.694  62.584  1.00  0.00    -0.302 N 
ATOM     13  H7  UNL     1      22.933  15.477  63.266  1.00  0.00     0.171 HD
HETATM   14  C10 UNL     1      24.516  16.713  62.694  1.00  0.00     0.126 A 
ENDROOT
BRANCH   4  15
HETATM   15  N4  UNL     1      27.406  19.422  62.198  1.00  0.00    -0.224 N 
ATOM     16  H4  UNL     1      27.232  20.224  61.591  1.00  0.00     0.177 HD
BRANCH  15  17
HETATM   17  C4  UNL     1      28.700  19.340  62.908  1.00  0.00     0.164 C 
BRANCH  17  18
HETATM   18  C5  UNL     1      29.136  20.727  63.278  1.00  0.00     0.188 C 
BRANCH  18  19
HETATM   19  O2  UNL     1      28.174  21.526  63.684  1.00  0.00    -0.387 OA
BRANCH  19  20
HETATM   20  C6  UNL     1      27.500  21.573  64.808  1.00  0.00     0.193 C 
BRANCH  20  21
HETATM   21  C7  UNL     1      26.049  21.886  64.860  1.00  0.00     0.190 C 
BRANCH  21  22
HETATM   22  O3  UNL     1      25.330  21.487  63.732  1.00  0.00    -0.399 OA
ATOM     23  H3  UNL     1      24.654  20.841  63.905  1.00  0.00     0.209 HD
ENDBRANCH  21  22
ENDBRANCH  20  21
ENDBRANCH  19  20
ENDBRANCH  18  19
ENDBRANCH  17  18
ENDBRANCH  15  17
ENDBRANCH   4  15
BRANCH   1  24
HETATM   24  N2  UNL     1      23.962  17.747  64.655  1.00  0.00    -0.295 N 
HETATM   25  C1  UNL     1      23.742  18.956  65.358  1.00  0.00     0.334 C 
HETATM   26  N1  UNL     1      24.357  19.187  66.611  1.00  0.00    -0.040 NA
HETATM   27  O1  UNL     1      22.998  19.846  64.883  1.00  0.00    -0.251 OA
ATOM     28  H2  UNL     1      23.507  16.890  64.969  1.00  0.00     0.172 HD
ENDBRANCH   1  24
TORSDOF 8
ENDMDL
MODEL 2
REMARK VINA RESULT: -6.783125663      1.909      5.456
REMARK  8 active torsions:
REMARK  status: ('A' for Active; 'I' for Inactive)
REMARK       I    between atoms: C1_2  and  N2_4 
REMARK    1  A    between atoms: N2_4  and  C2_6 
REMARK    2  A    between atoms: C3_9  and  N4_10 
REMARK    3  A    between atoms: N4_10  and  C4_12 
REMARK    4  A    between atoms: C4_12  and  C5_13 
REMARK    5  A    between atoms: C5_13  and  O2_14 
REMARK    6  A    between atoms: O2_14  and  C6_15 
REMARK    7  A    between atoms: C6_15  and  C7_16 
REMARK    8  A    between atoms: C7_16  and  O3_17 
ROOT
HETATM    1  C2  UNL     1      25.912  18.440  63.662  1.00  0.00     0.155 A 
HETATM    2  N3  UNL     1      25.676  17.678  62.581  1.00  0.00    -0.174 N 
ATOM      3  H3  UNL     1      24.871  17.053  62.573  1.00  0.00     0.186 HD
HETATM    4  C3  UNL     1      26.497  17.727  61.495  1.00  0.00     0.681 A 
HETATM    5  N5  UNL     1      27.549  18.544  61.504  1.00  0.00    -0.174 N 
ATOM      6  H5  UNL     1      28.159  18.574  60.687  1.00  0.00     0.186 HD
HETATM    7  C8  UNL     1      27.832  19.330  62.557  1.00  0.00     0.155 A 
HETATM    8  N6  UNL     1      28.806  20.217  62.812  1.00  0.00    -0.292 N 
ATOM      9  H6  UNL     1      29.563  20.457  62.172  1.00  0.00     0.172 HD
HETATM   10  C9  UNL     1      28.632  20.748  64.046  1.00  0.00     0.326 A 
HETATM   11  O4  UNL     1      29.379  21.613  64.582  1.00  0.00    -0.247 OA
HETATM   12  N7  UNL     1      27.528  20.160  64.538  1.00  0.00    -0.302 N 
ATOM     13  H7  UNL     1      27.136  20.354  65.459  1.00  0.00     0.171 HD
HETATM   14  C10 UNL     1      27.010  19.290  63.666  1.00  0.00     0.126 A 
ENDROOT
BRANCH   4  15
HETATM   15  N4  UNL     1      26.196  16.970  60.521  1.00  0.00    -0.224 N 
ATOM     16  H4  UNL     1      25.295  17.102  60.061  1.00  0.00     0.177 HD
BRANCH  15  17
HETATM   17  C4  UNL     1      27.095  15.907  60.024  1.00  0.00     0.164 C 
BRANCH  17  18
HETATM   18  C5  UNL     1      26.402  14.584  60.169  1.00  0.00     0.188 C 
BRANCH  18  19
HETATM   19  O2  UNL     1      26.369  14.100  61.390  1.00  0.00    -0.387 OA
BRANCH  19  20
HETATM   20  C6  UNL     1      25.369  13.854  62.202  1.00  0.00     0.193 C 
BRANCH  20  21
HETATM   21  C7  UNL     1      24.019  14.444  62.012  1.00  0.00     0.190 C 
BRANCH  21  22
HETATM   22  O3  UNL     1      23.718  15.492  62.883  1.00  0.00    -0.399 OA
ATOM     23  H3  UNL     1      22.905  15.384  63.363  1.00  0.00     0.209 HD
ENDBRANCH  21  22
ENDBRANCH  20  21
ENDBRANCH  19  20
ENDBRANCH  18  19
ENDBRANCH  17  18
ENDBRANCH  15  17
ENDBRANCH   4  15
BRANCH   1  24
HETATM   24  N2  UNL     1      25.168  18.429  64.707  1.00  0.00    -0.295 N 
HETATM   25  C1  UNL     1      23.804  18.798  64.624  1.00  0.00     0.334 C 
HETATM   26  N1  UNL     1      23.362  20.052  65.110  1.00  0.00    -0.040 NA
HETATM   27  O1  UNL     1      22.961  18.022  64.117  1.00  0.00    -0.251 OA
ATOM     28  H2  UNL     1      25.563  18.152  65.606  1.00  0.00     0.172 HD
ENDBRANCH   1  24
TORSDOF 8
ENDMDL
MODEL 3
REMARK VINA RESULT: -6.594105282      1.978      5.375
REMARK  8 active torsions:
REMARK  status: ('A' for Active; 'I' for Inactive)
REMARK       I    between atoms: C1_2  and  N2_4 
REMARK    1  A    between atoms: N2_4  and  C2_6 
REMARK    2  A    between atoms: C3_9  and  N4_10 
REMARK    3  A    between atoms: N4_10  and  C4_12 
REMARK    4  A    between atoms: C4_12  and  C5_13 
REMARK    5  A    between atoms: C5_13  and  O2_14 
REMARK    6  A    between atoms: O2_14  and  C6_15 
REMARK    7  A    between atoms: C6_15  and  C7_16 
REMARK    8  A    between atoms: C7_16  and  O3_17 
ROOT
HETATM    1  C2  UNL     1      25.962  18.905  64.075  1.00  0.00     0.155 A 
HETATM    2  N3  UNL     1      26.006  18.198  62.934  1.00  0.00    -0.174 N 
ATOM      3  H3  UNL     1      25.319  17.462  62.773  1.00  0.00     0.186 HD
HETATM    4  C3  UNL     1      26.952  18.450  61.988  1.00  0.00     0.681 A 
HETATM    5  N5  UNL     1      27.849  19.413  62.197  1.00  0.00    -0.174 N 
ATOM      6  H5  UNL     1      28.555  19.595  61.484  1.00  0.00     0.186 HD
HETATM    7  C8  UNL     1      27.852  20.152  63.320  1.00  0.00     0.155 A 
HETATM    8  N6  UNL     1      28.626  21.155  63.763  1.00  0.00    -0.292 N 
ATOM      9  H6  UNL     1      29.418  21.552  63.258  1.00  0.00     0.172 HD
HETATM   10  C9  UNL     1      28.199  21.560  64.982  1.00  0.00     0.326 A 
HETATM   11  O4  UNL     1      28.715  22.486  65.669  1.00  0.00    -0.247 OA
HETATM   12  N7  UNL     1      27.144  20.778  65.272  1.00  0.00    -0.302 N 
ATOM     13  H7  UNL     1      26.600  20.842  66.133  1.00  0.00     0.171 HD
HETATM   14  C10 UNL     1      26.899  19.908  64.288  1.00  0.00     0.126 A 
ENDROOT
BRANCH   4  15
HETATM   15  N4  UNL     1      26.916  17.731  60.942  1.00  0.00    -0.224 N 
ATOM     16  H4  UNL     1      26.335  18.036  60.160  1.00  0.00     0.177 HD
BRANCH  15  17
HETATM   17  C4  UNL     1      27.680  16.473  60.807  1.00  0.00     0.164 C 
BRANCH  17  18
HETATM   18  C5  UNL     1      26.713  15.328  60.732  1.00  0.00     0.188 C 
BRANCH  18  19
HETATM   19  O2  UNL     1      25.974  15.148  61.805  1.00  0.00    -0.387 OA
BRANCH  19  20
HETATM   20  C6  UNL     1      24.674  15.128  61.972  1.00  0.00     0.193 C 
BRANCH  20  21
HETATM   21  C7  UNL     1      23.741  15.886  61.099  1.00  0.00     0.190 C 
BRANCH  21  22
HETATM   22  O3  UNL     1      23.741  17.265  61.313  1.00  0.00    -0.399 OA
ATOM     23  H3  UNL     1      23.720  17.522  62.228  1.00  0.00     0.209 HD
ENDBRANCH  21  22
ENDBRANCH  20  21
ENDBRANCH  19  20
ENDBRANCH  18  19
ENDBRANCH  17  18
ENDBRANCH  15  17
ENDBRANCH   4  15
BRANCH   1  24
HETATM   24  N2  UNL     1      25.090  18.705  64.995  1.00  0.00    -0.295 N 
HETATM   25  C1  UNL     1      23.707  18.794  64.706  1.00  0.00     0.334 C 
HETATM   26  N1  UNL     1      22.950  19.913  65.127  1.00  0.00    -0.040 NA
HETATM   27  O1  UNL     1      23.126  17.883  64.072  1.00  0.00    -0.251 OA
ATOM     28  H2  UNL     1      25.396  18.480  65.942  1.00  0.00     0.172 HD
ENDBRANCH   1  24
TORSDOF 8
ENDMDL
MODEL 4
REMARK VINA RESULT: -6.577380043      2.015      4.023
REMARK  8 active torsions:
REMARK  status: ('A' for Active; 'I' for Inactive)
REMARK       I    between atoms: C1_2  and  N2_4 
REMARK    1  A    between atoms: N2_4  and  C2_6 
REMARK    2  A    between atoms: C3_9  and  N4_10 
REMARK    3  A    between atoms: N4_10  and  C4_12 
REMARK    4  A    between atoms: C4_12  and  C5_13 
REMARK    5  A    between atoms: C5_13  and  O2_14 
REMARK    6  A    between atoms: O2_14  and  C6_15 
REMARK    7  A    between atoms: C6_15  and  C7_16 
REMARK    8  A    between atoms: C7_16  and  O3_17 
ROOT
HETATM    1  C2  UNL     1      26.389  17.181  61.380  1.00  0.00     0.155 A 
HETATM    2  N3  UNL     1      26.503  18.383  61.968  1.00  0.00    -0.174 N 
ATOM      3  H3  UNL     1      27.225  19.030  61.654  1.00  0.00     0.186 HD
HETATM    4  C3  UNL     1      25.667  18.751  62.979  1.00  0.00     0.681 A 
HETATM    5  N5  UNL     1      24.722  17.906  63.390  1.00  0.00    -0.174 N 
ATOM      6  H5  UNL     1      24.101  18.190  64.147  1.00  0.00     0.186 HD
HETATM    7  C8  UNL     1      24.562  16.692  62.836  1.00  0.00     0.155 A 
HETATM    8  N6  UNL     1      23.710  15.680  63.061  1.00  0.00    -0.292 N 
ATOM      9  H6  UNL     1      22.973  15.679  63.766  1.00  0.00     0.172 HD
HETATM   10  C9  UNL     1      23.977  14.659  62.213  1.00  0.00     0.326 A 
HETATM   11  O4  UNL     1      23.353  13.561  62.169  1.00  0.00    -0.247 OA
HETATM   12  N7  UNL     1      25.014  15.074  61.465  1.00  0.00    -0.302 N 
ATOM     13  H7  UNL     1      25.449  14.519  60.727  1.00  0.00     0.171 HD
HETATM   14  C10 UNL     1      25.402  16.304  61.811  1.00  0.00     0.126 A 
ENDROOT
BRANCH   4  15
HETATM   15  N4  UNL     1      25.850  19.905  63.475  1.00  0.00    -0.224 N 
ATOM     16  H4  UNL     1      25.436  20.710  63.005  1.00  0.00     0.177 HD
BRANCH  15  17
HETATM   17  C4  UNL     1      26.637  20.133  64.706  1.00  0.00     0.164 C 
BRANCH  17  18
HETATM   18  C5  UNL     1      27.721  21.126  64.407  1.00  0.00     0.188 C 
BRANCH  18  19
HETATM   19  O2  UNL     1      28.359  20.936  63.274  1.00  0.00    -0.387 OA
BRANCH  19  20
HETATM   20  C6  UNL     1      29.562  20.482  63.019  1.00  0.00     0.193 C 
BRANCH  20  21
HETATM   21  C7  UNL     1      29.839  19.047  62.752  1.00  0.00     0.190 C 
BRANCH  21  22
HETATM   22  O3  UNL     1      29.598  18.646  61.437  1.00  0.00    -0.399 OA
ATOM     23  H3  UNL     1      30.317  18.178  61.030  1.00  0.00     0.209 HD
ENDBRANCH  21  22
ENDBRANCH  20  21
ENDBRANCH  19  20
ENDBRANCH  18  19
ENDBRANCH  17  18
ENDBRANCH  15  17
ENDBRANCH   4  15
BRANCH   1  24
HETATM   24  N2  UNL     1      27.151  16.789  60.424  1.00  0.00    -0.295 N 
HETATM   25  C1  UNL     1      27.147  17.462  59.178  1.00  0.00     0.334 C 
HETATM   26  N1  UNL     1      26.517  16.889  58.049  1.00  0.00    -0.040 NA
HETATM   27  O1  UNL     1      27.701  18.578  59.053  1.00  0.00    -0.251 OA
ATOM     28  H2  UNL     1      27.765  15.987  60.564  1.00  0.00     0.172 HD
ENDBRANCH   1  24
TORSDOF 8
ENDMDL
MODEL 5
REMARK VINA RESULT: -6.529327579      2.044      5.758
REMARK  8 active torsions:
REMARK  status: ('A' for Active; 'I' for Inactive)
REMARK       I    between atoms: C1_2  and  N2_4 
REMARK    1  A    between atoms: N2_4  and  C2_6 
REMARK    2  A    between atoms: C3_9  and  N4_10 
REMARK    3  A    between atoms: N4_10  and  C4_12 
REMARK    4  A    between atoms: C4_12  and  C5_13 
REMARK    5  A    between atoms: C5_13  and  O2_14 
REMARK    6  A    between atoms: O2_14  and  C6_15 
REMARK    7  A    between atoms: C6_15  and  C7_16 
REMARK    8  A    between atoms: C7_16  and  O3_17 
ROOT
HETATM    1  C2  UNL     1      26.337  19.311  63.265  1.00  0.00     0.155 A 
HETATM    2  N3  UNL     1      26.045  18.543  62.202  1.00  0.00    -0.174 N 
ATOM      3  H3  UNL     1      25.089  18.219  62.065  1.00  0.00     0.186 HD
HETATM    4  C3  UNL     1      27.008  18.192  61.305  1.00  0.00     0.681 A 
HETATM    5  N5  UNL     1      28.258  18.616  61.484  1.00  0.00    -0.174 N 
ATOM      6  H5  UNL     1      28.973  18.348  60.807  1.00  0.00     0.186 HD
HETATM    7  C8  UNL     1      28.606  19.388  62.528  1.00  0.00     0.155 A 
HETATM    8  N6  UNL     1      29.765  19.934  62.926  1.00  0.00    -0.292 N 
ATOM      9  H6  UNL     1      30.658  19.834  62.442  1.00  0.00     0.172 HD
HETATM   10  C9  UNL     1      29.574  20.636  64.068  1.00  0.00     0.326 A 
HETATM   11  O4  UNL     1      30.467  21.269  64.697  1.00  0.00    -0.247 OA
HETATM   12  N7  UNL     1      28.267  20.503  64.357  1.00  0.00    -0.302 N 
ATOM     13  H7  UNL     1      27.812  20.924  65.167  1.00  0.00     0.171 HD
HETATM   14  C10 UNL     1      27.642  19.752  63.446  1.00  0.00     0.126 A 
ENDROOT
BRANCH   4  15
HETATM   15  N4  UNL     1      26.639  17.463  60.333  1.00  0.00    -0.224 N 
ATOM     16  H4  UNL     1      25.988  17.852  59.651  1.00  0.00     0.177 HD
BRANCH  15  17
HETATM   17  C4  UNL     1      27.114  16.076  60.145  1.00  0.00     0.164 C 
BRANCH  17  18
HETATM   18  C5  UNL     1      26.044  15.133  60.610  1.00  0.00     0.188 C 
BRANCH  18  19
HETATM   19  O2  UNL     1      24.970  15.707  61.105  1.00  0.00    -0.387 OA
BRANCH  19  20
HETATM   20  C6  UNL     1      24.117  15.313  62.020  1.00  0.00     0.193 C 
BRANCH  20  21
HETATM   21  C7  UNL     1      23.681  13.900  62.155  1.00  0.00     0.190 C 
BRANCH  21  22
HETATM   22  O3  UNL     1      22.899  13.640  63.282  1.00  0.00    -0.399 OA
ATOM     23  H3  UNL     1      22.709  12.720  63.426  1.00  0.00     0.209 HD
ENDBRANCH  21  22
ENDBRANCH  20  21
ENDBRANCH  19  20
ENDBRANCH  18  19
ENDBRANCH  17  18
ENDBRANCH  15  17
ENDBRANCH   4  15
BRANCH   1  24
HETATM   24  N2  UNL     1      25.465  19.669  64.136  1.00  0.00    -0.295 N 
HETATM   25  C1  UNL     1      25.218  21.040  64.385  1.00  0.00     0.334 C 
HETATM   26  N1  UNL     1      25.703  21.662  65.560  1.00  0.00    -0.040 NA
HETATM   27  O1  UNL     1      24.564  21.730  63.569  1.00  0.00    -0.251 OA
ATOM     28  H2  UNL     1      24.947  18.959  64.654  1.00  0.00     0.172 HD
ENDBRANCH   1  24
TORSDOF 8
ENDMDL
