MODEL 1
REMARK VINA RESULT: -7.278874193      0.000      0.000
REMARK  7 active torsions:
REMARK  status: ('A' for Active; 'I' for Inactive)
REMARK    1  A    between atoms: N1_1  and  N2_4 
REMARK       I    between atoms: N2_4  and  C1_6 
REMARK       I    between atoms: C1_6  and  N3_8 
REMARK    2  A    between atoms: N3_8  and  C2_10 
REMARK    3  A    between atoms: C2_10  and  C3_11 
REMARK    4  A    between atoms: C3_11  and  N4_12 
REMARK       I    between atoms: N4_12  and  C4_14 
REMARK       I    between atoms: C4_14  and  N5_16 
REMARK    5  A    between atoms: N5_16  and  N6_18 
REMARK    6  A    between atoms: N6_18  and  C5_19 
REMARK    7  A    between atoms: C5_19  and  C6_20 
REMARK       I    between atoms: C6_20  and  N7_22 
ROOT
HETATM    1  N4  UNL     1      28.471  18.180  62.684  1.00  0.00    -0.341 N 
ATOM      2  H4  UNL     1      29.166  17.957  63.397  1.00  0.00     0.164 HD
HETATM    3  C4  UNL     1      27.854  19.485  62.640  1.00  0.00     0.331 C 
HETATM    4  O2  UNL     1      27.007  19.699  61.732  1.00  0.00    -0.246 OA
HETATM    5  N5  UNL     1      28.247  20.421  63.620  1.00  0.00    -0.255 N 
ATOM      6  H5  UNL     1      28.943  20.108  64.296  1.00  0.00     0.187 HD
ENDROOT
BRANCH   1   7
HETATM    7  C3  UNL     1      28.092  17.206  61.708  1.00  0.00     0.144 C 
BRANCH   7   8
HETATM    8  C2  UNL     1      27.432  16.019  62.365  1.00  0.00     0.144 C 
BRANCH   8   9
HETATM    9  N3  UNL     1      26.003  16.097  62.115  1.00  0.00    -0.340 N 
HETATM   10  C1  UNL     1      25.127  16.787  62.982  1.00  0.00     0.334 C 
HETATM   11  N2  UNL     1      23.744  16.843  62.703  1.00  0.00    -0.258 N 
HETATM   12  O1  UNL     1      25.590  17.356  64.009  1.00  0.00    -0.246 OA
ATOM     13  H2  UNL     1      23.383  16.378  61.870  1.00  0.00     0.191 HD
ATOM     14  H3  UNL     1      25.621  15.640  61.287  1.00  0.00     0.164 HD
BRANCH  11  15
HETATM   15  N1  UNL     1      22.871  17.515  63.535  1.00  0.00    -0.341 N 
ATOM     16  H12 UNL     1      23.143  17.658  64.508  1.00  0.00     0.177 HD
ATOM     17  H11 UNL     1      21.975  17.863  63.193  1.00  0.00     0.177 HD
ENDBRANCH  11  15
ENDBRANCH   8   9
ENDBRANCH   7   8
ENDBRANCH   1   7
BRANCH   5  18
HETATM   18  N6  UNL     1      27.795  21.701  63.757  1.00  0.00    -0.128 NA
BRANCH  18  19
HETATM   19  C5  UNL     1      27.031  21.936  64.924  1.00  0.00     0.238 C 
BRANCH  19  20
HETATM   20  C6  UNL     1      25.707  21.206  64.850  1.00  0.00     0.243 C 
HETATM   21  O3  UNL     1      25.033  21.308  63.794  1.00  0.00    -0.271 OA
HETATM   22  N7  UNL     1      25.310  20.454  65.966  1.00  0.00    -0.278 N 
HETATM   23  C7  UNL     1      26.145  20.391  67.132  1.00  0.00     0.155 C 
HETATM   24  C10 UNL     1      24.058  19.762  65.901  1.00  0.00     0.318 C 
HETATM   25  C8  UNL     1      25.797  19.330  68.116  1.00  0.00     0.143 C 
HETATM   26  N8  UNL     1      25.020  18.235  67.561  1.00  0.00    -0.351 N 
HETATM   27  C9  UNL     1      23.902  18.585  66.744  1.00  0.00     0.309 C 
ATOM     28  H8  UNL     1      25.262  17.262  67.746  1.00  0.00     0.162 HD
HETATM   29  O4  UNL     1      22.862  17.880  66.790  1.00  0.00    -0.262 OA
HETATM   30  O5  UNL     1      23.111  20.121  65.160  1.00  0.00    -0.262 OA
ENDBRANCH  19  20
ENDBRANCH  18  19
ENDBRANCH   5  18
TORSDOF 7
ENDMDL
MODEL 2
REMARK VINA RESULT: -7.252815621      1.489      1.577
REMARK  7 active torsions:
REMARK  status: ('A' for Active; 'I' for Inactive)
REMARK    1  A    between atoms: N1_1  and  N2_4 
REMARK       I    between atoms: N2_4  and  C1_6 
REMARK       I    between atoms: C1_6  and  N3_8 
REMARK    2  A    between atoms: N3_8  and  C2_10 
REMARK    3  A    between atoms: C2_10  and  C3_11 
REMARK    4  A    between atoms: C3_11  and  N4_12 
REMARK       I    between atoms: N4_12  and  C4_14 
REMARK       I    between atoms: C4_14  and  N5_16 
REMARK    5  A    between atoms: N5_16  and  N6_18 
REMARK    6  A    between atoms: N6_18  and  C5_19 
REMARK    7  A    between atoms: C5_19  and  C6_20 
REMARK       I    between atoms: C6_20  and  N7_22 
ROOT
HETATM    1  N4  UNL     1      27.044  18.136  60.205  1.00  0.00    -0.341 N 
ATOM      2  H4  UNL     1      26.474  18.913  59.872  1.00  0.00     0.164 HD
HETATM    3  C4  UNL     1      27.800  18.250  61.431  1.00  0.00     0.331 C 
HETATM    4  O2  UNL     1      28.482  17.253  61.790  1.00  0.00    -0.246 OA
HETATM    5  N5  UNL     1      27.716  19.472  62.132  1.00  0.00    -0.255 N 
ATOM      6  H5  UNL     1      27.126  20.195  61.721  1.00  0.00     0.187 HD
ENDROOT
BRANCH   1   7
HETATM    7  C3  UNL     1      27.111  16.913  59.468  1.00  0.00     0.144 C 
BRANCH   7   8
HETATM    8  C2  UNL     1      26.193  15.876  60.067  1.00  0.00     0.144 C 
BRANCH   8   9
HETATM    9  N3  UNL     1      24.955  16.532  60.451  1.00  0.00    -0.340 N 
HETATM   10  C1  UNL     1      24.540  16.621  61.799  1.00  0.00     0.334 C 
HETATM   11  N2  UNL     1      23.331  17.269  62.132  1.00  0.00    -0.258 N 
HETATM   12  O1  UNL     1      25.260  16.117  62.705  1.00  0.00    -0.246 OA
ATOM     13  H2  UNL     1      22.758  17.671  61.390  1.00  0.00     0.191 HD
ATOM     14  H3  UNL     1      24.367  16.942  59.725  1.00  0.00     0.164 HD
BRANCH  11  15
HETATM   15  N1  UNL     1      22.909  17.370  63.443  1.00  0.00    -0.341 N 
ATOM     16  H12 UNL     1      23.484  16.946  64.171  1.00  0.00     0.177 HD
ATOM     17  H11 UNL     1      22.045  17.855  63.686  1.00  0.00     0.177 HD
ENDBRANCH  11  15
ENDBRANCH   8   9
ENDBRANCH   7   8
ENDBRANCH   1   7
BRANCH   5  18
HETATM   18  N6  UNL     1      28.341  19.788  63.303  1.00  0.00    -0.128 NA
BRANCH  18  19
HETATM   19  C5  UNL     1      27.695  20.788  64.066  1.00  0.00     0.238 C 
BRANCH  19  20
HETATM   20  C6  UNL     1      26.225  20.468  64.229  1.00  0.00     0.243 C 
HETATM   21  O3  UNL     1      25.466  20.652  63.242  1.00  0.00    -0.271 OA
HETATM   22  N7  UNL     1      25.793  19.981  65.472  1.00  0.00    -0.278 N 
HETATM   23  C7  UNL     1      26.730  19.800  66.543  1.00  0.00     0.155 C 
HETATM   24  C10 UNL     1      24.403  19.678  65.630  1.00  0.00     0.318 C 
HETATM   25  C8  UNL     1      26.242  18.992  67.695  1.00  0.00     0.143 C 
HETATM   26  N8  UNL     1      25.127  18.118  67.377  1.00  0.00    -0.351 N 
HETATM   27  C9  UNL     1      24.047  18.689  66.638  1.00  0.00     0.309 C 
ATOM     28  H8  UNL     1      25.116  17.140  67.668  1.00  0.00     0.162 HD
HETATM   29  O4  UNL     1      22.870  18.323  66.886  1.00  0.00    -0.262 OA
HETATM   30  O5  UNL     1      23.498  20.217  64.948  1.00  0.00    -0.262 OA
ENDBRANCH  19  20
ENDBRANCH  18  19
ENDBRANCH   5  18
TORSDOF 7
ENDMDL
MODEL 3
REMARK VINA RESULT: -7.127993836      2.487      4.363
REMARK  7 active torsions:
REMARK  status: ('A' for Active; 'I' for Inactive)
REMARK    1  A    between atoms: N1_1  and  N2_4 
REMARK       I    between atoms: N2_4  and  C1_6 
REMARK       I    between atoms: C1_6  and  N3_8 
REMARK    2  A    between atoms: N3_8  and  C2_10 
REMARK    3  A    between atoms: C2_10  and  C3_11 
REMARK    4  A    between atoms: C3_11  and  N4_12 
REMARK       I    between atoms: N4_12  and  C4_14 
REMARK       I    between atoms: C4_14  and  N5_16 
REMARK    5  A    between atoms: N5_16  and  N6_18 
REMARK    6  A    between atoms: N6_18  and  C5_19 
REMARK    7  A    between atoms: C5_19  and  C6_20 
REMARK       I    between atoms: C6_20  and  N7_22 
ROOT
HETATM    1  N4  UNL     1      24.779  15.516  62.638  1.00  0.00    -0.341 N 
ATOM      2  H4  UNL     1      25.394  15.196  63.387  1.00  0.00     0.164 HD
HETATM    3  C4  UNL     1      24.090  16.781  62.743  1.00  0.00     0.331 C 
HETATM    4  O2  UNL     1      23.349  17.122  61.782  1.00  0.00    -0.246 OA
HETATM    5  N5  UNL     1      24.301  17.539  63.914  1.00  0.00    -0.255 N 
ATOM      6  H5  UNL     1      24.927  17.137  64.611  1.00  0.00     0.187 HD
ENDROOT
BRANCH   1   7
HETATM    7  C3  UNL     1      24.585  14.721  61.466  1.00  0.00     0.144 C 
BRANCH   7   8
HETATM    8  C2  UNL     1      25.905  14.416  60.801  1.00  0.00     0.144 C 
BRANCH   8   9
HETATM    9  N3  UNL     1      26.049  15.295  59.654  1.00  0.00    -0.340 N 
HETATM   10  C1  UNL     1      26.715  16.539  59.742  1.00  0.00     0.334 C 
HETATM   11  N2  UNL     1      26.836  17.365  58.603  1.00  0.00    -0.258 N 
HETATM   12  O1  UNL     1      27.201  16.906  60.847  1.00  0.00    -0.246 OA
ATOM     13  H2  UNL     1      26.437  17.056  57.717  1.00  0.00     0.191 HD
ATOM     14  H3  UNL     1      25.659  15.006  58.757  1.00  0.00     0.164 HD
BRANCH  11  15
HETATM   15  N1  UNL     1      27.485  18.582  58.667  1.00  0.00    -0.341 N 
ATOM     16  H12 UNL     1      28.451  18.633  58.341  1.00  0.00     0.177 HD
ATOM     17  H11 UNL     1      27.018  19.413  59.029  1.00  0.00     0.177 HD
ENDBRANCH  11  15
ENDBRANCH   8   9
ENDBRANCH   7   8
ENDBRANCH   1   7
BRANCH   5  18
HETATM   18  N6  UNL     1      23.755  18.753  64.212  1.00  0.00    -0.128 NA
BRANCH  18  19
HETATM   19  C5  UNL     1      24.405  19.453  65.255  1.00  0.00     0.238 C 
BRANCH  19  20
HETATM   20  C6  UNL     1      25.562  20.264  64.711  1.00  0.00     0.243 C 
HETATM   21  O3  UNL     1      25.580  20.518  63.480  1.00  0.00    -0.271 OA
HETATM   22  N7  UNL     1      26.547  20.689  65.616  1.00  0.00    -0.278 N 
HETATM   23  C7  UNL     1      26.445  20.355  67.007  1.00  0.00     0.155 C 
HETATM   24  C10 UNL     1      27.643  21.457  65.106  1.00  0.00     0.318 C 
HETATM   25  C8  UNL     1      27.349  21.109  67.918  1.00  0.00     0.143 C 
HETATM   26  N8  UNL     1      27.825  22.369  67.374  1.00  0.00    -0.351 N 
HETATM   27  C9  UNL     1      28.322  22.349  66.035  1.00  0.00     0.309 C 
ATOM     28  H8  UNL     1      27.806  23.229  67.924  1.00  0.00     0.162 HD
HETATM   29  O4  UNL     1      29.296  23.081  65.729  1.00  0.00    -0.262 OA
HETATM   30  O5  UNL     1      28.033  21.393  63.915  1.00  0.00    -0.262 OA
ENDBRANCH  19  20
ENDBRANCH  18  19
ENDBRANCH   5  18
TORSDOF 7
ENDMDL
MODEL 4
REMARK VINA RESULT: -7.096256129      1.718      5.306
REMARK  7 active torsions:
REMARK  status: ('A' for Active; 'I' for Inactive)
REMARK    1  A    between atoms: N1_1  and  N2_4 
REMARK       I    between atoms: N2_4  and  C1_6 
REMARK       I    between atoms: C1_6  and  N3_8 
REMARK    2  A    between atoms: N3_8  and  C2_10 
REMARK    3  A    between atoms: C2_10  and  C3_11 
REMARK    4  A    between atoms: C3_11  and  N4_12 
REMARK       I    between atoms: N4_12  and  C4_14 
REMARK       I    between atoms: C4_14  and  N5_16 
REMARK    5  A    between atoms: N5_16  and  N6_18 
REMARK    6  A    between atoms: N6_18  and  C5_19 
REMARK    7  A    between atoms: C5_19  and  C6_20 
REMARK       I    between atoms: C6_20  and  N7_22 
ROOT
HETATM    1  N4  UNL     1      26.551  21.236  66.039  1.00  0.00    -0.341 N 
ATOM      2  H4  UNL     1      27.304  20.992  66.683  1.00  0.00     0.164 HD
HETATM    3  C4  UNL     1      26.715  21.059  64.615  1.00  0.00     0.331 C 
HETATM    4  O2  UNL     1      25.746  21.375  63.873  1.00  0.00    -0.246 OA
HETATM    5  N5  UNL     1      27.949  20.544  64.164  1.00  0.00    -0.255 N 
ATOM      6  H5  UNL     1      28.645  20.335  64.879  1.00  0.00     0.187 HD
ENDROOT
BRANCH   1   7
HETATM    7  C3  UNL     1      25.315  21.759  66.529  1.00  0.00     0.144 C 
BRANCH   7   8
HETATM    8  C2  UNL     1      24.457  20.657  67.102  1.00  0.00     0.144 C 
BRANCH   8   9
HETATM    9  N3  UNL     1      24.642  19.468  66.287  1.00  0.00    -0.340 N 
HETATM   10  C1  UNL     1      23.726  19.104  65.275  1.00  0.00     0.334 C 
HETATM   11  N2  UNL     1      23.943  17.941  64.503  1.00  0.00    -0.258 N 
HETATM   12  O1  UNL     1      22.713  19.826  65.064  1.00  0.00    -0.246 OA
ATOM     13  H2  UNL     1      24.765  17.366  64.685  1.00  0.00     0.191 HD
ATOM     14  H3  UNL     1      25.458  18.879  66.452  1.00  0.00     0.164 HD
BRANCH  11  15
HETATM   15  N1  UNL     1      23.063  17.569  63.506  1.00  0.00    -0.341 N 
ATOM     16  H12 UNL     1      22.388  18.257  63.174  1.00  0.00     0.177 HD
ATOM     17  H11 UNL     1      23.081  16.630  63.106  1.00  0.00     0.177 HD
ENDBRANCH  11  15
ENDBRANCH   8   9
ENDBRANCH   7   8
ENDBRANCH   1   7
BRANCH   5  18
HETATM   18  N6  UNL     1      28.310  20.298  62.871  1.00  0.00    -0.128 NA
BRANCH  18  19
HETATM   19  C5  UNL     1      28.714  18.967  62.614  1.00  0.00     0.238 C 
BRANCH  19  20
HETATM   20  C6  UNL     1      27.560  18.010  62.824  1.00  0.00     0.243 C 
HETATM   21  O3  UNL     1      27.115  17.867  63.992  1.00  0.00    -0.271 OA
HETATM   22  N7  UNL     1      27.052  17.338  61.702  1.00  0.00    -0.278 N 
HETATM   23  C7  UNL     1      27.622  17.564  60.404  1.00  0.00     0.155 C 
HETATM   24  C10 UNL     1      25.961  16.432  61.896  1.00  0.00     0.318 C 
HETATM   25  C8  UNL     1      26.821  17.061  59.254  1.00  0.00     0.143 C 
HETATM   26  N8  UNL     1      25.411  16.873  59.548  1.00  0.00    -0.351 N 
HETATM   27  C9  UNL     1      25.089  16.184  60.757  1.00  0.00     0.309 C 
ATOM     28  H8  UNL     1      24.685  17.217  58.920  1.00  0.00     0.162 HD
HETATM   29  O4  UNL     1      24.094  15.416  60.781  1.00  0.00    -0.262 OA
HETATM   30  O5  UNL     1      25.731  15.856  62.987  1.00  0.00    -0.262 OA
ENDBRANCH  19  20
ENDBRANCH  18  19
ENDBRANCH   5  18
TORSDOF 7
ENDMDL
MODEL 5
REMARK VINA RESULT: -7.085746621      1.946      2.163
REMARK  7 active torsions:
REMARK  status: ('A' for Active; 'I' for Inactive)
REMARK    1  A    between atoms: N1_1  and  N2_4 
REMARK       I    between atoms: N2_4  and  C1_6 
REMARK       I    between atoms: C1_6  and  N3_8 
REMARK    2  A    between atoms: N3_8  and  C2_10 
REMARK    3  A    between atoms: C2_10  and  C3_11 
REMARK    4  A    between atoms: C3_11  and  N4_12 
REMARK       I    between atoms: N4_12  and  C4_14 
REMARK       I    between atoms: C4_14  and  N5_16 
REMARK    5  A    between atoms: N5_16  and  N6_18 
REMARK    6  A    between atoms: N6_18  and  C5_19 
REMARK    7  A    between atoms: C5_19  and  C6_20 
REMARK       I    between atoms: C6_20  and  N7_22 
ROOT
HETATM    1  N4  UNL     1      27.299  16.905  60.902  1.00  0.00    -0.341 N 
ATOM      2  H4  UNL     1      26.402  17.169  60.494  1.00  0.00     0.164 HD
HETATM    3  C4  UNL     1      28.068  17.857  61.668  1.00  0.00     0.331 C 
HETATM    4  O2  UNL     1      29.166  17.467  62.149  1.00  0.00    -0.246 OA
HETATM    5  N5  UNL     1      27.531  19.152  61.819  1.00  0.00    -0.255 N 
ATOM      6  H5  UNL     1      26.631  19.328  61.372  1.00  0.00     0.187 HD
ENDROOT
BRANCH   1   7
HETATM    7  C3  UNL     1      27.817  15.584  60.726  1.00  0.00     0.144 C 
BRANCH   7   8
HETATM    8  C2  UNL     1      26.881  14.749  59.886  1.00  0.00     0.144 C 
BRANCH   8   9
HETATM    9  N3  UNL     1      26.134  13.874  60.774  1.00  0.00    -0.340 N 
HETATM   10  C1  UNL     1      24.958  14.301  61.432  1.00  0.00     0.334 C 
HETATM   11  N2  UNL     1      24.259  13.421  62.285  1.00  0.00    -0.258 N 
HETATM   12  O1  UNL     1      24.537  15.477  61.250  1.00  0.00    -0.246 OA
ATOM     13  H2  UNL     1      24.611  12.474  62.424  1.00  0.00     0.191 HD
ATOM     14  H3  UNL     1      26.468  12.922  60.926  1.00  0.00     0.164 HD
BRANCH  11  15
HETATM   15  N1  UNL     1      23.107  13.816  62.935  1.00  0.00    -0.341 N 
ATOM     16  H12 UNL     1      22.305  14.097  62.370  1.00  0.00     0.177 HD
ATOM     17  H11 UNL     1      23.050  13.829  63.953  1.00  0.00     0.177 HD
ENDBRANCH  11  15
ENDBRANCH   8   9
ENDBRANCH   7   8
ENDBRANCH   1   7
BRANCH   5  18
HETATM   18  N6  UNL     1      28.087  20.195  62.501  1.00  0.00    -0.128 NA
BRANCH  18  19
HETATM   19  C5  UNL     1      27.784  20.227  63.882  1.00  0.00     0.238 C 
BRANCH  19  20
HETATM   20  C6  UNL     1      26.286  20.206  64.099  1.00  0.00     0.243 C 
HETATM   21  O3  UNL     1      25.544  20.549  63.143  1.00  0.00    -0.271 OA
HETATM   22  N7  UNL     1      25.811  19.802  65.356  1.00  0.00    -0.278 N 
HETATM   23  C7  UNL     1      26.732  19.426  66.391  1.00  0.00     0.155 C 
HETATM   24  C10 UNL     1      24.395  19.781  65.567  1.00  0.00     0.318 C 
HETATM   25  C8  UNL     1      26.135  18.719  67.557  1.00  0.00     0.143 C 
HETATM   26  N8  UNL     1      24.856  18.089  67.280  1.00  0.00    -0.351 N 
HETATM   27  C9  UNL     1      23.886  18.873  66.585  1.00  0.00     0.309 C 
ATOM     28  H8  UNL     1      24.660  17.130  67.568  1.00  0.00     0.162 HD
HETATM   29  O4  UNL     1      22.669  18.747  66.876  1.00  0.00    -0.262 OA
HETATM   30  O5  UNL     1      23.593  20.498  64.921  1.00  0.00    -0.262 OA
ENDBRANCH  19  20
ENDBRANCH  18  19
ENDBRANCH   5  18
TORSDOF 7
ENDMDL
