MODEL 1
REMARK VINA RESULT: -7.326685345      0.000      0.000
REMARK  7 active torsions:
REMARK  status: ('A' for Active; 'I' for Inactive)
REMARK    1  A    between atoms: C3_3  and  N1_4 
REMARK    2  A    between atoms: N1_4  and  C4_6 
REMARK    3  A    between atoms: C4_6  and  C5_7 
REMARK    4  A    between atoms: C5_7  and  C6_8 
REMARK    5  A    between atoms: C6_8  and  N2_9 
REMARK       I    between atoms: N2_9  and  C7_11 
REMARK    6  A    between atoms: N4_13  and  C8_15 
REMARK    7  A    between atoms: C8_15  and  C9_16 
ROOT
HETATM    1  C1  UNL     1      25.058  18.061  64.587  1.00  0.00     0.030 C 
HETATM    2  C2  UNL     1      25.714  18.293  63.472  1.00  0.00     0.030 A 
HETATM    3  C3  UNL     1      26.498  19.457  63.319  1.00  0.00     0.127 A 
HETATM    4  N5  UNL     1      27.006  19.310  62.044  1.00  0.00    -0.284 N 
ATOM      5  H5  UNL     1      27.629  19.977  61.587  1.00  0.00     0.188 HD
HETATM    6  N6  UNL     1      26.583  18.207  61.508  1.00  0.00    -0.296 N 
ATOM      7  H6  UNL     1      26.832  17.896  60.570  1.00  0.00     0.187 HD
HETATM    8  C11 UNL     1      25.762  17.512  62.350  1.00  0.00     0.093 A 
HETATM    9  C12 UNL     1      25.178  16.348  62.055  1.00  0.00     0.134 A 
HETATM   10  N7  UNL     1      24.313  15.516  62.780  1.00  0.00    -0.302 N 
ATOM     11  H7  UNL     1      23.985  15.728  63.722  1.00  0.00     0.171 HD
HETATM   12  C13 UNL     1      23.938  14.331  62.054  1.00  0.00     0.327 A 
HETATM   13  O1  UNL     1      23.169  13.429  62.496  1.00  0.00    -0.247 OA
HETATM   14  N8  UNL     1      24.588  14.417  60.827  1.00  0.00    -0.274 N 
ATOM     15  H8  UNL     1      24.525  13.725  60.080  1.00  0.00     0.173 HD
HETATM   16  C14 UNL     1      25.362  15.630  60.768  1.00  0.00     0.278 A 
HETATM   17  O2  UNL     1      26.042  15.966  59.793  1.00  0.00    -0.265 OA
ENDROOT
BRANCH   3  18
HETATM   18  N1  UNL     1      26.746  20.422  64.060  1.00  0.00    -0.374 N 
ATOM     19  H1  UNL     1      25.872  20.842  64.374  1.00  0.00     0.161 HD
BRANCH  18  20
HETATM   20  C4  UNL     1      27.809  21.116  64.602  1.00  0.00     0.123 C 
BRANCH  20  21
HETATM   21  C5  UNL     1      28.911  20.203  65.158  1.00  0.00     0.039 C 
BRANCH  21  22
HETATM   22  C6  UNL     1      29.984  20.079  64.128  1.00  0.00     0.123 C 
BRANCH  22  23
HETATM   23  N2  UNL     1      30.186  18.749  63.628  1.00  0.00    -0.365 N 
HETATM   24  C7  UNL     1      30.553  18.423  62.301  1.00  0.00     0.183 C 
HETATM   25  N3  UNL     1      29.759  18.892  61.231  1.00  0.00    -0.064 NA
HETATM   26  N4  UNL     1      31.583  17.710  62.043  1.00  0.00    -0.365 N 
ATOM     27  H4  UNL     1      31.820  17.494  61.075  1.00  0.00     0.162 HD
ATOM     28  H2  UNL     1      30.055  17.977  64.281  1.00  0.00     0.162 HD
BRANCH  26  29
HETATM   29  C8  UNL     1      32.415  17.207  63.114  1.00  0.00     0.122 C 
BRANCH  29  30
HETATM   30  C9  UNL     1      33.845  17.072  62.623  1.00  0.00     0.015 C 
HETATM   31  C10 UNL     1      34.802  17.328  63.761  1.00  0.00     0.006 C 
ENDBRANCH  29  30
ENDBRANCH  26  29
ENDBRANCH  22  23
ENDBRANCH  21  22
ENDBRANCH  20  21
ENDBRANCH  18  20
ENDBRANCH   3  18
TORSDOF 7
ENDMDL
MODEL 2
REMARK VINA RESULT: -7.118576650      3.188      7.242
REMARK  7 active torsions:
REMARK  status: ('A' for Active; 'I' for Inactive)
REMARK    1  A    between atoms: C3_3  and  N1_4 
REMARK    2  A    between atoms: N1_4  and  C4_6 
REMARK    3  A    between atoms: C4_6  and  C5_7 
REMARK    4  A    between atoms: C5_7  and  C6_8 
REMARK    5  A    between atoms: C6_8  and  N2_9 
REMARK       I    between atoms: N2_9  and  C7_11 
REMARK    6  A    between atoms: N4_13  and  C8_15 
REMARK    7  A    between atoms: C8_15  and  C9_16 
ROOT
HETATM    1  C1  UNL     1      29.562  16.550  62.253  1.00  0.00     0.030 C 
HETATM    2  C2  UNL     1      28.851  17.585  61.865  1.00  0.00     0.030 A 
HETATM    3  C3  UNL     1      27.979  17.494  60.759  1.00  0.00     0.127 A 
HETATM    4  N5  UNL     1      27.438  18.762  60.700  1.00  0.00    -0.284 N 
ATOM      5  H5  UNL     1      26.752  19.069  60.010  1.00  0.00     0.188 HD
HETATM    6  N6  UNL     1      27.922  19.510  61.644  1.00  0.00    -0.296 N 
ATOM      7  H6  UNL     1      27.663  20.485  61.788  1.00  0.00     0.187 HD
HETATM    8  C11 UNL     1      28.821  18.835  62.419  1.00  0.00     0.093 A 
HETATM    9  C12 UNL     1      29.478  19.361  63.456  1.00  0.00     0.134 A 
HETATM   10  N7  UNL     1      30.427  18.828  64.340  1.00  0.00    -0.302 N 
ATOM     11  H7  UNL     1      30.772  17.870  64.287  1.00  0.00     0.171 HD
HETATM   12  C13 UNL     1      30.862  19.778  65.331  1.00  0.00     0.327 A 
HETATM   13  O1  UNL     1      31.710  19.534  66.237  1.00  0.00    -0.247 OA
HETATM   14  N8  UNL     1      30.164  20.951  65.064  1.00  0.00    -0.274 N 
ATOM     15  H8  UNL     1      30.251  21.819  65.594  1.00  0.00     0.173 HD
HETATM   16  C14 UNL     1      29.302  20.758  63.928  1.00  0.00     0.278 A 
HETATM   17  O2  UNL     1      28.565  21.636  63.467  1.00  0.00    -0.265 OA
ENDROOT
BRANCH   3  18
HETATM   18  N1  UNL     1      27.687  16.576  59.976  1.00  0.00    -0.374 N 
ATOM     19  H1  UNL     1      28.359  16.558  59.209  1.00  0.00     0.161 HD
BRANCH  18  20
HETATM   20  C4  UNL     1      26.759  15.571  59.795  1.00  0.00     0.123 C 
BRANCH  20  21
HETATM   21  C5  UNL     1      27.184  14.233  60.417  1.00  0.00     0.039 C 
BRANCH  21  22
HETATM   22  C6  UNL     1      26.020  13.667  61.161  1.00  0.00     0.123 C 
BRANCH  22  23
HETATM   23  N2  UNL     1      24.858  14.509  61.187  1.00  0.00    -0.365 N 
HETATM   24  C7  UNL     1      23.881  14.520  62.211  1.00  0.00     0.183 C 
HETATM   25  N3  UNL     1      23.231  13.315  62.556  1.00  0.00    -0.064 NA
HETATM   26  N4  UNL     1      23.567  15.594  62.830  1.00  0.00    -0.365 N 
ATOM     27  H4  UNL     1      22.859  15.567  63.564  1.00  0.00     0.162 HD
ATOM     28  H2  UNL     1      24.725  15.150  60.405  1.00  0.00     0.162 HD
BRANCH  26  29
HETATM   29  C8  UNL     1      24.207  16.848  62.497  1.00  0.00     0.122 C 
BRANCH  29  30
HETATM   30  C9  UNL     1      25.440  17.032  63.364  1.00  0.00     0.015 C 
HETATM   31  C10 UNL     1      25.390  18.378  64.044  1.00  0.00     0.006 C 
ENDBRANCH  29  30
ENDBRANCH  26  29
ENDBRANCH  22  23
ENDBRANCH  21  22
ENDBRANCH  20  21
ENDBRANCH  18  20
ENDBRANCH   3  18
TORSDOF 7
ENDMDL
MODEL 3
REMARK VINA RESULT: -7.009236891      2.806      3.909
REMARK  7 active torsions:
REMARK  status: ('A' for Active; 'I' for Inactive)
REMARK    1  A    between atoms: C3_3  and  N1_4 
REMARK    2  A    between atoms: N1_4  and  C4_6 
REMARK    3  A    between atoms: C4_6  and  C5_7 
REMARK    4  A    between atoms: C5_7  and  C6_8 
REMARK    5  A    between atoms: C6_8  and  N2_9 
REMARK       I    between atoms: N2_9  and  C7_11 
REMARK    6  A    between atoms: N4_13  and  C8_15 
REMARK    7  A    between atoms: C8_15  and  C9_16 
ROOT
HETATM    1  C1  UNL     1      26.476  17.870  63.789  1.00  0.00     0.030 C 
HETATM    2  C2  UNL     1      25.221  17.514  63.629  1.00  0.00     0.030 A 
HETATM    3  C3  UNL     1      24.190  18.134  64.367  1.00  0.00     0.127 A 
HETATM    4  N5  UNL     1      23.061  17.490  63.904  1.00  0.00    -0.284 N 
ATOM      5  H5  UNL     1      22.111  17.684  64.221  1.00  0.00     0.188 HD
HETATM    6  N6  UNL     1      23.376  16.604  63.009  1.00  0.00    -0.296 N 
ATOM      7  H6  UNL     1      22.699  16.010  62.532  1.00  0.00     0.187 HD
HETATM    8  C11 UNL     1      24.722  16.562  62.783  1.00  0.00     0.093 A 
HETATM    9  C12 UNL     1      25.325  15.739  61.921  1.00  0.00     0.134 A 
HETATM   10  N7  UNL     1      26.671  15.556  61.576  1.00  0.00    -0.302 N 
ATOM     11  H7  UNL     1      27.438  16.082  61.994  1.00  0.00     0.171 HD
HETATM   12  C13 UNL     1      26.856  14.545  60.568  1.00  0.00     0.327 A 
HETATM   13  O1  UNL     1      27.977  14.199  60.093  1.00  0.00    -0.247 OA
HETATM   14  N8  UNL     1      25.583  14.072  60.266  1.00  0.00    -0.274 N 
ATOM     15  H8  UNL     1      25.375  13.344  59.583  1.00  0.00     0.173 HD
HETATM   16  C14 UNL     1      24.604  14.765  61.062  1.00  0.00     0.278 A 
HETATM   17  O2  UNL     1      23.390  14.548  61.002  1.00  0.00    -0.265 OA
ENDROOT
BRANCH   3  18
HETATM   18  N1  UNL     1      24.176  19.031  65.226  1.00  0.00    -0.374 N 
ATOM     19  H1  UNL     1      23.622  19.817  64.887  1.00  0.00     0.161 HD
BRANCH  18  20
HETATM   20  C4  UNL     1      24.660  19.322  66.486  1.00  0.00     0.123 C 
BRANCH  20  21
HETATM   21  C5  UNL     1      25.363  20.685  66.566  1.00  0.00     0.039 C 
BRANCH  21  22
HETATM   22  C6  UNL     1      26.835  20.462  66.460  1.00  0.00     0.123 C 
BRANCH  22  23
HETATM   23  N2  UNL     1      27.443  21.017  65.284  1.00  0.00    -0.365 N 
HETATM   24  C7  UNL     1      28.654  21.750  65.260  1.00  0.00     0.183 C 
HETATM   25  N3  UNL     1      28.784  22.893  66.080  1.00  0.00    -0.064 NA
HETATM   26  N4  UNL     1      29.633  21.408  64.512  1.00  0.00    -0.365 N 
ATOM     27  H4  UNL     1      30.492  21.958  64.520  1.00  0.00     0.162 HD
ATOM     28  H2  UNL     1      26.965  20.873  64.395  1.00  0.00     0.162 HD
BRANCH  26  29
HETATM   29  C8  UNL     1      29.532  20.248  63.654  1.00  0.00     0.122 C 
BRANCH  29  30
HETATM   30  C9  UNL     1      29.583  20.687  62.202  1.00  0.00     0.015 C 
HETATM   31  C10 UNL     1      28.956  19.630  61.327  1.00  0.00     0.006 C 
ENDBRANCH  29  30
ENDBRANCH  26  29
ENDBRANCH  22  23
ENDBRANCH  21  22
ENDBRANCH  20  21
ENDBRANCH  18  20
ENDBRANCH   3  18
TORSDOF 7
ENDMDL
MODEL 4
REMARK VINA RESULT: -6.994349753      2.539      3.571
REMARK  7 active torsions:
REMARK  status: ('A' for Active; 'I' for Inactive)
REMARK    1  A    between atoms: C3_3  and  N1_4 
REMARK    2  A    between atoms: N1_4  and  C4_6 
REMARK    3  A    between atoms: C4_6  and  C5_7 
REMARK    4  A    between atoms: C5_7  and  C6_8 
REMARK    5  A    between atoms: C6_8  and  N2_9 
REMARK       I    between atoms: N2_9  and  C7_11 
REMARK    6  A    between atoms: N4_13  and  C8_15 
REMARK    7  A    between atoms: C8_15  and  C9_16 
ROOT
HETATM    1  C1  UNL     1      26.939  17.743  63.917  1.00  0.00     0.030 C 
HETATM    2  C2  UNL     1      25.649  17.544  63.766  1.00  0.00     0.030 A 
HETATM    3  C3  UNL     1      24.709  18.248  64.549  1.00  0.00     0.127 A 
HETATM    4  N5  UNL     1      23.505  17.762  64.080  1.00  0.00    -0.284 N 
ATOM      5  H5  UNL     1      22.589  18.052  64.423  1.00  0.00     0.188 HD
HETATM    6  N6  UNL     1      23.700  16.886  63.143  1.00  0.00    -0.296 N 
ATOM      7  H6  UNL     1      22.951  16.398  62.654  1.00  0.00     0.187 HD
HETATM    8  C11 UNL     1      25.029  16.696  62.890  1.00  0.00     0.093 A 
HETATM    9  C12 UNL     1      25.518  15.847  61.983  1.00  0.00     0.134 A 
HETATM   10  N7  UNL     1      26.827  15.522  61.604  1.00  0.00    -0.302 N 
ATOM     11  H7  UNL     1      27.657  15.935  62.030  1.00  0.00     0.171 HD
HETATM   12  C13 UNL     1      26.878  14.541  60.551  1.00  0.00     0.327 A 
HETATM   13  O1  UNL     1      27.943  14.088  60.041  1.00  0.00    -0.247 OA
HETATM   14  N8  UNL     1      25.554  14.236  60.254  1.00  0.00    -0.274 N 
ATOM     15  H8  UNL     1      25.251  13.568  59.544  1.00  0.00     0.173 HD
HETATM   16  C14 UNL     1      24.675  15.004  61.097  1.00  0.00     0.278 A 
HETATM   17  O2  UNL     1      23.442  14.934  61.051  1.00  0.00    -0.265 OA
ENDROOT
BRANCH   3  18
HETATM   18  N1  UNL     1      24.813  19.102  65.445  1.00  0.00    -0.374 N 
ATOM     19  H1  UNL     1      24.793  18.642  66.356  1.00  0.00     0.161 HD
BRANCH  18  20
HETATM   20  C4  UNL     1      24.948  20.464  65.622  1.00  0.00     0.123 C 
BRANCH  20  21
HETATM   21  C5  UNL     1      25.856  21.125  64.575  1.00  0.00     0.039 C 
BRANCH  21  22
HETATM   22  C6  UNL     1      27.174  21.417  65.212  1.00  0.00     0.123 C 
BRANCH  22  23
HETATM   23  N2  UNL     1      28.249  21.643  64.288  1.00  0.00    -0.365 N 
HETATM   24  C7  UNL     1      29.480  20.944  64.283  1.00  0.00     0.183 C 
HETATM   25  N3  UNL     1      30.263  20.917  65.458  1.00  0.00    -0.064 NA
HETATM   26  N4  UNL     1      29.906  20.339  63.239  1.00  0.00    -0.365 N 
ATOM     27  H4  UNL     1      30.797  19.844  63.269  1.00  0.00     0.162 HD
ATOM     28  H2  UNL     1      28.117  22.364  63.580  1.00  0.00     0.162 HD
BRANCH  26  29
HETATM   29  C8  UNL     1      29.134  20.353  62.016  1.00  0.00     0.122 C 
BRANCH  29  30
HETATM   30  C9  UNL     1      29.289  19.020  61.305  1.00  0.00     0.015 C 
HETATM   31  C10 UNL     1      28.096  18.774  60.415  1.00  0.00     0.006 C 
ENDBRANCH  29  30
ENDBRANCH  26  29
ENDBRANCH  22  23
ENDBRANCH  21  22
ENDBRANCH  20  21
ENDBRANCH  18  20
ENDBRANCH   3  18
TORSDOF 7
ENDMDL
MODEL 5
REMARK VINA RESULT: -6.967805698      3.617      6.295
REMARK  7 active torsions:
REMARK  status: ('A' for Active; 'I' for Inactive)
REMARK    1  A    between atoms: C3_3  and  N1_4 
REMARK    2  A    between atoms: N1_4  and  C4_6 
REMARK    3  A    between atoms: C4_6  and  C5_7 
REMARK    4  A    between atoms: C5_7  and  C6_8 
REMARK    5  A    between atoms: C6_8  and  N2_9 
REMARK       I    between atoms: N2_9  and  C7_11 
REMARK    6  A    between atoms: N4_13  and  C8_15 
REMARK    7  A    between atoms: C8_15  and  C9_16 
ROOT
HETATM    1  C1  UNL     1      28.160  17.927  64.907  1.00  0.00     0.030 C 
HETATM    2  C2  UNL     1      27.015  18.388  64.455  1.00  0.00     0.030 A 
HETATM    3  C3  UNL     1      26.040  17.517  63.923  1.00  0.00     0.127 A 
HETATM    4  N5  UNL     1      25.020  18.381  63.582  1.00  0.00    -0.284 N 
ATOM      5  H5  UNL     1      24.135  18.098  63.161  1.00  0.00     0.188 HD
HETATM    6  N6  UNL     1      25.343  19.605  63.872  1.00  0.00    -0.296 N 
ATOM      7  H6  UNL     1      24.738  20.409  63.705  1.00  0.00     0.187 HD
HETATM    8  C11 UNL     1      26.588  19.687  64.426  1.00  0.00     0.093 A 
HETATM    9  C12 UNL     1      27.177  20.822  64.813  1.00  0.00     0.134 A 
HETATM   10  N7  UNL     1      28.430  21.089  65.380  1.00  0.00    -0.302 N 
ATOM     11  H7  UNL     1      29.123  20.369  65.581  1.00  0.00     0.171 HD
HETATM   12  C13 UNL     1      28.635  22.489  65.648  1.00  0.00     0.327 A 
HETATM   13  O1  UNL     1      29.685  22.977  66.158  1.00  0.00    -0.247 OA
HETATM   14  N8  UNL     1      27.471  23.129  65.236  1.00  0.00    -0.274 N 
ATOM     15  H8  UNL     1      27.302  24.133  65.293  1.00  0.00     0.173 HD
HETATM   16  C14 UNL     1      26.541  22.161  64.715  1.00  0.00     0.278 A 
HETATM   17  O2  UNL     1      25.423  22.449  64.276  1.00  0.00    -0.265 OA
ENDROOT
BRANCH   3  18
HETATM   18  N1  UNL     1      25.995  16.287  63.758  1.00  0.00    -0.374 N 
ATOM     19  H1  UNL     1      25.591  15.848  64.585  1.00  0.00     0.161 HD
BRANCH  18  20
HETATM   20  C4  UNL     1      26.307  15.314  62.830  1.00  0.00     0.123 C 
BRANCH  20  21
HETATM   21  C5  UNL     1      25.481  15.419  61.540  1.00  0.00     0.039 C 
BRANCH  21  22
HETATM   22  C6  UNL     1      26.331  14.969  60.398  1.00  0.00     0.123 C 
BRANCH  22  23
HETATM   23  N2  UNL     1      27.358  15.895  60.013  1.00  0.00    -0.365 N 
HETATM   24  C7  UNL     1      27.146  17.098  59.299  1.00  0.00     0.183 C 
HETATM   25  N3  UNL     1      26.477  17.053  58.055  1.00  0.00    -0.064 NA
HETATM   26  N4  UNL     1      27.547  18.227  59.747  1.00  0.00    -0.365 N 
ATOM     27  H4  UNL     1      27.377  19.075  59.207  1.00  0.00     0.162 HD
ATOM     28  H2  UNL     1      28.317  15.668  60.275  1.00  0.00     0.162 HD
BRANCH  26  29
HETATM   29  C8  UNL     1      28.242  18.310  61.013  1.00  0.00     0.122 C 
BRANCH  29  30
HETATM   30  C9  UNL     1      28.665  19.746  61.264  1.00  0.00     0.015 C 
HETATM   31  C10 UNL     1      29.827  19.775  62.226  1.00  0.00     0.006 C 
ENDBRANCH  29  30
ENDBRANCH  26  29
ENDBRANCH  22  23
ENDBRANCH  21  22
ENDBRANCH  20  21
ENDBRANCH  18  20
ENDBRANCH   3  18
TORSDOF 7
ENDMDL
