MODEL 1
REMARK VINA RESULT: -7.940080599      0.000      0.000
REMARK  4 active torsions:
REMARK  status: ('A' for Active; 'I' for Inactive)
REMARK       I    between atoms: N1_2  and  C2_4 
REMARK       I    between atoms: C2_4  and  N2_6 
REMARK    1  A    between atoms: C7_16  and  S2_17 
REMARK    2  A    between atoms: S2_17  and  C8_18 
REMARK    3  A    between atoms: C8_18  and  C9_19 
REMARK    4  A    between atoms: C9_19  and  C10_20 
ROOT
HETATM    1  C1  UNL     1      91.084  67.206  17.849  1.00  0.00     0.151 C 
HETATM    2  N1  UNL     1      92.111  66.936  16.870  1.00  0.00    -0.347 N 
ATOM      3  H1  UNL     1      92.631  67.724  16.483  1.00  0.00     0.163 HD
HETATM    4  C2  UNL     1      92.438  65.603  16.412  1.00  0.00     0.323 C 
HETATM    5  O1  UNL     1      91.737  64.707  16.952  1.00  0.00    -0.247 OA
HETATM    6  N2  UNL     1      93.403  65.264  15.467  1.00  0.00    -0.294 N 
HETATM    7  C3  UNL     1      94.449  66.199  15.059  1.00  0.00     0.068 A 
HETATM    8  C4  UNL     1      94.399  66.481  13.683  1.00  0.00     0.013 A 
HETATM    9  S1  UNL     1      95.507  67.723  13.493  1.00  0.00    -0.074 SA
HETATM   10  C5  UNL     1      96.036  67.884  15.113  1.00  0.00     0.090 A 
HETATM   11  N3  UNL     1      96.954  68.706  15.702  1.00  0.00    -0.346 N 
ATOM     12  H3  UNL     1      97.453  69.396  15.141  1.00  0.00     0.167 HD
HETATM   13  C6  UNL     1      97.200  68.608  17.017  1.00  0.00     0.182 A 
HETATM   14  N4  UNL     1      96.528  67.696  17.679  1.00  0.00    -0.346 N 
ATOM     15  H4  UNL     1      96.720  67.622  18.678  1.00  0.00     0.167 HD
HETATM   16  C7  UNL     1      95.610  66.849  17.174  1.00  0.00     0.086 A 
HETATM   17  C13 UNL     1      95.307  66.921  15.800  1.00  0.00     0.059 A 
HETATM   18  C14 UNL     1      93.473  65.608  12.845  1.00  0.00     0.050 C 
HETATM   19  C15 UNL     1      93.693  64.170  13.295  1.00  0.00     0.030 C 
HETATM   20  C16 UNL     1      93.336  64.018  14.771  1.00  0.00     0.091 C 
HETATM   21  C17 UNL     1      91.919  63.477  14.768  1.00  0.00     0.033 C 
ENDROOT
BRANCH  16  22
HETATM   22  S2  UNL     1      95.000  65.538  18.215  1.00  0.00    -0.111 SA
BRANCH  22  23
HETATM   23  C8  UNL     1      95.912  65.506  19.764  1.00  0.00     0.081 C 
BRANCH  23  24
HETATM   24  C9  UNL     1      96.549  64.159  20.032  1.00  0.00     0.014 C 
BRANCH  24  25
HETATM   25  C10 UNL     1      96.378  63.803  21.515  1.00  0.00    -0.022 C 
HETATM   26  C11 UNL     1      97.341  64.689  22.284  1.00  0.00     0.009 C 
HETATM   27  C12 UNL     1      96.786  62.360  21.764  1.00  0.00     0.009 C 
ENDBRANCH  24  25
ENDBRANCH  23  24
ENDBRANCH  22  23
ENDBRANCH  16  22
TORSDOF 4
ENDMDL
MODEL 2
REMARK VINA RESULT: -7.854730215      2.473      6.165
REMARK  4 active torsions:
REMARK  status: ('A' for Active; 'I' for Inactive)
REMARK       I    between atoms: N1_2  and  C2_4 
REMARK       I    between atoms: C2_4  and  N2_6 
REMARK    1  A    between atoms: C7_16  and  S2_17 
REMARK    2  A    between atoms: S2_17  and  C8_18 
REMARK    3  A    between atoms: C8_18  and  C9_19 
REMARK    4  A    between atoms: C9_19  and  C10_20 
ROOT
HETATM    1  C1  UNL     1      97.203  62.571  17.439  1.00  0.00     0.151 C 
HETATM    2  N1  UNL     1      97.313  63.909  17.971  1.00  0.00    -0.347 N 
ATOM      3  H1  UNL     1      97.761  64.624  17.397  1.00  0.00     0.163 HD
HETATM    4  C2  UNL     1      96.817  64.285  19.277  1.00  0.00     0.323 C 
HETATM    5  O1  UNL     1      96.284  63.329  19.900  1.00  0.00    -0.247 OA
HETATM    6  N2  UNL     1      96.893  65.547  19.862  1.00  0.00    -0.294 N 
HETATM    7  C3  UNL     1      97.192  66.745  19.082  1.00  0.00     0.068 A 
HETATM    8  C4  UNL     1      98.363  67.385  19.524  1.00  0.00     0.013 A 
HETATM    9  S1  UNL     1      98.632  68.564  18.363  1.00  0.00    -0.074 SA
HETATM   10  C5  UNL     1      97.293  68.268  17.341  1.00  0.00     0.090 A 
HETATM   11  N3  UNL     1      96.865  68.867  16.190  1.00  0.00    -0.346 N 
ATOM     12  H3  UNL     1      97.400  69.638  15.789  1.00  0.00     0.167 HD
HETATM   13  C6  UNL     1      95.744  68.445  15.587  1.00  0.00     0.182 A 
HETATM   14  N4  UNL     1      95.101  67.454  16.158  1.00  0.00    -0.346 N 
ATOM     15  H4  UNL     1      94.247  67.137  15.698  1.00  0.00     0.167 HD
HETATM   16  C7  UNL     1      95.454  66.812  17.288  1.00  0.00     0.086 A 
HETATM   17  C13 UNL     1      96.631  67.210  17.953  1.00  0.00     0.059 A 
HETATM   18  C14 UNL     1      98.950  66.893  20.841  1.00  0.00     0.050 C 
HETATM   19  C15 UNL     1      97.786  66.732  21.811  1.00  0.00     0.030 C 
HETATM   20  C16 UNL     1      96.795  65.700  21.279  1.00  0.00     0.091 C 
HETATM   21  C17 UNL     1      97.165  64.412  21.989  1.00  0.00     0.033 C 
ENDROOT
BRANCH  16  22
HETATM   22  S2  UNL     1      94.303  65.656  18.004  1.00  0.00    -0.111 SA
BRANCH  22  23
HETATM   23  C8  UNL     1      93.375  64.826  16.706  1.00  0.00     0.081 C 
BRANCH  23  24
HETATM   24  C9  UNL     1      91.883  65.050  16.830  1.00  0.00     0.014 C 
BRANCH  24  25
HETATM   25  C10 UNL     1      91.610  66.546  17.034  1.00  0.00    -0.022 C 
HETATM   26  C11 UNL     1      90.256  66.648  17.713  1.00  0.00     0.009 C 
HETATM   27  C12 UNL     1      91.503  67.254  15.693  1.00  0.00     0.009 C 
ENDBRANCH  24  25
ENDBRANCH  23  24
ENDBRANCH  22  23
ENDBRANCH  16  22
TORSDOF 4
ENDMDL
MODEL 3
REMARK VINA RESULT: -7.677633602      3.299      6.954
REMARK  4 active torsions:
REMARK  status: ('A' for Active; 'I' for Inactive)
REMARK       I    between atoms: N1_2  and  C2_4 
REMARK       I    between atoms: C2_4  and  N2_6 
REMARK    1  A    between atoms: C7_16  and  S2_17 
REMARK    2  A    between atoms: S2_17  and  C8_18 
REMARK    3  A    between atoms: C8_18  and  C9_19 
REMARK    4  A    between atoms: C9_19  and  C10_20 
ROOT
HETATM    1  C1  UNL     1      93.715  66.337  18.245  1.00  0.00     0.151 C 
HETATM    2  N1  UNL     1      94.813  65.982  19.113  1.00  0.00    -0.347 N 
ATOM      3  H1  UNL     1      94.611  65.442  19.955  1.00  0.00     0.163 HD
HETATM    4  C2  UNL     1      96.186  66.353  18.846  1.00  0.00     0.323 C 
HETATM    5  O1  UNL     1      96.324  67.016  17.785  1.00  0.00    -0.247 OA
HETATM    6  N2  UNL     1      97.294  66.058  19.637  1.00  0.00    -0.294 N 
HETATM    7  C3  UNL     1      97.251  65.036  20.680  1.00  0.00     0.068 A 
HETATM    8  C4  UNL     1      97.527  65.566  21.952  1.00  0.00     0.013 A 
HETATM    9  S1  UNL     1      97.195  64.295  22.991  1.00  0.00    -0.074 SA
HETATM   10  C5  UNL     1      96.724  63.109  21.851  1.00  0.00     0.090 A 
HETATM   11  N3  UNL     1      96.325  61.810  21.987  1.00  0.00    -0.346 N 
ATOM     12  H3  UNL     1      96.254  61.394  22.916  1.00  0.00     0.167 HD
HETATM   13  C6  UNL     1      96.028  61.079  20.903  1.00  0.00     0.182 A 
HETATM   14  N4  UNL     1      96.145  61.672  19.738  1.00  0.00    -0.346 N 
ATOM     15  H4  UNL     1      95.922  61.112  18.915  1.00  0.00     0.167 HD
HETATM   16  C7  UNL     1      96.531  62.943  19.519  1.00  0.00     0.086 A 
HETATM   17  C13 UNL     1      96.842  63.757  20.627  1.00  0.00     0.059 A 
HETATM   18  C14 UNL     1      98.055  66.995  21.992  1.00  0.00     0.050 C 
HETATM   19  C15 UNL     1      99.112  67.107  20.900  1.00  0.00     0.030 C 
HETATM   20  C16 UNL     1      98.490  66.833  19.534  1.00  0.00     0.091 C 
HETATM   21  C17 UNL     1      98.197  68.207  18.964  1.00  0.00     0.033 C 
ENDROOT
BRANCH  16  22
HETATM   22  S2  UNL     1      96.847  63.459  17.843  1.00  0.00    -0.111 SA
BRANCH  22  23
HETATM   23  C8  UNL     1      95.845  62.495  16.703  1.00  0.00     0.081 C 
BRANCH  23  24
HETATM   24  C9  UNL     1      94.534  63.176  16.369  1.00  0.00     0.014 C 
BRANCH  24  25
HETATM   25  C10 UNL     1      93.470  62.756  17.392  1.00  0.00    -0.022 C 
HETATM   26  C11 UNL     1      93.473  61.238  17.418  1.00  0.00     0.009 C 
HETATM   27  C12 UNL     1      92.091  63.203  16.936  1.00  0.00     0.009 C 
ENDBRANCH  24  25
ENDBRANCH  23  24
ENDBRANCH  22  23
ENDBRANCH  16  22
TORSDOF 4
ENDMDL
MODEL 4
REMARK VINA RESULT: -7.595309829      3.891      7.099
REMARK  4 active torsions:
REMARK  status: ('A' for Active; 'I' for Inactive)
REMARK       I    between atoms: N1_2  and  C2_4 
REMARK       I    between atoms: C2_4  and  N2_6 
REMARK    1  A    between atoms: C7_16  and  S2_17 
REMARK    2  A    between atoms: S2_17  and  C8_18 
REMARK    3  A    between atoms: C8_18  and  C9_19 
REMARK    4  A    between atoms: C9_19  and  C10_20 
ROOT
HETATM    1  C1  UNL     1      93.812  66.256  18.316  1.00  0.00     0.151 C 
HETATM    2  N1  UNL     1      94.904  65.931  19.203  1.00  0.00    -0.347 N 
ATOM      3  H1  UNL     1      94.692  65.447  20.076  1.00  0.00     0.163 HD
HETATM    4  C2  UNL     1      96.283  66.257  18.913  1.00  0.00     0.323 C 
HETATM    5  O1  UNL     1      96.432  66.853  17.814  1.00  0.00    -0.247 OA
HETATM    6  N2  UNL     1      97.387  65.988  19.720  1.00  0.00    -0.294 N 
HETATM    7  C3  UNL     1      97.325  65.031  20.822  1.00  0.00     0.068 A 
HETATM    8  C4  UNL     1      97.615  65.631  22.059  1.00  0.00     0.013 A 
HETATM    9  S1  UNL     1      97.259  64.431  23.173  1.00  0.00    -0.074 SA
HETATM   10  C5  UNL     1      96.761  63.189  22.106  1.00  0.00     0.090 A 
HETATM   11  N3  UNL     1      96.337  61.908  22.321  1.00  0.00    -0.346 N 
ATOM     12  H3  UNL     1      96.260  61.551  23.273  1.00  0.00     0.167 HD
HETATM   13  C6  UNL     1      96.023  61.120  21.282  1.00  0.00     0.182 A 
HETATM   14  N4  UNL     1      96.150  61.640  20.084  1.00  0.00    -0.346 N 
ATOM     15  H4  UNL     1      95.913  61.036  19.296  1.00  0.00     0.167 HD
HETATM   16  C7  UNL     1      96.560  62.888  19.789  1.00  0.00     0.086 A 
HETATM   17  C13 UNL     1      96.891  63.760  20.846  1.00  0.00     0.059 A 
HETATM   18  C14 UNL     1      98.172  67.048  22.013  1.00  0.00     0.050 C 
HETATM   19  C15 UNL     1      99.228  67.073  20.916  1.00  0.00     0.030 C 
HETATM   20  C16 UNL     1      98.598  66.730  19.569  1.00  0.00     0.091 C 
HETATM   21  C17 UNL     1      98.332  68.074  18.918  1.00  0.00     0.033 C 
ENDROOT
BRANCH  16  22
HETATM   22  S2  UNL     1      96.883  63.296  18.085  1.00  0.00    -0.111 SA
BRANCH  22  23
HETATM   23  C8  UNL     1      96.584  61.862  17.041  1.00  0.00     0.081 C 
BRANCH  23  24
HETATM   24  C9  UNL     1      97.657  60.805  17.190  1.00  0.00     0.014 C 
BRANCH  24  25
HETATM   25  C10 UNL     1      97.004  59.416  17.184  1.00  0.00    -0.022 C 
HETATM   26  C11 UNL     1      97.492  58.706  18.434  1.00  0.00     0.009 C 
HETATM   27  C12 UNL     1      97.481  58.611  15.986  1.00  0.00     0.009 C 
ENDBRANCH  24  25
ENDBRANCH  23  24
ENDBRANCH  22  23
ENDBRANCH  16  22
TORSDOF 4
ENDMDL
MODEL 5
REMARK VINA RESULT: -7.574454179      1.414      2.059
REMARK  4 active torsions:
REMARK  status: ('A' for Active; 'I' for Inactive)
REMARK       I    between atoms: N1_2  and  C2_4 
REMARK       I    between atoms: C2_4  and  N2_6 
REMARK    1  A    between atoms: C7_16  and  S2_17 
REMARK    2  A    between atoms: S2_17  and  C8_18 
REMARK    3  A    between atoms: C8_18  and  C9_19 
REMARK    4  A    between atoms: C9_19  and  C10_20 
ROOT
HETATM    1  C1  UNL     1      90.666  67.287  17.138  1.00  0.00     0.151 C 
HETATM    2  N1  UNL     1      91.478  66.578  16.176  1.00  0.00    -0.347 N 
ATOM      3  H1  UNL     1      91.850  67.096  15.380  1.00  0.00     0.163 HD
HETATM    4  C2  UNL     1      91.790  65.170  16.289  1.00  0.00     0.323 C 
HETATM    5  O1  UNL     1      91.282  64.628  17.306  1.00  0.00    -0.247 OA
HETATM    6  N2  UNL     1      92.554  64.416  15.401  1.00  0.00    -0.294 N 
HETATM    7  C3  UNL     1      93.425  65.039  14.407  1.00  0.00     0.068 A 
HETATM    8  C4  UNL     1      93.065  64.686  13.094  1.00  0.00     0.013 A 
HETATM    9  S1  UNL     1      94.022  65.678  12.142  1.00  0.00    -0.074 SA
HETATM   10  C5  UNL     1      94.869  66.520  13.367  1.00  0.00     0.090 A 
HETATM   11  N3  UNL     1      95.834  67.486  13.320  1.00  0.00    -0.346 N 
ATOM     12  H3  UNL     1      96.155  67.840  12.419  1.00  0.00     0.167 HD
HETATM   13  C6  UNL     1      96.359  67.970  14.455  1.00  0.00     0.182 A 
HETATM   14  N4  UNL     1      95.905  67.468  15.579  1.00  0.00    -0.346 N 
ATOM     15  H4  UNL     1      96.308  67.836  16.441  1.00  0.00     0.167 HD
HETATM   16  C7  UNL     1      94.961  66.517  15.711  1.00  0.00     0.086 A 
HETATM   17  C13 UNL     1      94.368  65.984  14.548  1.00  0.00     0.059 A 
HETATM   18  C14 UNL     1      92.044  63.564  12.949  1.00  0.00     0.050 C 
HETATM   19  C15 UNL     1      92.451  62.466  13.923  1.00  0.00     0.030 C 
HETATM   20  C16 UNL     1      92.425  62.994  15.354  1.00  0.00     0.091 C 
HETATM   21  C17 UNL     1      91.080  62.555  15.900  1.00  0.00     0.033 C 
ENDROOT
BRANCH  16  22
HETATM   22  S2  UNL     1      94.675  65.821  17.326  1.00  0.00    -0.111 SA
BRANCH  22  23
HETATM   23  C8  UNL     1      96.145  66.004  18.345  1.00  0.00     0.081 C 
BRANCH  23  24
HETATM   24  C9  UNL     1      95.930  65.518  19.763  1.00  0.00     0.014 C 
BRANCH  24  25
HETATM   25  C10 UNL     1      97.278  65.474  20.494  1.00  0.00    -0.022 C 
HETATM   26  C11 UNL     1      97.107  64.512  21.656  1.00  0.00     0.009 C 
HETATM   27  C12 UNL     1      97.610  66.838  21.075  1.00  0.00     0.009 C 
ENDBRANCH  24  25
ENDBRANCH  23  24
ENDBRANCH  22  23
ENDBRANCH  16  22
TORSDOF 4
ENDMDL
