MODEL 1
REMARK VINA RESULT: -7.043406225      0.000      0.000
REMARK  5 active torsions:
REMARK  status: ('A' for Active; 'I' for Inactive)
REMARK    1  A    between atoms: C3_3  and  N1_4 
REMARK    2  A    between atoms: N1_4  and  C4_6 
REMARK    3  A    between atoms: C4_6  and  C5_7 
REMARK    4  A    between atoms: C4_6  and  C10_17 
REMARK    5  A    between atoms: C6_10  and  C7_11 
ROOT
HETATM    1  C1  UNL     1      16.641  -7.602  20.725  1.00  0.00     0.018 C 
HETATM    2  C2  UNL     1      16.312  -6.441  20.773  1.00  0.00    -0.073 C 
HETATM    3  C3  UNL     1      15.891  -5.018  20.849  1.00  0.00     0.148 C 
ENDROOT
BRANCH   3   4
HETATM    4  N1  UNL     1      14.856  -4.934  21.793  1.00  0.00    -0.381 N 
ATOM      5  H1  UNL     1      14.101  -5.619  21.782  1.00  0.00     0.160 HD
BRANCH   4   6
HETATM    6  C4  UNL     1      14.856  -3.906  22.756  1.00  0.00     0.143 C 
BRANCH   6   7
HETATM    7  C5  UNL     1      13.795  -2.871  22.611  1.00  0.00     0.092 A 
HETATM    8  N2  UNL     1      12.640  -2.839  23.256  1.00  0.00    -0.340 N 
HETATM    9  C6  UNL     1      11.801  -1.878  23.034  1.00  0.00     0.091 A 
ATOM     10  H2  UNL     1      12.410  -3.571  23.928  1.00  0.00     0.167 HD
HETATM   11  N3  UNL     1      12.154  -0.941  22.141  1.00  0.00    -0.314 N 
HETATM   12  S1  UNL     1      13.675  -1.471  21.649  1.00  0.00     0.003 SA
ATOM     13  H3  UNL     1      11.634  -0.118  21.838  1.00  0.00     0.175 HD
BRANCH   9  14
HETATM   14  C7  UNL     1      10.464  -1.795  23.749  1.00  0.00     0.046 C 
HETATM   15  C8  UNL     1       9.704  -0.593  23.314  1.00  0.00     0.017 C 
HETATM   16  C9  UNL     1       9.689  -3.057  23.395  1.00  0.00     0.017 C 
ENDBRANCH   9  14
ENDBRANCH   6   7
BRANCH   6  17
HETATM   17  C10 UNL     1      14.895  -4.376  24.189  1.00  0.00     0.006 C 
HETATM   18  C11 UNL     1      16.162  -3.835  24.817  1.00  0.00     0.012 C 
HETATM   19  C12 UNL     1      14.887  -5.860  24.328  1.00  0.00     0.012 C 
ENDBRANCH   6  17
ENDBRANCH   4   6
ENDBRANCH   3   4
TORSDOF 5
ENDMDL
MODEL 2
REMARK VINA RESULT: -7.039143231      2.067      5.360
REMARK  5 active torsions:
REMARK  status: ('A' for Active; 'I' for Inactive)
REMARK    1  A    between atoms: C3_3  and  N1_4 
REMARK    2  A    between atoms: N1_4  and  C4_6 
REMARK    3  A    between atoms: C4_6  and  C5_7 
REMARK    4  A    between atoms: C4_6  and  C10_17 
REMARK    5  A    between atoms: C6_10  and  C7_11 
ROOT
HETATM    1  C1  UNL     1      10.822  -4.416  19.724  1.00  0.00     0.018 C 
HETATM    2  C2  UNL     1      10.476  -3.272  19.895  1.00  0.00    -0.073 C 
HETATM    3  C3  UNL     1      10.067  -1.862  20.123  1.00  0.00     0.148 C 
ENDROOT
BRANCH   3   4
HETATM    4  N1  UNL     1      10.858  -1.356  21.166  1.00  0.00    -0.381 N 
ATOM      5  H1  UNL     1      11.154  -0.380  21.152  1.00  0.00     0.160 HD
BRANCH   4   6
HETATM    6  C4  UNL     1      11.246  -2.191  22.232  1.00  0.00     0.143 C 
BRANCH   6   7
HETATM    7  C5  UNL     1      12.699  -2.204  22.560  1.00  0.00     0.092 A 
HETATM    8  N2  UNL     1      13.295  -2.990  23.442  1.00  0.00    -0.340 N 
HETATM    9  C6  UNL     1      14.572  -2.898  23.632  1.00  0.00     0.091 A 
ATOM     10  H2  UNL     1      12.748  -3.669  23.972  1.00  0.00     0.167 HD
HETATM   11  N3  UNL     1      15.242  -1.990  22.907  1.00  0.00    -0.314 N 
HETATM   12  S1  UNL     1      14.019  -1.298  21.980  1.00  0.00     0.003 SA
ATOM     13  H3  UNL     1      16.239  -1.773  22.915  1.00  0.00     0.175 HD
BRANCH   9  14
HETATM   14  C7  UNL     1      15.303  -3.777  24.631  1.00  0.00     0.046 C 
HETATM   15  C8  UNL     1      15.098  -5.217  24.318  1.00  0.00     0.017 C 
HETATM   16  C9  UNL     1      16.782  -3.430  24.535  1.00  0.00     0.017 C 
ENDBRANCH   9  14
ENDBRANCH   6   7
BRANCH   6  17
HETATM   17  C10 UNL     1      10.455  -2.009  23.503  1.00  0.00     0.006 C 
HETATM   18  C11 UNL     1       9.506  -3.182  23.628  1.00  0.00     0.012 C 
HETATM   19  C12 UNL     1       9.663  -0.746  23.535  1.00  0.00     0.012 C 
ENDBRANCH   6  17
ENDBRANCH   4   6
ENDBRANCH   3   4
TORSDOF 5
ENDMDL
MODEL 3
REMARK VINA RESULT: -6.980774664      2.752      5.393
REMARK  5 active torsions:
REMARK  status: ('A' for Active; 'I' for Inactive)
REMARK    1  A    between atoms: C3_3  and  N1_4 
REMARK    2  A    between atoms: N1_4  and  C4_6 
REMARK    3  A    between atoms: C4_6  and  C5_7 
REMARK    4  A    between atoms: C4_6  and  C10_17 
REMARK    5  A    between atoms: C6_10  and  C7_11 
ROOT
HETATM    1  C1  UNL     1      10.124  -8.159  23.770  1.00  0.00     0.018 C 
HETATM    2  C2  UNL     1       9.968  -6.978  23.573  1.00  0.00    -0.073 C 
HETATM    3  C3  UNL     1       9.785  -5.527  23.309  1.00  0.00     0.148 C 
ENDROOT
BRANCH   3   4
HETATM    4  N1  UNL     1      10.336  -5.255  22.047  1.00  0.00    -0.381 N 
ATOM      5  H1  UNL     1      10.411  -6.000  21.354  1.00  0.00     0.160 HD
BRANCH   4   6
HETATM    6  C4  UNL     1      10.786  -3.958  21.734  1.00  0.00     0.143 C 
BRANCH   6   7
HETATM    7  C5  UNL     1      12.017  -3.503  22.439  1.00  0.00     0.092 A 
HETATM    8  N2  UNL     1      13.042  -4.262  22.791  1.00  0.00    -0.340 N 
HETATM    9  C6  UNL     1      14.055  -3.737  23.403  1.00  0.00     0.091 A 
ATOM     10  H2  UNL     1      13.034  -5.260  22.580  1.00  0.00     0.167 HD
HETATM   11  N3  UNL     1      14.013  -2.420  23.655  1.00  0.00    -0.314 N 
HETATM   12  S1  UNL     1      12.523  -1.979  23.006  1.00  0.00     0.003 SA
ATOM     13  H3  UNL     1      14.707  -1.835  24.120  1.00  0.00     0.175 HD
BRANCH   9  14
HETATM   14  C7  UNL     1      15.256  -4.564  23.827  1.00  0.00     0.046 C 
HETATM   15  C8  UNL     1      16.058  -3.847  24.854  1.00  0.00     0.017 C 
HETATM   16  C9  UNL     1      14.720  -5.868  24.404  1.00  0.00     0.017 C 
ENDBRANCH   9  14
ENDBRANCH   6   7
BRANCH   6  17
HETATM   17  C10 UNL     1      10.926  -3.671  20.260  1.00  0.00     0.006 C 
HETATM   18  C11 UNL     1      10.180  -2.387  19.968  1.00  0.00     0.012 C 
HETATM   19  C12 UNL     1      10.380  -4.751  19.390  1.00  0.00     0.012 C 
ENDBRANCH   6  17
ENDBRANCH   4   6
ENDBRANCH   3   4
TORSDOF 5
ENDMDL
MODEL 4
REMARK VINA RESULT: -6.935672190      3.726      6.708
REMARK  5 active torsions:
REMARK  status: ('A' for Active; 'I' for Inactive)
REMARK    1  A    between atoms: C3_3  and  N1_4 
REMARK    2  A    between atoms: N1_4  and  C4_6 
REMARK    3  A    between atoms: C4_6  and  C5_7 
REMARK    4  A    between atoms: C4_6  and  C10_17 
REMARK    5  A    between atoms: C6_10  and  C7_11 
ROOT
HETATM    1  C1  UNL     1      14.610  -5.883  24.551  1.00  0.00     0.018 C 
HETATM    2  C2  UNL     1      15.347  -4.951  24.339  1.00  0.00    -0.073 C 
HETATM    3  C3  UNL     1      16.247  -3.803  24.055  1.00  0.00     0.148 C 
ENDROOT
BRANCH   3   4
HETATM    4  N1  UNL     1      16.115  -3.489  22.693  1.00  0.00    -0.381 N 
ATOM      5  H1  UNL     1      15.415  -2.810  22.394  1.00  0.00     0.160 HD
BRANCH   4   6
HETATM    6  C4  UNL     1      16.944  -4.109  21.738  1.00  0.00     0.143 C 
BRANCH   6   7
HETATM    7  C5  UNL     1      16.494  -5.439  21.243  1.00  0.00     0.092 A 
HETATM    8  N2  UNL     1      17.233  -6.533  21.158  1.00  0.00    -0.340 N 
HETATM    9  C6  UNL     1      16.714  -7.630  20.705  1.00  0.00     0.091 A 
ATOM     10  H2  UNL     1      18.210  -6.513  21.450  1.00  0.00     0.167 HD
HETATM   11  N3  UNL     1      15.425  -7.600  20.337  1.00  0.00    -0.314 N 
HETATM   12  S1  UNL     1      15.000  -6.002  20.650  1.00  0.00     0.003 SA
ATOM     13  H3  UNL     1      14.849  -8.354  19.962  1.00  0.00     0.175 HD
BRANCH   9  14
HETATM   14  C7  UNL     1      17.519  -8.912  20.590  1.00  0.00     0.046 C 
HETATM   15  C8  UNL     1      16.892  -9.845  19.616  1.00  0.00     0.017 C 
HETATM   16  C9  UNL     1      18.913  -8.525  20.115  1.00  0.00     0.017 C 
ENDBRANCH   9  14
ENDBRANCH   6   7
BRANCH   6  17
HETATM   17  C10 UNL     1      17.316  -3.242  20.561  1.00  0.00     0.006 C 
HETATM   18  C11 UNL     1      18.470  -2.359  20.986  1.00  0.00     0.012 C 
HETATM   19  C12 UNL     1      16.200  -2.378  20.083  1.00  0.00     0.012 C 
ENDBRANCH   6  17
ENDBRANCH   4   6
ENDBRANCH   3   4
TORSDOF 5
ENDMDL
MODEL 5
REMARK VINA RESULT: -6.933807283      2.529      3.648
REMARK  5 active torsions:
REMARK  status: ('A' for Active; 'I' for Inactive)
REMARK    1  A    between atoms: C3_3  and  N1_4 
REMARK    2  A    between atoms: N1_4  and  C4_6 
REMARK    3  A    between atoms: C4_6  and  C5_7 
REMARK    4  A    between atoms: C4_6  and  C10_17 
REMARK    5  A    between atoms: C6_10  and  C7_11 
ROOT
HETATM    1  C1  UNL     1      16.567  -7.670  20.757  1.00  0.00     0.018 C 
HETATM    2  C2  UNL     1      15.767  -6.810  20.483  1.00  0.00    -0.073 C 
HETATM    3  C3  UNL     1      14.772  -5.751  20.167  1.00  0.00     0.148 C 
ENDROOT
BRANCH   3   4
HETATM    4  N1  UNL     1      13.985  -5.556  21.314  1.00  0.00    -0.381 N 
ATOM      5  H1  UNL     1      13.065  -5.991  21.378  1.00  0.00     0.160 HD
BRANCH   4   6
HETATM    6  C4  UNL     1      14.462  -4.762  22.375  1.00  0.00     0.143 C 
BRANCH   6   7
HETATM    7  C5  UNL     1      14.362  -3.288  22.186  1.00  0.00     0.092 A 
HETATM    8  N2  UNL     1      15.263  -2.511  21.607  1.00  0.00    -0.340 N 
HETATM    9  C6  UNL     1      15.051  -1.237  21.509  1.00  0.00     0.091 A 
ATOM     10  H2  UNL     1      16.124  -2.915  21.237  1.00  0.00     0.167 HD
HETATM   11  N3  UNL     1      13.903  -0.759  22.010  1.00  0.00    -0.314 N 
HETATM   12  S1  UNL     1      13.166  -2.151  22.607  1.00  0.00     0.003 SA
ATOM     13  H3  UNL     1      13.563   0.202  22.026  1.00  0.00     0.175 HD
BRANCH   9  14
HETATM   14  C7  UNL     1      16.053  -0.304  20.851  1.00  0.00     0.046 C 
HETATM   15  C8  UNL     1      17.396  -0.936  20.777  1.00  0.00     0.017 C 
HETATM   16  C9  UNL     1      15.537  -0.010  19.449  1.00  0.00     0.017 C 
ENDBRANCH   9  14
ENDBRANCH   6   7
BRANCH   6  17
HETATM   17  C10 UNL     1      13.918  -5.124  23.734  1.00  0.00     0.006 C 
HETATM   18  C11 UNL     1      14.997  -5.887  24.473  1.00  0.00     0.012 C 
HETATM   19  C12 UNL     1      12.689  -5.965  23.678  1.00  0.00     0.012 C 
ENDBRANCH   6  17
ENDBRANCH   4   6
ENDBRANCH   3   4
TORSDOF 5
ENDMDL
