MODEL 1
REMARK VINA RESULT: -7.342216238      0.000      0.000
REMARK  4 active torsions:
REMARK  status: ('A' for Active; 'I' for Inactive)
REMARK    1  A    between atoms: C4_5  and  C5_6 
REMARK    2  A    between atoms: C5_6  and  S1_7 
REMARK    3  A    between atoms: S1_7  and  C6_8 
REMARK    4  A    between atoms: C7_11  and  C8_12 
ROOT
HETATM    1  C6  UNL     1      16.104  -6.485  20.725  1.00  0.00     0.160 A 
HETATM    2  N1  UNL     1      17.377  -6.812  20.353  1.00  0.00    -0.324 N 
ATOM      3  H1  UNL     1      18.173  -6.178  20.282  1.00  0.00     0.169 HD
HETATM    4  C7  UNL     1      17.378  -8.131  20.101  1.00  0.00     0.102 A 
HETATM    5  N2  UNL     1      16.149  -8.623  20.305  1.00  0.00    -0.287 N 
ATOM      6  H2  UNL     1      15.857  -9.593  20.191  1.00  0.00     0.188 HD
HETATM    7  N3  UNL     1      15.393  -7.615  20.681  1.00  0.00    -0.278 N 
ATOM      8  H3  UNL     1      14.401  -7.687  20.907  1.00  0.00     0.189 HD
ENDROOT
BRANCH   1   9
HETATM    9  S1  UNL     1      15.597  -4.827  21.159  1.00  0.00    -0.092 SA
BRANCH   9  10
HETATM   10  C5  UNL     1      16.758  -3.585  20.589  1.00  0.00     0.089 C 
BRANCH  10  11
HETATM   11  C4  UNL     1      17.849  -3.272  21.612  1.00  0.00     0.019 C 
HETATM   12  C3  UNL     1      18.266  -1.848  21.478  1.00  0.00     0.172 C 
HETATM   13  O1  UNL     1      18.282  -1.137  22.662  1.00  0.00    -0.391 OA
HETATM   14  C2  UNL     1      18.956  -1.757  23.691  1.00  0.00     0.167 C 
HETATM   15  C1  UNL     1      18.397  -3.136  23.980  1.00  0.00     0.027 C 
HETATM   16  C11 UNL     1      17.259  -3.433  23.022  1.00  0.00     0.009 C 
ENDBRANCH  10  11
ENDBRANCH   9  10
ENDBRANCH   1   9
BRANCH   4  17
HETATM   17  C8  UNL     1      18.573  -8.898  19.663  1.00  0.00     0.055 A 
HETATM   18  C9  UNL     1      19.295  -9.737  20.695  1.00  0.00     0.013 A 
HETATM   19  C10 UNL     1      18.470 -10.408  19.650  1.00  0.00     0.013 A 
ENDBRANCH   4  17
TORSDOF 4
ENDMDL
MODEL 2
REMARK VINA RESULT: -7.084074959      0.827      1.455
REMARK  4 active torsions:
REMARK  status: ('A' for Active; 'I' for Inactive)
REMARK    1  A    between atoms: C4_5  and  C5_6 
REMARK    2  A    between atoms: C5_6  and  S1_7 
REMARK    3  A    between atoms: S1_7  and  C6_8 
REMARK    4  A    between atoms: C7_11  and  C8_12 
ROOT
HETATM    1  C6  UNL     1      16.069  -6.562  20.724  1.00  0.00     0.160 A 
HETATM    2  N1  UNL     1      17.362  -6.831  20.375  1.00  0.00    -0.324 N 
ATOM      3  H1  UNL     1      18.135  -6.164  20.337  1.00  0.00     0.169 HD
HETATM    4  C7  UNL     1      17.420  -8.142  20.093  1.00  0.00     0.102 A 
HETATM    5  N2  UNL     1      16.207  -8.685  20.257  1.00  0.00    -0.287 N 
ATOM      6  H2  UNL     1      15.955  -9.663  20.114  1.00  0.00     0.188 HD
HETATM    7  N3  UNL     1      15.404  -7.717  20.637  1.00  0.00    -0.278 N 
ATOM      8  H3  UNL     1      14.410  -7.832  20.837  1.00  0.00     0.189 HD
ENDROOT
BRANCH   1   9
HETATM    9  S1  UNL     1      15.488  -4.935  21.182  1.00  0.00    -0.092 SA
BRANCH   9  10
HETATM   10  C5  UNL     1      15.859  -4.532  22.889  1.00  0.00     0.089 C 
BRANCH  10  11
HETATM   11  C4  UNL     1      16.579  -3.192  23.045  1.00  0.00     0.019 C 
HETATM   12  C3  UNL     1      17.348  -3.184  24.322  1.00  0.00     0.172 C 
HETATM   13  O1  UNL     1      18.668  -2.796  24.198  1.00  0.00    -0.391 OA
HETATM   14  C2  UNL     1      18.855  -1.625  23.498  1.00  0.00     0.167 C 
HETATM   15  C1  UNL     1      18.257  -1.699  22.107  1.00  0.00     0.027 C 
HETATM   16  C11 UNL     1      17.603  -3.053  21.907  1.00  0.00     0.009 C 
ENDBRANCH  10  11
ENDBRANCH   9  10
ENDBRANCH   1   9
BRANCH   4  17
HETATM   17  C8  UNL     1      18.654  -8.852  19.667  1.00  0.00     0.055 A 
HETATM   18  C9  UNL     1      19.367  -9.712  20.688  1.00  0.00     0.013 A 
HETATM   19  C10 UNL     1      18.600 -10.362  19.587  1.00  0.00     0.013 A 
ENDBRANCH   4  17
TORSDOF 4
ENDMDL
MODEL 3
REMARK VINA RESULT: -7.018597316      3.118      3.970
REMARK  4 active torsions:
REMARK  status: ('A' for Active; 'I' for Inactive)
REMARK    1  A    between atoms: C4_5  and  C5_6 
REMARK    2  A    between atoms: C5_6  and  S1_7 
REMARK    3  A    between atoms: S1_7  and  C6_8 
REMARK    4  A    between atoms: C7_11  and  C8_12 
ROOT
HETATM    1  C6  UNL     1      16.184  -6.399  20.995  1.00  0.00     0.160 A 
HETATM    2  N1  UNL     1      17.435  -6.768  20.589  1.00  0.00    -0.324 N 
ATOM      3  H1  UNL     1      18.273  -6.186  20.590  1.00  0.00     0.169 HD
HETATM    4  C7  UNL     1      17.347  -8.047  20.188  1.00  0.00     0.102 A 
HETATM    5  N2  UNL     1      16.086  -8.472  20.335  1.00  0.00    -0.287 N 
ATOM      6  H2  UNL     1      15.729  -9.401  20.111  1.00  0.00     0.188 HD
HETATM    7  N3  UNL     1      15.398  -7.465  20.822  1.00  0.00    -0.278 N 
ATOM      8  H3  UNL     1      14.402  -7.493  21.039  1.00  0.00     0.189 HD
ENDROOT
BRANCH   1   9
HETATM    9  S1  UNL     1      15.789  -4.770  21.615  1.00  0.00    -0.092 SA
BRANCH   9  10
HETATM   10  C5  UNL     1      15.492  -4.763  23.383  1.00  0.00     0.089 C 
BRANCH  10  11
HETATM   11  C4  UNL     1      14.006  -4.735  23.740  1.00  0.00     0.019 C 
HETATM   12  C3  UNL     1      13.293  -3.791  22.833  1.00  0.00     0.172 C 
HETATM   13  O1  UNL     1      12.162  -4.310  22.234  1.00  0.00    -0.391 OA
HETATM   14  C2  UNL     1      11.286  -4.923  23.101  1.00  0.00     0.167 C 
HETATM   15  C1  UNL     1      11.954  -6.036  23.883  1.00  0.00     0.027 C 
HETATM   16  C11 UNL     1      13.415  -6.130  23.485  1.00  0.00     0.009 C 
ENDBRANCH  10  11
ENDBRANCH   9  10
ENDBRANCH   1   9
BRANCH   4  17
HETATM   17  C8  UNL     1      18.490  -8.840  19.665  1.00  0.00     0.055 A 
HETATM   18  C9  UNL     1      19.256  -9.708  20.640  1.00  0.00     0.013 A 
HETATM   19  C10 UNL     1      18.346 -10.346  19.646  1.00  0.00     0.013 A 
ENDBRANCH   4  17
TORSDOF 4
ENDMDL
MODEL 4
REMARK VINA RESULT: -6.821940813      3.394      4.499
REMARK  4 active torsions:
REMARK  status: ('A' for Active; 'I' for Inactive)
REMARK    1  A    between atoms: C4_5  and  C5_6 
REMARK    2  A    between atoms: C5_6  and  S1_7 
REMARK    3  A    between atoms: S1_7  and  C6_8 
REMARK    4  A    between atoms: C7_11  and  C8_12 
ROOT
HETATM    1  C6  UNL     1      16.078  -6.452  21.092  1.00  0.00     0.160 A 
HETATM    2  N1  UNL     1      17.335  -6.791  20.677  1.00  0.00    -0.324 N 
ATOM      3  H1  UNL     1      18.167  -6.202  20.710  1.00  0.00     0.169 HD
HETATM    4  C7  UNL     1      17.261  -8.051  20.219  1.00  0.00     0.102 A 
HETATM    5  N2  UNL     1      16.004  -8.495  20.338  1.00  0.00    -0.287 N 
ATOM      6  H2  UNL     1      15.656  -9.416  20.071  1.00  0.00     0.188 HD
HETATM    7  N3  UNL     1      15.303  -7.516  20.866  1.00  0.00    -0.278 N 
ATOM      8  H3  UNL     1      14.306  -7.563  21.075  1.00  0.00     0.189 HD
ENDROOT
BRANCH   1   9
HETATM    9  S1  UNL     1      15.664  -4.856  21.781  1.00  0.00    -0.092 SA
BRANCH   9  10
HETATM   10  C5  UNL     1      14.488  -3.957  20.769  1.00  0.00     0.089 C 
BRANCH  10  11
HETATM   11  C4  UNL     1      13.097  -4.591  20.762  1.00  0.00     0.019 C 
HETATM   12  C3  UNL     1      12.710  -4.959  22.153  1.00  0.00     0.172 C 
HETATM   13  O1  UNL     1      11.461  -4.514  22.542  1.00  0.00    -0.391 OA
HETATM   14  C2  UNL     1      10.450  -4.800  21.652  1.00  0.00     0.167 C 
HETATM   15  C1  UNL     1      10.738  -4.242  20.273  1.00  0.00     0.027 C 
HETATM   16  C11 UNL     1      12.084  -3.540  20.281  1.00  0.00     0.009 C 
ENDBRANCH  10  11
ENDBRANCH   9  10
ENDBRANCH   1   9
BRANCH   4  17
HETATM   17  C8  UNL     1      18.415  -8.810  19.668  1.00  0.00     0.055 A 
HETATM   18  C9  UNL     1      19.240  -9.641  20.627  1.00  0.00     0.013 A 
HETATM   19  C10 UNL     1      18.323 -10.320  19.667  1.00  0.00     0.013 A 
ENDBRANCH   4  17
TORSDOF 4
ENDMDL
MODEL 5
REMARK VINA RESULT: -6.806151386      4.747      6.842
REMARK  4 active torsions:
REMARK  status: ('A' for Active; 'I' for Inactive)
REMARK    1  A    between atoms: C4_5  and  C5_6 
REMARK    2  A    between atoms: C5_6  and  S1_7 
REMARK    3  A    between atoms: S1_7  and  C6_8 
REMARK    4  A    between atoms: C7_11  and  C8_12 
ROOT
HETATM    1  C6  UNL     1      14.864  -3.761  23.777  1.00  0.00     0.160 A 
HETATM    2  N1  UNL     1      16.124  -3.951  23.284  1.00  0.00    -0.324 N 
ATOM      3  H1  UNL     1      16.431  -4.708  22.671  1.00  0.00     0.169 HD
HETATM    4  C7  UNL     1      16.879  -2.950  23.762  1.00  0.00     0.102 A 
HETATM    5  N2  UNL     1      16.126  -2.153  24.530  1.00  0.00    -0.287 N 
ATOM      6  H2  UNL     1      16.435  -1.314  25.021  1.00  0.00     0.188 HD
HETATM    7  N3  UNL     1      14.913  -2.657  24.529  1.00  0.00    -0.278 N 
ATOM      8  H3  UNL     1      14.119  -2.262  25.032  1.00  0.00     0.189 HD
ENDROOT
BRANCH   1   9
HETATM    9  S1  UNL     1      13.491  -4.849  23.424  1.00  0.00    -0.092 SA
BRANCH   9  10
HETATM   10  C5  UNL     1      13.010  -4.807  21.698  1.00  0.00     0.089 C 
BRANCH  10  11
HETATM   11  C4  UNL     1      11.814  -3.892  21.432  1.00  0.00     0.019 C 
HETATM   12  C3  UNL     1      12.234  -2.469  21.572  1.00  0.00     0.172 C 
HETATM   13  O1  UNL     1      11.877  -1.656  20.514  1.00  0.00    -0.391 OA
HETATM   14  C2  UNL     1      10.555  -1.749  20.143  1.00  0.00     0.167 C 
HETATM   15  C1  UNL     1      10.168  -3.172  19.791  1.00  0.00     0.027 C 
HETATM   16  C11 UNL     1      11.366  -4.084  19.975  1.00  0.00     0.009 C 
ENDBRANCH  10  11
ENDBRANCH   9  10
ENDBRANCH   1   9
BRANCH   4  17
HETATM   17  C8  UNL     1      18.326  -2.779  23.466  1.00  0.00     0.055 A 
HETATM   18  C9  UNL     1      18.713  -1.898  22.298  1.00  0.00     0.013 A 
HETATM   19  C10 UNL     1      18.929  -1.409  23.690  1.00  0.00     0.013 A 
ENDBRANCH   4  17
TORSDOF 4
ENDMDL
