MODEL 1
REMARK VINA RESULT: -7.339491244      0.000      0.000
REMARK  16 active torsions:
REMARK  status: ('A' for Active; 'I' for Inactive)
REMARK    1  A    between atoms: O1_2  and  N1_3 
REMARK    2  A    between atoms: C2_5  and  C3_6 
REMARK    3  A    between atoms: C2_5  and  C18_48 
REMARK       I    between atoms: C3_6  and  N2_8 
REMARK    4  A    between atoms: N2_8  and  C4_10 
REMARK    5  A    between atoms: C4_10  and  C5_11 
REMARK    6  A    between atoms: C4_10  and  C15_43 
REMARK       I    between atoms: C5_11  and  N3_13 
REMARK    7  A    between atoms: N3_13  and  C6_15 
REMARK    8  A    between atoms: C6_15  and  C7_16 
REMARK    9  A    between atoms: C8_19  and  N5_20 
REMARK   10  A    between atoms: C11_30  and  N9_31 
REMARK   11  A    between atoms: C13_37  and  O5_38 
REMARK   12  A    between atoms: C14_40  and  O6_41 
REMARK   13  A    between atoms: C15_43  and  O7_46 
REMARK   14  A    between atoms: C19_51  and  N12_52 
REMARK   15  A    between atoms: C21_58  and  C22_59 
REMARK       I    between atoms: C22_59  and  N14_61 
REMARK   16  A    between atoms: N15_63  and  N16_65 
ROOT
HETATM    1  C4  UNL     1      23.842 -10.156  -7.140  1.00  0.00     0.210 C 
ENDROOT
BRANCH   1   2
HETATM    2  N2  UNL     1      24.004 -11.624  -7.333  1.00  0.00    -0.339 N 
HETATM    3  C3  UNL     1      24.513 -12.442  -6.347  1.00  0.00     0.273 C 
HETATM    4  O2  UNL     1      24.858 -11.830  -5.259  1.00  0.00    -0.266 OA
ATOM      5  H2  UNL     1      23.729 -12.037  -8.224  1.00  0.00     0.163 HD
BRANCH   3   6
HETATM    6  C2  UNL     1      24.714 -13.863  -6.375  1.00  0.00     0.150 C 
HETATM    7  N1  UNL     1      25.856 -14.327  -6.884  1.00  0.00    -0.260 N 
ATOM      8  H1  UNL     1      26.023 -15.333  -6.917  1.00  0.00     0.194 HD
BRANCH   7   9
HETATM    9  O1  UNL     1      26.795 -13.478  -7.358  1.00  0.00    -0.285 OA
HETATM   10  C1  UNL     1      27.191 -13.344  -8.691  1.00  0.00     0.237 C 
ENDBRANCH   7   9
BRANCH   6  11
HETATM   11  C18 UNL     1      23.803 -14.903  -5.935  1.00  0.00     0.100 A 
HETATM   12  N11 UNL     1      24.140 -15.579  -4.794  1.00  0.00    -0.189 N 
HETATM   13  C19 UNL     1      23.501 -16.726  -4.479  1.00  0.00     0.676 A 
ATOM     14  H11 UNL     1      24.872 -15.217  -4.182  1.00  0.00     0.184 HD
HETATM   15  N13 UNL     1      22.536 -17.249  -5.242  1.00  0.00    -0.201 N 
HETATM   16  C20 UNL     1      22.154 -16.646  -6.366  1.00  0.00     0.125 A 
ATOM     17  H13 UNL     1      22.087 -18.120  -4.960  1.00  0.00     0.183 HD
HETATM   18  C21 UNL     1      22.807 -15.443  -6.712  1.00  0.00     0.079 A 
BRANCH  13  19
HETATM   19  N12 UNL     1      23.843 -17.345  -3.383  1.00  0.00    -0.234 N 
ATOM     20 2H12 UNL     1      24.555 -16.930  -2.783  1.00  0.00     0.174 HD
ATOM     21 1H12 UNL     1      23.383 -18.229  -3.162  1.00  0.00     0.174 HD
ENDBRANCH  13  19
BRANCH  18  22
HETATM   22  C22 UNL     1      22.169 -14.760  -7.817  1.00  0.00     0.274 C 
HETATM   23  O8  UNL     1      21.492 -13.738  -7.716  1.00  0.00    -0.266 OA
HETATM   24  N14 UNL     1      22.299 -15.261  -9.169  1.00  0.00    -0.252 N 
HETATM   25  N15 UNL     1      21.188 -15.635  -9.677  1.00  0.00    -0.246 N 
ATOM     26  H14 UNL     1      23.189 -15.311  -9.665  1.00  0.00     0.191 HD
ATOM     27  H15 UNL     1      21.204 -16.000 -10.629  1.00  0.00     0.207 HD
BRANCH  25  28
HETATM   28  N16 UNL     1      19.959 -15.579  -9.027  1.00  0.00    -0.331 N 
ATOM     29 2H16 UNL     1      19.867 -16.140  -8.180  1.00  0.00     0.178 HD
ATOM     30 1H16 UNL     1      19.160 -15.025  -9.337  1.00  0.00     0.178 HD
ENDBRANCH  25  28
ENDBRANCH  18  22
ENDBRANCH   6  11
ENDBRANCH   3   6
ENDBRANCH   1   2
BRANCH   1  31
HETATM   31  C5  UNL     1      22.419  -9.860  -7.433  1.00  0.00     0.243 C 
HETATM   32  O3  UNL     1      21.934  -8.769  -6.941  1.00  0.00    -0.271 OA
HETATM   33  N3  UNL     1      21.539 -10.631  -8.187  1.00  0.00    -0.354 N 
ATOM     34  H3  UNL     1      21.870 -11.501  -8.606  1.00  0.00     0.162 HD
BRANCH  33  35
HETATM   35  C6  UNL     1      20.168 -10.227  -8.390  1.00  0.00     0.177 C 
BRANCH  35  36
HETATM   36  C7  UNL     1      19.207 -11.213  -7.819  1.00  0.00     0.033 C 
HETATM   37  N4  UNL     1      19.322 -11.900  -6.762  1.00  0.00    -0.368 N 
HETATM   38  C8  UNL     1      18.199 -12.723  -6.552  1.00  0.00     0.240 C 
ATOM     39  H4  UNL     1      20.128 -11.862  -6.138  1.00  0.00     0.161 HD
HETATM   40  C13 UNL     1      17.627 -12.914  -7.932  1.00  0.00     0.196 C 
HETATM   41  C14 UNL     1      17.899 -11.514  -8.508  1.00  0.00     0.197 C 
BRANCH  38  42
HETATM   42  N5  UNL     1      18.471 -13.966  -5.884  1.00  0.00    -0.233 N 
HETATM   43  N6  UNL     1      17.967 -15.133  -6.259  1.00  0.00    -0.236 N 
HETATM   44  N7  UNL     1      18.394 -16.081  -5.464  1.00  0.00    -0.278 N 
ATOM     45  H6  UNL     1      17.339 -15.272  -7.051  1.00  0.00     0.208 HD
HETATM   46  C9  UNL     1      19.204 -15.518  -4.536  1.00  0.00     0.164 A 
ATOM     47  H7  UNL     1      18.158 -17.072  -5.531  1.00  0.00     0.189 HD
HETATM   48  C10 UNL     1      19.915 -16.008  -3.479  1.00  0.00     0.291 A 
HETATM   49  C12 UNL     1      19.238 -14.179  -4.823  1.00  0.00     0.175 A 
HETATM   50  O4  UNL     1      19.856 -17.253  -3.249  1.00  0.00    -0.265 OA
HETATM   51  N8  UNL     1      20.644 -15.167  -2.727  1.00  0.00    -0.154 N 
HETATM   52  C11 UNL     1      20.661 -13.858  -3.029  1.00  0.00     0.680 A 
ATOM     53  H8  UNL     1      21.181 -15.519  -1.934  1.00  0.00     0.187 HD
HETATM   54  N10 UNL     1      19.969 -13.356  -4.064  1.00  0.00    -0.173 N 
ATOM     55  H10 UNL     1      20.001 -12.357  -4.269  1.00  0.00     0.186 HD
BRANCH  52  56
HETATM   56  N9  UNL     1      21.365 -13.020  -2.310  1.00  0.00    -0.234 N 
ATOM     57  H92 UNL     1      21.883 -13.400  -1.517  1.00  0.00     0.174 HD
ATOM     58  H91 UNL     1      21.387 -12.028  -2.545  1.00  0.00     0.174 HD
ENDBRANCH  52  56
ENDBRANCH  38  42
BRANCH  40  59
HETATM   59  O5  UNL     1      16.263 -13.186  -7.906  1.00  0.00    -0.389 OA
ATOM     60  H5  UNL     1      15.785 -12.701  -8.569  1.00  0.00     0.210 HD
ENDBRANCH  40  59
BRANCH  41  61
HETATM   61  O6  UNL     1      16.969 -10.644  -7.979  1.00  0.00    -0.387 OA
ATOM     62  H6  UNL     1      16.478 -10.296  -8.713  1.00  0.00     0.210 HD
ENDBRANCH  41  61
ENDBRANCH  35  36
ENDBRANCH  33  35
ENDBRANCH   1  31
BRANCH   1  63
HETATM   63  C15 UNL     1      24.685  -9.450  -8.181  1.00  0.00     0.080 C 
HETATM   64  C16 UNL     1      26.125  -9.498  -7.787  1.00  0.00     0.048 C 
HETATM   65  C17 UNL     1      24.579 -10.149  -9.529  1.00  0.00     0.048 C 
BRANCH  63  66
HETATM   66  O7  UNL     1      24.199  -8.166  -8.304  1.00  0.00    -0.388 OA
ATOM     67  H7  UNL     1      24.945  -7.590  -8.427  1.00  0.00     0.210 HD
ENDBRANCH  63  66
ENDBRANCH   1  63
TORSDOF 16
ENDMDL
MODEL 2
REMARK VINA RESULT: -7.096497214      2.620      6.566
REMARK  16 active torsions:
REMARK  status: ('A' for Active; 'I' for Inactive)
REMARK    1  A    between atoms: O1_2  and  N1_3 
REMARK    2  A    between atoms: C2_5  and  C3_6 
REMARK    3  A    between atoms: C2_5  and  C18_48 
REMARK       I    between atoms: C3_6  and  N2_8 
REMARK    4  A    between atoms: N2_8  and  C4_10 
REMARK    5  A    between atoms: C4_10  and  C5_11 
REMARK    6  A    between atoms: C4_10  and  C15_43 
REMARK       I    between atoms: C5_11  and  N3_13 
REMARK    7  A    between atoms: N3_13  and  C6_15 
REMARK    8  A    between atoms: C6_15  and  C7_16 
REMARK    9  A    between atoms: C8_19  and  N5_20 
REMARK   10  A    between atoms: C11_30  and  N9_31 
REMARK   11  A    between atoms: C13_37  and  O5_38 
REMARK   12  A    between atoms: C14_40  and  O6_41 
REMARK   13  A    between atoms: C15_43  and  O7_46 
REMARK   14  A    between atoms: C19_51  and  N12_52 
REMARK   15  A    between atoms: C21_58  and  C22_59 
REMARK       I    between atoms: C22_59  and  N14_61 
REMARK   16  A    between atoms: N15_63  and  N16_65 
ROOT
HETATM    1  C4  UNL     1      17.312 -13.232  -9.248  1.00  0.00     0.210 C 
ENDROOT
BRANCH   1   2
HETATM    2  N2  UNL     1      18.564 -12.599  -9.749  1.00  0.00    -0.339 N 
HETATM    3  C3  UNL     1      19.235 -11.630  -9.034  1.00  0.00     0.273 C 
HETATM    4  O2  UNL     1      18.677 -11.301  -7.912  1.00  0.00    -0.266 OA
ATOM      5  H2  UNL     1      18.938 -12.893 -10.652  1.00  0.00     0.163 HD
BRANCH   3   6
HETATM    6  C2  UNL     1      20.448 -10.943  -9.372  1.00  0.00     0.150 C 
HETATM    7  N1  UNL     1      21.043 -11.247 -10.527  1.00  0.00    -0.260 N 
ATOM      8  H1  UNL     1      21.907 -10.773 -10.790  1.00  0.00     0.194 HD
BRANCH   7   9
HETATM    9  O1  UNL     1      20.512 -12.175 -11.353  1.00  0.00    -0.285 OA
HETATM   10  C1  UNL     1      21.162 -12.805 -12.416  1.00  0.00     0.237 C 
ENDBRANCH   7   9
BRANCH   6  11
HETATM   11  C18 UNL     1      21.159  -9.948  -8.591  1.00  0.00     0.100 A 
HETATM   12  N11 UNL     1      20.902  -8.634  -8.880  1.00  0.00    -0.189 N 
HETATM   13  C19 UNL     1      21.714  -7.670  -8.399  1.00  0.00     0.676 A 
ATOM     14  H11 UNL     1      20.099  -8.386  -9.458  1.00  0.00     0.184 HD
HETATM   15  N13 UNL     1      22.781  -7.936  -7.640  1.00  0.00    -0.201 N 
HETATM   16  C20 UNL     1      23.093  -9.188  -7.316  1.00  0.00     0.125 A 
ATOM     17  H13 UNL     1      23.365  -7.169  -7.304  1.00  0.00     0.183 HD
HETATM   18  C21 UNL     1      22.254 -10.213  -7.805  1.00  0.00     0.079 A 
BRANCH  13  19
HETATM   19  N12 UNL     1      21.441  -6.428  -8.690  1.00  0.00    -0.234 N 
ATOM     20 2H12 UNL     1      20.466  -6.129  -8.711  1.00  0.00     0.174 HD
ATOM     21 1H12 UNL     1      22.216  -5.794  -8.887  1.00  0.00     0.174 HD
ENDBRANCH  13  19
BRANCH  18  22
HETATM   22  C22 UNL     1      22.546 -11.502  -7.216  1.00  0.00     0.274 C 
HETATM   23  O8  UNL     1      22.266 -11.828  -6.062  1.00  0.00    -0.266 OA
HETATM   24  N14 UNL     1      23.211 -12.532  -7.985  1.00  0.00    -0.252 N 
HETATM   25  N15 UNL     1      24.358 -12.847  -7.519  1.00  0.00    -0.246 N 
ATOM     26  H14 UNL     1      22.804 -12.963  -8.815  1.00  0.00     0.191 HD
ATOM     27  H15 UNL     1      24.886 -13.569  -8.011  1.00  0.00     0.207 HD
BRANCH  25  28
HETATM   28  N16 UNL     1      24.940 -12.280  -6.390  1.00  0.00    -0.331 N 
ATOM     29 2H16 UNL     1      25.107 -11.274  -6.421  1.00  0.00     0.178 HD
ATOM     30 1H16 UNL     1      25.206 -12.794  -5.550  1.00  0.00     0.178 HD
ENDBRANCH  25  28
ENDBRANCH  18  22
ENDBRANCH   6  11
ENDBRANCH   3   6
ENDBRANCH   1   2
BRANCH   1  31
HETATM   31  C5  UNL     1      17.716 -14.090  -8.108  1.00  0.00     0.243 C 
HETATM   32  O3  UNL     1      18.648 -14.956  -8.329  1.00  0.00    -0.271 OA
HETATM   33  N3  UNL     1      17.201 -14.066  -6.816  1.00  0.00    -0.354 N 
ATOM     34  H3  UNL     1      16.466 -13.397  -6.583  1.00  0.00     0.162 HD
BRANCH  33  35
HETATM   35  C6  UNL     1      17.684 -14.967  -5.796  1.00  0.00     0.177 C 
BRANCH  35  36
HETATM   36  C7  UNL     1      19.058 -14.609  -5.343  1.00  0.00     0.033 C 
HETATM   37  N4  UNL     1      20.149 -15.198  -5.600  1.00  0.00    -0.368 N 
HETATM   38  C8  UNL     1      21.243 -14.556  -4.990  1.00  0.00     0.240 C 
ATOM     39  H4  UNL     1      20.226 -16.034  -6.179  1.00  0.00     0.161 HD
HETATM   40  C13 UNL     1      20.632 -13.834  -3.817  1.00  0.00     0.196 C 
HETATM   41  C14 UNL     1      19.297 -13.412  -4.456  1.00  0.00     0.197 C 
BRANCH  38  42
HETATM   42  N5  UNL     1      22.323 -15.424  -4.609  1.00  0.00    -0.233 N 
HETATM   43  N6  UNL     1      23.565 -15.297  -5.053  1.00  0.00    -0.236 N 
HETATM   44  N7  UNL     1      24.325 -16.227  -4.531  1.00  0.00    -0.278 N 
ATOM     45  H6  UNL     1      23.883 -14.580  -5.705  1.00  0.00     0.208 HD
HETATM   46  C9  UNL     1      23.555 -16.990  -3.719  1.00  0.00     0.164 A 
ATOM     47  H7  UNL     1      25.322 -16.355  -4.706  1.00  0.00     0.189 HD
HETATM   48  C10 UNL     1      23.800 -18.078  -2.932  1.00  0.00     0.291 A 
HETATM   49  C12 UNL     1      22.293 -16.462  -3.784  1.00  0.00     0.175 A 
HETATM   50  O4  UNL     1      24.983 -18.534  -2.900  1.00  0.00    -0.265 OA
HETATM   51  N8  UNL     1      22.796 -18.622  -2.225  1.00  0.00    -0.154 N 
HETATM   52  C11 UNL     1      21.566 -18.085  -2.306  1.00  0.00     0.680 A 
ATOM     53  H8  UNL     1      22.965 -19.434  -1.632  1.00  0.00     0.187 HD
HETATM   54  N10 UNL     1      21.304 -17.017  -3.074  1.00  0.00    -0.173 N 
ATOM     55  H10 UNL     1      20.361 -16.631  -3.116  1.00  0.00     0.186 HD
BRANCH  52  56
HETATM   56  N9  UNL     1      20.573 -18.600  -1.626  1.00  0.00    -0.234 N 
ATOM     57  H92 UNL     1      20.765 -18.910  -0.673  1.00  0.00     0.174 HD
ATOM     58  H91 UNL     1      19.646 -18.680  -2.045  1.00  0.00     0.174 HD
ENDBRANCH  52  56
ENDBRANCH  38  42
BRANCH  40  59
HETATM   59  O5  UNL     1      21.376 -12.723  -3.435  1.00  0.00    -0.389 OA
ATOM     60  H5  UNL     1      21.347 -12.029  -4.083  1.00  0.00     0.210 HD
ENDBRANCH  40  59
BRANCH  41  61
HETATM   61  O6  UNL     1      19.542 -12.346  -5.296  1.00  0.00    -0.387 OA
ATOM     62  H6  UNL     1      19.502 -11.565  -4.757  1.00  0.00     0.210 HD
ENDBRANCH  41  61
ENDBRANCH  35  36
ENDBRANCH  33  35
ENDBRANCH   1  31
BRANCH   1  63
HETATM   63  C15 UNL     1      16.773 -14.134 -10.338  1.00  0.00     0.080 C 
HETATM   64  C16 UNL     1      15.669 -13.443 -11.069  1.00  0.00     0.048 C 
HETATM   65  C17 UNL     1      17.851 -14.443 -11.367  1.00  0.00     0.048 C 
BRANCH  63  66
HETATM   66  O7  UNL     1      16.375 -15.310  -9.740  1.00  0.00    -0.388 OA
ATOM     67  H7  UNL     1      17.027 -15.970  -9.949  1.00  0.00     0.210 HD
ENDBRANCH  63  66
ENDBRANCH   1  63
TORSDOF 16
ENDMDL
MODEL 3
REMARK VINA RESULT: -7.081861336      1.609      2.216
REMARK  16 active torsions:
REMARK  status: ('A' for Active; 'I' for Inactive)
REMARK    1  A    between atoms: O1_2  and  N1_3 
REMARK    2  A    between atoms: C2_5  and  C3_6 
REMARK    3  A    between atoms: C2_5  and  C18_48 
REMARK       I    between atoms: C3_6  and  N2_8 
REMARK    4  A    between atoms: N2_8  and  C4_10 
REMARK    5  A    between atoms: C4_10  and  C5_11 
REMARK    6  A    between atoms: C4_10  and  C15_43 
REMARK       I    between atoms: C5_11  and  N3_13 
REMARK    7  A    between atoms: N3_13  and  C6_15 
REMARK    8  A    between atoms: C6_15  and  C7_16 
REMARK    9  A    between atoms: C8_19  and  N5_20 
REMARK   10  A    between atoms: C11_30  and  N9_31 
REMARK   11  A    between atoms: C13_37  and  O5_38 
REMARK   12  A    between atoms: C14_40  and  O6_41 
REMARK   13  A    between atoms: C15_43  and  O7_46 
REMARK   14  A    between atoms: C19_51  and  N12_52 
REMARK   15  A    between atoms: C21_58  and  C22_59 
REMARK       I    between atoms: C22_59  and  N14_61 
REMARK   16  A    between atoms: N15_63  and  N16_65 
ROOT
HETATM    1  C4  UNL     1      21.414 -10.079  -7.700  1.00  0.00     0.210 C 
ENDROOT
BRANCH   1   2
HETATM    2  N2  UNL     1      22.480 -11.095  -7.476  1.00  0.00    -0.339 N 
HETATM    3  C3  UNL     1      22.439 -11.981  -6.421  1.00  0.00     0.273 C 
HETATM    4  O2  UNL     1      21.420 -11.841  -5.633  1.00  0.00    -0.266 OA
ATOM      5  H2  UNL     1      23.265 -11.137  -8.125  1.00  0.00     0.163 HD
BRANCH   3   6
HETATM    6  C2  UNL     1      23.372 -13.017  -6.082  1.00  0.00     0.150 C 
HETATM    7  N1  UNL     1      24.596 -12.659  -5.690  1.00  0.00    -0.260 N 
ATOM      8  H1  UNL     1      25.278 -13.377  -5.445  1.00  0.00     0.194 HD
BRANCH   7   9
HETATM    9  O1  UNL     1      24.942 -11.355  -5.614  1.00  0.00    -0.285 OA
HETATM   10  C1  UNL     1      25.777 -10.668  -6.497  1.00  0.00     0.237 C 
ENDBRANCH   7   9
BRANCH   6  11
HETATM   11  C18 UNL     1      23.172 -14.454  -6.135  1.00  0.00     0.100 A 
HETATM   12  N11 UNL     1      23.820 -15.205  -5.192  1.00  0.00    -0.189 N 
HETATM   13  C19 UNL     1      23.906 -16.544  -5.343  1.00  0.00     0.676 A 
ATOM     14  H11 UNL     1      24.238 -14.754  -4.378  1.00  0.00     0.184 HD
HETATM   15  N13 UNL     1      23.380 -17.188  -6.389  1.00  0.00    -0.201 N 
HETATM   16  C20 UNL     1      22.733 -16.524  -7.344  1.00  0.00     0.125 A 
ATOM     17  H13 UNL     1      23.475 -18.202  -6.456  1.00  0.00     0.183 HD
HETATM   18  C21 UNL     1      22.628 -15.123  -7.204  1.00  0.00     0.079 A 
BRANCH  13  19
HETATM   19  N12 UNL     1      24.528 -17.232  -4.426  1.00  0.00    -0.234 N 
ATOM     20 2H12 UNL     1      24.393 -16.983  -3.446  1.00  0.00     0.174 HD
ATOM     21 1H12 UNL     1      25.131 -18.000  -4.722  1.00  0.00     0.174 HD
ENDBRANCH  13  19
BRANCH  18  22
HETATM   22  C22 UNL     1      21.723 -14.533  -8.166  1.00  0.00     0.274 C 
HETATM   23  O8  UNL     1      20.498 -14.502  -8.053  1.00  0.00    -0.266 OA
HETATM   24  N14 UNL     1      22.229 -13.913  -9.373  1.00  0.00    -0.252 N 
HETATM   25  N15 UNL     1      21.854 -14.506 -10.440  1.00  0.00    -0.246 N 
ATOM     26  H14 UNL     1      22.825 -13.084  -9.370  1.00  0.00     0.191 HD
ATOM     27  H15 UNL     1      22.174 -14.124 -11.330  1.00  0.00     0.207 HD
BRANCH  25  28
HETATM   28  N16 UNL     1      21.043 -15.636 -10.477  1.00  0.00    -0.331 N 
ATOM     29 2H16 UNL     1      20.246 -15.645  -9.840  1.00  0.00     0.178 HD
ATOM     30 1H16 UNL     1      21.189 -16.439 -11.089  1.00  0.00     0.178 HD
ENDBRANCH  25  28
ENDBRANCH  18  22
ENDBRANCH   6  11
ENDBRANCH   3   6
ENDBRANCH   1   2
BRANCH   1  31
HETATM   31  C5  UNL     1      20.256 -10.818  -8.258  1.00  0.00     0.243 C 
HETATM   32  O3  UNL     1      20.468 -11.528  -9.316  1.00  0.00    -0.271 OA
HETATM   33  N3  UNL     1      18.954 -10.835  -7.765  1.00  0.00    -0.354 N 
ATOM     34  H3  UNL     1      18.730 -10.297  -6.928  1.00  0.00     0.162 HD
BRANCH  33  35
HETATM   35  C6  UNL     1      17.914 -11.598  -8.414  1.00  0.00     0.177 C 
BRANCH  35  36
HETATM   36  C7  UNL     1      17.570 -12.830  -7.649  1.00  0.00     0.033 C 
HETATM   37  N4  UNL     1      18.145 -13.308  -6.627  1.00  0.00    -0.368 N 
HETATM   38  C8  UNL     1      17.525 -14.492  -6.187  1.00  0.00     0.240 C 
ATOM     39  H4  UNL     1      18.958 -12.885  -6.178  1.00  0.00     0.161 HD
HETATM   40  C13 UNL     1      16.852 -15.030  -7.422  1.00  0.00     0.196 C 
HETATM   41  C14 UNL     1      16.409 -13.702  -8.060  1.00  0.00     0.197 C 
BRANCH  38  42
HETATM   42  N5  UNL     1      18.405 -15.447  -5.570  1.00  0.00    -0.233 N 
HETATM   43  N6  UNL     1      18.375 -16.748  -5.819  1.00  0.00    -0.236 N 
HETATM   44  N7  UNL     1      19.292 -17.360  -5.112  1.00  0.00    -0.278 N 
ATOM     45  H6  UNL     1      17.732 -17.205  -6.466  1.00  0.00     0.208 HD
HETATM   46  C9  UNL     1      19.944 -16.430  -4.375  1.00  0.00     0.164 A 
ATOM     47  H7  UNL     1      19.482 -18.362  -5.117  1.00  0.00     0.189 HD
HETATM   48  C10 UNL     1      20.970 -16.484  -3.476  1.00  0.00     0.291 A 
HETATM   49  C12 UNL     1      19.365 -15.227  -4.682  1.00  0.00     0.175 A 
HETATM   50  O4  UNL     1      21.477 -17.617  -3.222  1.00  0.00    -0.265 OA
HETATM   51  N8  UNL     1      21.403 -15.351  -2.899  1.00  0.00    -0.154 N 
HETATM   52  C11 UNL     1      20.819 -14.183  -3.217  1.00  0.00     0.680 A 
ATOM     53  H8  UNL     1      22.169 -15.377  -2.226  1.00  0.00     0.187 HD
HETATM   54  N10 UNL     1      19.809 -14.108  -4.098  1.00  0.00    -0.173 N 
ATOM     55  H10 UNL     1      19.384 -13.207  -4.319  1.00  0.00     0.186 HD
BRANCH  52  56
HETATM   56  N9  UNL     1      21.225 -13.067  -2.667  1.00  0.00    -0.234 N 
ATOM     57  H92 UNL     1      21.633 -13.124  -1.733  1.00  0.00     0.174 HD
ATOM     58  H91 UNL     1      21.132 -12.181  -3.164  1.00  0.00     0.174 HD
ENDBRANCH  52  56
ENDBRANCH  38  42
BRANCH  40  59
HETATM   59  O5  UNL     1      15.755 -15.830  -7.121  1.00  0.00    -0.389 OA
ATOM     60  H5  UNL     1      15.709 -16.603  -7.672  1.00  0.00     0.210 HD
ENDBRANCH  40  59
BRANCH  41  61
HETATM   61  O6  UNL     1      15.310 -13.240  -7.367  1.00  0.00    -0.387 OA
ATOM     62  H6  UNL     1      14.609 -13.860  -7.531  1.00  0.00     0.210 HD
ENDBRANCH  41  61
ENDBRANCH  35  36
ENDBRANCH  33  35
ENDBRANCH   1  31
BRANCH   1  63
HETATM   63  C15 UNL     1      21.900  -9.114  -8.760  1.00  0.00     0.080 C 
HETATM   64  C16 UNL     1      20.810  -8.157  -9.114  1.00  0.00     0.048 C 
HETATM   65  C17 UNL     1      23.062  -8.278  -8.239  1.00  0.00     0.048 C 
BRANCH  63  66
HETATM   66  O7  UNL     1      22.335  -9.863  -9.832  1.00  0.00    -0.388 OA
ATOM     67  H7  UNL     1      23.282  -9.790  -9.865  1.00  0.00     0.210 HD
ENDBRANCH  63  66
ENDBRANCH   1  63
TORSDOF 16
ENDMDL
MODEL 4
REMARK VINA RESULT: -7.000579809      2.975      7.810
REMARK  16 active torsions:
REMARK  status: ('A' for Active; 'I' for Inactive)
REMARK    1  A    between atoms: O1_2  and  N1_3 
REMARK    2  A    between atoms: C2_5  and  C3_6 
REMARK    3  A    between atoms: C2_5  and  C18_48 
REMARK       I    between atoms: C3_6  and  N2_8 
REMARK    4  A    between atoms: N2_8  and  C4_10 
REMARK    5  A    between atoms: C4_10  and  C5_11 
REMARK    6  A    between atoms: C4_10  and  C15_43 
REMARK       I    between atoms: C5_11  and  N3_13 
REMARK    7  A    between atoms: N3_13  and  C6_15 
REMARK    8  A    between atoms: C6_15  and  C7_16 
REMARK    9  A    between atoms: C8_19  and  N5_20 
REMARK   10  A    between atoms: C11_30  and  N9_31 
REMARK   11  A    between atoms: C13_37  and  O5_38 
REMARK   12  A    between atoms: C14_40  and  O6_41 
REMARK   13  A    between atoms: C15_43  and  O7_46 
REMARK   14  A    between atoms: C19_51  and  N12_52 
REMARK   15  A    between atoms: C21_58  and  C22_59 
REMARK       I    between atoms: C22_59  and  N14_61 
REMARK   16  A    between atoms: N15_63  and  N16_65 
ROOT
HETATM    1  C4  UNL     1      17.022 -14.955 -10.591  1.00  0.00     0.210 C 
ENDROOT
BRANCH   1   2
HETATM    2  N2  UNL     1      17.063 -13.712  -9.773  1.00  0.00    -0.339 N 
HETATM    3  C3  UNL     1      17.580 -13.690  -8.495  1.00  0.00     0.273 C 
HETATM    4  O2  UNL     1      18.000 -14.836  -8.060  1.00  0.00    -0.266 OA
ATOM      5  H2  UNL     1      16.697 -12.847 -10.171  1.00  0.00     0.163 HD
BRANCH   3   6
HETATM    6  C2  UNL     1      17.702 -12.579  -7.595  1.00  0.00     0.150 C 
HETATM    7  N1  UNL     1      16.611 -12.174  -6.944  1.00  0.00    -0.260 N 
ATOM      8  H1  UNL     1      16.671 -11.385  -6.299  1.00  0.00     0.194 HD
BRANCH   7   9
HETATM    9  O1  UNL     1      15.425 -12.796  -7.129  1.00  0.00    -0.285 OA
HETATM   10  C1  UNL     1      14.693 -13.484  -6.160  1.00  0.00     0.237 C 
ENDBRANCH   7   9
BRANCH   6  11
HETATM   11  C18 UNL     1      18.885 -11.790  -7.304  1.00  0.00     0.100 A 
HETATM   12  N11 UNL     1      19.143 -10.733  -8.135  1.00  0.00    -0.189 N 
HETATM   13  C19 UNL     1      20.351 -10.131  -8.100  1.00  0.00     0.676 A 
ATOM     14  H11 UNL     1      18.425 -10.401  -8.779  1.00  0.00     0.184 HD
HETATM   15  N13 UNL     1      21.330 -10.523  -7.279  1.00  0.00    -0.201 N 
HETATM   16  C20 UNL     1      21.151 -11.542  -6.441  1.00  0.00     0.125 A 
ATOM     17  H13 UNL     1      22.226 -10.036  -7.295  1.00  0.00     0.183 HD
HETATM   18  C21 UNL     1      19.893 -12.184  -6.459  1.00  0.00     0.079 A 
BRANCH  13  19
HETATM   19  N12 UNL     1      20.566  -9.125  -8.902  1.00  0.00    -0.234 N 
ATOM     20 2H12 UNL     1      19.864  -8.387  -8.966  1.00  0.00     0.174 HD
ATOM     21 1H12 UNL     1      21.433  -9.110  -9.440  1.00  0.00     0.174 HD
ENDBRANCH  13  19
BRANCH  18  22
HETATM   22  C22 UNL     1      19.729 -13.118  -5.367  1.00  0.00     0.274 C 
HETATM   23  O8  UNL     1      18.805 -13.096  -4.555  1.00  0.00    -0.266 OA
HETATM   24  N14 UNL     1      20.684 -14.186  -5.159  1.00  0.00    -0.252 N 
HETATM   25  N15 UNL     1      21.314 -14.090  -4.052  1.00  0.00    -0.246 N 
ATOM     26  H14 UNL     1      20.838 -14.940  -5.829  1.00  0.00     0.191 HD
ATOM     27  H15 UNL     1      22.004 -14.810  -3.837  1.00  0.00     0.207 HD
BRANCH  25  28
HETATM   28  N16 UNL     1      21.127 -13.076  -3.117  1.00  0.00    -0.331 N 
ATOM     29 2H16 UNL     1      21.965 -12.726  -2.653  1.00  0.00     0.178 HD
ATOM     30 1H16 UNL     1      20.225 -12.669  -2.871  1.00  0.00     0.178 HD
ENDBRANCH  25  28
ENDBRANCH  18  22
ENDBRANCH   6  11
ENDBRANCH   3   6
ENDBRANCH   1   2
BRANCH   1  31
HETATM   31  C5  UNL     1      18.379 -15.109 -11.169  1.00  0.00     0.243 C 
HETATM   32  O3  UNL     1      18.799 -16.314 -11.367  1.00  0.00    -0.271 OA
HETATM   33  N3  UNL     1      19.259 -14.091 -11.527  1.00  0.00    -0.354 N 
ATOM     34  H3  UNL     1      18.978 -13.120 -11.398  1.00  0.00     0.162 HD
BRANCH  33  35
HETATM   35  C6  UNL     1      20.562 -14.383 -12.077  1.00  0.00     0.177 C 
BRANCH  35  36
HETATM   36  C7  UNL     1      21.617 -13.499 -11.505  1.00  0.00     0.033 C 
HETATM   37  N4  UNL     1      22.497 -13.783 -10.640  1.00  0.00    -0.368 N 
HETATM   38  C8  UNL     1      23.320 -12.678 -10.353  1.00  0.00     0.240 C 
ATOM     39  H4  UNL     1      22.596 -14.700 -10.204  1.00  0.00     0.161 HD
HETATM   40  C13 UNL     1      22.466 -11.488 -10.704  1.00  0.00     0.196 C 
HETATM   41  C14 UNL     1      21.743 -12.058 -11.936  1.00  0.00     0.197 C 
BRANCH  38  42
HETATM   42  N5  UNL     1      23.824 -12.626  -9.008  1.00  0.00    -0.233 N 
HETATM   43  N6  UNL     1      23.703 -13.616  -8.135  1.00  0.00    -0.236 N 
HETATM   44  N7  UNL     1      24.259 -13.280  -6.998  1.00  0.00    -0.278 N 
ATOM     45  H6  UNL     1      23.245 -14.508  -8.321  1.00  0.00     0.208 HD
HETATM   46  C9  UNL     1      24.760 -12.029  -7.129  1.00  0.00     0.164 A 
ATOM     47  H7  UNL     1      24.307 -13.860  -6.160  1.00  0.00     0.189 HD
HETATM   48  C10 UNL     1      25.431 -11.185  -6.292  1.00  0.00     0.291 A 
HETATM   49  C12 UNL     1      24.473 -11.637  -8.410  1.00  0.00     0.175 A 
HETATM   50  O4  UNL     1      25.677 -11.588  -5.115  1.00  0.00    -0.265 OA
HETATM   51  N8  UNL     1      25.804  -9.974  -6.734  1.00  0.00    -0.154 N 
HETATM   52  C11 UNL     1      25.511  -9.612  -7.995  1.00  0.00     0.680 A 
ATOM     53  H8  UNL     1      26.306  -9.334  -6.119  1.00  0.00     0.187 HD
HETATM   54  N10 UNL     1      24.852 -10.426  -8.834  1.00  0.00    -0.173 N 
ATOM     55  H10 UNL     1      24.642 -10.124  -9.786  1.00  0.00     0.186 HD
BRANCH  52  56
HETATM   56  N9  UNL     1      25.865  -8.436  -8.446  1.00  0.00    -0.234 N 
ATOM     57  H92 UNL     1      25.298  -7.634  -8.170  1.00  0.00     0.174 HD
ATOM     58  H91 UNL     1      26.681  -8.339  -9.051  1.00  0.00     0.174 HD
ENDBRANCH  52  56
ENDBRANCH  38  42
BRANCH  40  59
HETATM   59  O5  UNL     1      23.226 -10.373 -11.042  1.00  0.00    -0.389 OA
ATOM     60  H5  UNL     1      22.876  -9.913 -11.797  1.00  0.00     0.210 HD
ENDBRANCH  40  59
BRANCH  41  61
HETATM   61  O6  UNL     1      22.626 -12.044 -12.996  1.00  0.00    -0.387 OA
ATOM     62  H6  UNL     1      23.455 -11.736 -12.650  1.00  0.00     0.210 HD
ENDBRANCH  41  61
ENDBRANCH  35  36
ENDBRANCH  33  35
ENDBRANCH   1  31
BRANCH   1  63
HETATM   63  C15 UNL     1      16.055 -14.734 -11.734  1.00  0.00     0.080 C 
HETATM   64  C16 UNL     1      15.076 -15.861 -11.797  1.00  0.00     0.048 C 
HETATM   65  C17 UNL     1      15.244 -13.464 -11.519  1.00  0.00     0.048 C 
BRANCH  63  66
HETATM   66  O7  UNL     1      16.800 -14.598 -12.885  1.00  0.00    -0.388 OA
ATOM     67  H7  UNL     1      16.306 -14.995 -13.593  1.00  0.00     0.210 HD
ENDBRANCH  63  66
ENDBRANCH   1  63
TORSDOF 16
ENDMDL
MODEL 5
REMARK VINA RESULT: -6.936873317      3.121      7.827
REMARK  16 active torsions:
REMARK  status: ('A' for Active; 'I' for Inactive)
REMARK    1  A    between atoms: O1_2  and  N1_3 
REMARK    2  A    between atoms: C2_5  and  C3_6 
REMARK    3  A    between atoms: C2_5  and  C18_48 
REMARK       I    between atoms: C3_6  and  N2_8 
REMARK    4  A    between atoms: N2_8  and  C4_10 
REMARK    5  A    between atoms: C4_10  and  C5_11 
REMARK    6  A    between atoms: C4_10  and  C15_43 
REMARK       I    between atoms: C5_11  and  N3_13 
REMARK    7  A    between atoms: N3_13  and  C6_15 
REMARK    8  A    between atoms: C6_15  and  C7_16 
REMARK    9  A    between atoms: C8_19  and  N5_20 
REMARK   10  A    between atoms: C11_30  and  N9_31 
REMARK   11  A    between atoms: C13_37  and  O5_38 
REMARK   12  A    between atoms: C14_40  and  O6_41 
REMARK   13  A    between atoms: C15_43  and  O7_46 
REMARK   14  A    between atoms: C19_51  and  N12_52 
REMARK   15  A    between atoms: C21_58  and  C22_59 
REMARK       I    between atoms: C22_59  and  N14_61 
REMARK   16  A    between atoms: N15_63  and  N16_65 
ROOT
HETATM    1  C4  UNL     1      17.814 -14.760 -11.073  1.00  0.00     0.210 C 
ENDROOT
BRANCH   1   2
HETATM    2  N2  UNL     1      17.749 -13.569 -10.181  1.00  0.00    -0.339 N 
HETATM    3  C3  UNL     1      18.073 -13.635  -8.842  1.00  0.00     0.273 C 
HETATM    4  O2  UNL     1      18.410 -14.814  -8.424  1.00  0.00    -0.266 OA
ATOM      5  H2  UNL     1      17.456 -12.675 -10.574  1.00  0.00     0.163 HD
BRANCH   3   6
HETATM    6  C2  UNL     1      18.074 -12.584  -7.866  1.00  0.00     0.150 C 
HETATM    7  N1  UNL     1      16.933 -12.311  -7.233  1.00  0.00    -0.260 N 
ATOM      8  H1  UNL     1      16.907 -11.568  -6.535  1.00  0.00     0.194 HD
BRANCH   7   9
HETATM    9  O1  UNL     1      15.808 -13.011  -7.505  1.00  0.00    -0.285 OA
HETATM   10  C1  UNL     1      14.830 -13.393  -6.585  1.00  0.00     0.237 C 
ENDBRANCH   7   9
BRANCH   6  11
HETATM   11  C18 UNL     1      19.179 -11.726  -7.478  1.00  0.00     0.100 A 
HETATM   12  N11 UNL     1      19.454 -10.663  -8.296  1.00  0.00    -0.189 N 
HETATM   13  C19 UNL     1      20.617  -9.993  -8.157  1.00  0.00     0.676 A 
ATOM     14  H11 UNL     1      18.781 -10.377  -9.008  1.00  0.00     0.184 HD
HETATM   15  N13 UNL     1      21.536 -10.322  -7.244  1.00  0.00    -0.201 N 
HETATM   16  C20 UNL     1      21.337 -11.343  -6.413  1.00  0.00     0.125 A 
ATOM     17  H13 UNL     1      22.401  -9.784  -7.183  1.00  0.00     0.183 HD
HETATM   18  C21 UNL     1      20.124 -12.055  -6.538  1.00  0.00     0.079 A 
BRANCH  13  19
HETATM   19  N12 UNL     1      20.849  -8.982  -8.949  1.00  0.00    -0.234 N 
ATOM     20 2H12 UNL     1      21.391  -9.137  -9.799  1.00  0.00     0.174 HD
ATOM     21 1H12 UNL     1      20.479  -8.068  -8.689  1.00  0.00     0.174 HD
ENDBRANCH  13  19
BRANCH  18  22
HETATM   22  C22 UNL     1      19.912 -12.989  -5.454  1.00  0.00     0.274 C 
HETATM   23  O8  UNL     1      18.964 -12.952  -4.669  1.00  0.00    -0.266 OA
HETATM   24  N14 UNL     1      20.842 -14.073  -5.220  1.00  0.00    -0.252 N 
HETATM   25  N15 UNL     1      21.440 -13.989  -4.094  1.00  0.00    -0.246 N 
ATOM     26  H14 UNL     1      21.004 -14.828  -5.887  1.00  0.00     0.191 HD
ATOM     27  H15 UNL     1      22.112 -14.721  -3.860  1.00  0.00     0.207 HD
BRANCH  25  28
HETATM   28  N16 UNL     1      21.242 -12.974  -3.163  1.00  0.00    -0.331 N 
ATOM     29 2H16 UNL     1      20.627 -12.211  -3.445  1.00  0.00     0.178 HD
ATOM     30 1H16 UNL     1      21.664 -12.944  -2.234  1.00  0.00     0.178 HD
ENDBRANCH  25  28
ENDBRANCH  18  22
ENDBRANCH   6  11
ENDBRANCH   3   6
ENDBRANCH   1   2
BRANCH   1  31
HETATM   31  C5  UNL     1      19.020 -14.574 -11.916  1.00  0.00     0.243 C 
HETATM   32  O3  UNL     1      19.397 -15.581 -12.631  1.00  0.00    -0.271 OA
HETATM   33  N3  UNL     1      19.799 -13.425 -12.025  1.00  0.00    -0.354 N 
ATOM     34  H3  UNL     1      19.545 -12.597 -11.487  1.00  0.00     0.162 HD
BRANCH  33  35
HETATM   35  C6  UNL     1      20.959 -13.381 -12.884  1.00  0.00     0.177 C 
BRANCH  35  36
HETATM   36  C7  UNL     1      22.228 -13.342 -12.104  1.00  0.00     0.033 C 
HETATM   37  N4  UNL     1      22.400 -12.984 -10.901  1.00  0.00    -0.368 N 
HETATM   38  C8  UNL     1      23.750 -13.087 -10.517  1.00  0.00     0.240 C 
ATOM     39  H4  UNL     1      21.652 -12.661 -10.287  1.00  0.00     0.161 HD
HETATM   40  C13 UNL     1      24.506 -12.982 -11.815  1.00  0.00     0.196 C 
HETATM   41  C14 UNL     1      23.538 -13.754 -12.728  1.00  0.00     0.197 C 
BRANCH  38  42
HETATM   42  N5  UNL     1      24.181 -12.123  -9.541  1.00  0.00    -0.233 N 
HETATM   43  N6  UNL     1      24.357 -10.835  -9.801  1.00  0.00    -0.236 N 
HETATM   44  N7  UNL     1      24.748 -10.210  -8.719  1.00  0.00    -0.278 N 
ATOM     45  H6  UNL     1      24.208 -10.396 -10.709  1.00  0.00     0.208 HD
HETATM   46  C9  UNL     1      24.833 -11.117  -7.717  1.00  0.00     0.164 A 
ATOM     47  H7  UNL     1      24.953  -9.213  -8.644  1.00  0.00     0.189 HD
HETATM   48  C10 UNL     1      25.182 -11.042  -6.400  1.00  0.00     0.291 A 
HETATM   49  C12 UNL     1      24.468 -12.320  -8.261  1.00  0.00     0.175 A 
HETATM   50  O4  UNL     1      25.512  -9.909  -5.936  1.00  0.00    -0.265 OA
HETATM   51  N8  UNL     1      25.164 -12.154  -5.647  1.00  0.00    -0.154 N 
HETATM   52  C11 UNL     1      24.803 -13.322  -6.204  1.00  0.00     0.680 A 
ATOM     53  H8  UNL     1      25.422 -12.112  -4.661  1.00  0.00     0.187 HD
HETATM   54  N10 UNL     1      24.456 -13.419  -7.497  1.00  0.00    -0.173 N 
ATOM     55  H10 UNL     1      24.187 -14.319  -7.893  1.00  0.00     0.186 HD
BRANCH  52  56
HETATM   56  N9  UNL     1      24.778 -14.418  -5.489  1.00  0.00    -0.234 N 
ATOM     57  H92 UNL     1      24.691 -14.319  -4.477  1.00  0.00     0.174 HD
ATOM     58  H91 UNL     1      24.845 -15.331  -5.939  1.00  0.00     0.174 HD
ENDBRANCH  52  56
ENDBRANCH  38  42
BRANCH  40  59
HETATM   59  O5  UNL     1      25.746 -13.610 -11.757  1.00  0.00    -0.389 OA
ATOM     60  H5  UNL     1      26.302 -13.379 -12.492  1.00  0.00     0.210 HD
ENDBRANCH  40  59
BRANCH  41  61
HETATM   61  O6  UNL     1      23.686 -15.101 -12.468  1.00  0.00    -0.387 OA
ATOM     62  H6  UNL     1      24.486 -15.371 -12.904  1.00  0.00     0.210 HD
ENDBRANCH  41  61
ENDBRANCH  35  36
ENDBRANCH  33  35
ENDBRANCH   1  31
BRANCH   1  63
HETATM   63  C15 UNL     1      16.606 -14.732 -11.983  1.00  0.00     0.080 C 
HETATM   64  C16 UNL     1      15.897 -16.046 -11.927  1.00  0.00     0.048 C 
HETATM   65  C17 UNL     1      15.607 -13.679 -11.525  1.00  0.00     0.048 C 
BRANCH  63  66
HETATM   66  O7  UNL     1      17.048 -14.408 -13.248  1.00  0.00    -0.388 OA
ATOM     67  H7  UNL     1      16.284 -14.193 -13.770  1.00  0.00     0.210 HD
ENDBRANCH  63  66
ENDBRANCH   1  63
TORSDOF 16
ENDMDL
