MODEL 1
REMARK VINA RESULT: -7.989974650      0.000      0.000
REMARK  13 active torsions:
REMARK  status: ('A' for Active; 'I' for Inactive)
REMARK    1  A    between atoms: C2_2  and  C3_3 
REMARK    2  A    between atoms: C3_3  and  N1_4 
REMARK    3  A    between atoms: N1_4  and  C4_6 
REMARK    4  A    between atoms: C5_7  and  C6_8 
REMARK    5  A    between atoms: C6_8  and  N2_9 
REMARK    6  A    between atoms: N2_9  and  C7_11 
REMARK    7  A    between atoms: C7_11  and  C8_12 
REMARK    8  A    between atoms: C8_12  and  C9_13 
REMARK    9  A    between atoms: C9_13  and  C10_14 
REMARK   10  A    between atoms: C10_14  and  C11_15 
REMARK   11  A    between atoms: C11_15  and  N3_16 
REMARK   12  A    between atoms: C12_20  and  C13_21 
REMARK   13  A    between atoms: N5_29  and  C19_30 
ROOT
HETATM    1  C4  UNL     1     187.086 123.641  33.138  1.00  0.00     0.137 A 
HETATM    2  C5  UNL     1     186.532 122.447  32.590  1.00  0.00     0.053 A 
HETATM    3  C12 UNL     1     185.416 122.789  31.908  1.00  0.00     0.074 A 
HETATM    4  N4  UNL     1     185.299 124.165  32.046  1.00  0.00    -0.290 N 
ATOM      5  H4  UNL     1     184.551 124.729  31.643  1.00  0.00     0.187 HD
HETATM    6  N5  UNL     1     186.277 124.633  32.761  1.00  0.00    -0.239 N 
ENDROOT
BRANCH   2   7
HETATM    7  C6  UNL     1     187.107 121.128  32.852  1.00  0.00     0.100 C 
BRANCH   7   8
HETATM    8  N2  UNL     1     187.589 120.348  31.791  1.00  0.00    -0.398 N 
ATOM      9  H2  UNL     1     187.325 119.383  31.590  1.00  0.00     0.158 HD
BRANCH   8  10
HETATM   10  C7  UNL     1     188.551 121.167  31.008  1.00  0.00     0.119 C 
BRANCH  10  11
HETATM   11  C8  UNL     1     189.919 120.597  30.970  1.00  0.00     0.020 C 
BRANCH  11  12
HETATM   12  C9  UNL     1     190.869 121.700  30.525  1.00  0.00     0.003 C 
BRANCH  12  13
HETATM   13  C10 UNL     1     192.297 121.444  30.878  1.00  0.00     0.027 C 
BRANCH  13  14
HETATM   14  C11 UNL     1     193.137 122.134  29.796  1.00  0.00     0.229 C 
BRANCH  14  15
HETATM   15  N3  UNL     1     192.269 122.648  28.742  1.00  0.00    -0.079 N 
ATOM     16  H33 UNL     1     191.281 122.551  28.980  1.00  0.00     0.274 HD
ATOM     17  H32 UNL     1     192.307 123.665  28.677  1.00  0.00     0.274 HD
ATOM     18  H31 UNL     1     192.495 122.199  27.854  1.00  0.00     0.274 HD
ENDBRANCH  14  15
ENDBRANCH  13  14
ENDBRANCH  12  13
ENDBRANCH  11  12
ENDBRANCH  10  11
ENDBRANCH   8  10
ENDBRANCH   7   8
ENDBRANCH   2   7
BRANCH   1  19
HETATM   19  N1  UNL     1     188.261 123.669  33.901  1.00  0.00    -0.371 N 
ATOM     20  H1  UNL     1     188.128 123.648  34.912  1.00  0.00     0.161 HD
BRANCH  19  21
HETATM   21  C3  UNL     1     189.621 123.721  33.461  1.00  0.00     0.148 C 
BRANCH  21  22
HETATM   22  C2  UNL     1     190.466 122.693  34.183  1.00  0.00    -0.018 C 
HETATM   23  C1  UNL     1     189.946 121.595  34.678  1.00  0.00     0.008 C 
ENDBRANCH  21  22
ENDBRANCH  19  21
ENDBRANCH   1  19
BRANCH   3  24
HETATM   24  C13 UNL     1     184.394 122.066  31.179  1.00  0.00    -0.007 A 
HETATM   25  C14 UNL     1     183.748 121.017  31.830  1.00  0.00     0.014 A 
HETATM   26  C15 UNL     1     182.711 120.319  31.242  1.00  0.00     0.001 A 
HETATM   27  C16 UNL     1     182.354 120.720  29.975  1.00  0.00     0.000 A 
HETATM   28  C17 UNL     1     182.972 121.746  29.313  1.00  0.00     0.001 A 
HETATM   29  C18 UNL     1     184.003 122.420  29.936  1.00  0.00     0.014 A 
ENDBRANCH   3  24
BRANCH   6  30
HETATM   30  C19 UNL     1     186.360 126.047  33.035  1.00  0.00     0.058 A 
HETATM   31  C20 UNL     1     187.550 126.598  33.517  1.00  0.00     0.031 A 
HETATM   32  C21 UNL     1     187.619 127.946  33.743  1.00  0.00     0.002 A 
HETATM   33  C22 UNL     1     186.539 128.756  33.501  1.00  0.00     0.000 A 
HETATM   34  C23 UNL     1     185.356 128.186  33.017  1.00  0.00     0.002 A 
HETATM   35  C24 UNL     1     185.264 126.836  32.784  1.00  0.00     0.031 A 
ENDBRANCH   6  30
TORSDOF 13
ENDMDL
MODEL 2
REMARK VINA RESULT: -7.892622468      4.307      6.943
REMARK  13 active torsions:
REMARK  status: ('A' for Active; 'I' for Inactive)
REMARK    1  A    between atoms: C2_2  and  C3_3 
REMARK    2  A    between atoms: C3_3  and  N1_4 
REMARK    3  A    between atoms: N1_4  and  C4_6 
REMARK    4  A    between atoms: C5_7  and  C6_8 
REMARK    5  A    between atoms: C6_8  and  N2_9 
REMARK    6  A    between atoms: N2_9  and  C7_11 
REMARK    7  A    between atoms: C7_11  and  C8_12 
REMARK    8  A    between atoms: C8_12  and  C9_13 
REMARK    9  A    between atoms: C9_13  and  C10_14 
REMARK   10  A    between atoms: C10_14  and  C11_15 
REMARK   11  A    between atoms: C11_15  and  N3_16 
REMARK   12  A    between atoms: C12_20  and  C13_21 
REMARK   13  A    between atoms: N5_29  and  C19_30 
ROOT
HETATM    1  C4  UNL     1     183.910 128.405  29.549  1.00  0.00     0.137 A 
HETATM    2  C5  UNL     1     184.197 127.684  30.745  1.00  0.00     0.053 A 
HETATM    3  C12 UNL     1     183.793 126.407  30.560  1.00  0.00     0.074 A 
HETATM    4  N4  UNL     1     183.270 126.362  29.274  1.00  0.00    -0.290 N 
ATOM      5  H4  UNL     1     182.879 125.530  28.835  1.00  0.00     0.187 HD
HETATM    6  N5  UNL     1     183.350 127.530  28.712  1.00  0.00    -0.239 N 
ENDROOT
BRANCH   2   7
HETATM    7  C6  UNL     1     184.755 128.331  31.932  1.00  0.00     0.100 C 
BRANCH   7   8
HETATM    8  N2  UNL     1     186.145 128.435  32.088  1.00  0.00    -0.398 N 
ATOM      9  H2  UNL     1     186.744 129.140  31.657  1.00  0.00     0.158 HD
BRANCH   8  10
HETATM   10  C7  UNL     1     186.597 127.342  32.987  1.00  0.00     0.119 C 
BRANCH  10  11
HETATM   11  C8  UNL     1     187.256 126.223  32.273  1.00  0.00     0.020 C 
BRANCH  11  12
HETATM   12  C9  UNL     1     187.200 124.998  33.176  1.00  0.00     0.003 C 
BRANCH  12  13
HETATM   13  C10 UNL     1     187.559 123.724  32.486  1.00  0.00     0.027 C 
BRANCH  13  14
HETATM   14  C11 UNL     1     187.550 122.634  33.566  1.00  0.00     0.229 C 
BRANCH  14  15
HETATM   15  N3  UNL     1     188.742 122.747  34.398  1.00  0.00    -0.079 N 
ATOM     16  H33 UNL     1     189.442 122.044  34.161  1.00  0.00     0.274 HD
ATOM     17  H32 UNL     1     189.288 123.580  34.175  1.00  0.00     0.274 HD
ATOM     18  H31 UNL     1     188.484 122.712  35.385  1.00  0.00     0.274 HD
ENDBRANCH  14  15
ENDBRANCH  13  14
ENDBRANCH  12  13
ENDBRANCH  11  12
ENDBRANCH  10  11
ENDBRANCH   8  10
ENDBRANCH   7   8
ENDBRANCH   2   7
BRANCH   1  19
HETATM   19  N1  UNL     1     184.207 129.764  29.376  1.00  0.00    -0.371 N 
ATOM     20  H1  UNL     1     183.603 130.412  29.881  1.00  0.00     0.161 HD
BRANCH  19  21
HETATM   21  C3  UNL     1     185.239 130.370  28.592  1.00  0.00     0.148 C 
BRANCH  21  22
HETATM   22  C2  UNL     1     186.416 129.434  28.424  1.00  0.00    -0.018 C 
HETATM   23  C1  UNL     1     186.988 129.245  27.259  1.00  0.00     0.008 C 
ENDBRANCH  21  22
ENDBRANCH  19  21
ENDBRANCH   1  19
BRANCH   3  24
HETATM   24  C13 UNL     1     183.757 125.211  31.376  1.00  0.00    -0.007 A 
HETATM   25  C14 UNL     1     184.040 123.994  30.760  1.00  0.00     0.014 A 
HETATM   26  C15 UNL     1     184.101 122.811  31.470  1.00  0.00     0.001 A 
HETATM   27  C16 UNL     1     183.866 122.905  32.823  1.00  0.00     0.000 A 
HETATM   28  C17 UNL     1     183.585 124.088  33.453  1.00  0.00     0.001 A 
HETATM   29  C18 UNL     1     183.534 125.248  32.707  1.00  0.00     0.014 A 
ENDBRANCH   3  24
BRANCH   6  30
HETATM   30  C19 UNL     1     182.866 127.719  27.366  1.00  0.00     0.058 A 
HETATM   31  C20 UNL     1     183.761 127.722  26.294  1.00  0.00     0.031 A 
HETATM   32  C21 UNL     1     183.279 127.873  25.022  1.00  0.00     0.002 A 
HETATM   33  C22 UNL     1     181.935 128.021  24.791  1.00  0.00     0.000 A 
HETATM   34  C23 UNL     1     181.054 128.014  25.879  1.00  0.00     0.002 A 
HETATM   35  C24 UNL     1     181.515 127.865  27.163  1.00  0.00     0.031 A 
ENDBRANCH   6  30
TORSDOF 13
ENDMDL
MODEL 3
REMARK VINA RESULT: -7.690163234      2.049      5.912
REMARK  13 active torsions:
REMARK  status: ('A' for Active; 'I' for Inactive)
REMARK    1  A    between atoms: C2_2  and  C3_3 
REMARK    2  A    between atoms: C3_3  and  N1_4 
REMARK    3  A    between atoms: N1_4  and  C4_6 
REMARK    4  A    between atoms: C5_7  and  C6_8 
REMARK    5  A    between atoms: C6_8  and  N2_9 
REMARK    6  A    between atoms: N2_9  and  C7_11 
REMARK    7  A    between atoms: C7_11  and  C8_12 
REMARK    8  A    between atoms: C8_12  and  C9_13 
REMARK    9  A    between atoms: C9_13  and  C10_14 
REMARK   10  A    between atoms: C10_14  and  C11_15 
REMARK   11  A    between atoms: C11_15  and  N3_16 
REMARK   12  A    between atoms: C12_20  and  C13_21 
REMARK   13  A    between atoms: N5_29  and  C19_30 
ROOT
HETATM    1  C4  UNL     1     187.114 123.232  32.712  1.00  0.00     0.137 A 
HETATM    2  C5  UNL     1     185.700 123.048  32.662  1.00  0.00     0.053 A 
HETATM    3  C12 UNL     1     185.446 122.077  31.757  1.00  0.00     0.074 A 
HETATM    4  N4  UNL     1     186.686 121.685  31.269  1.00  0.00    -0.290 N 
ATOM      5  H4  UNL     1     186.832 120.963  30.564  1.00  0.00     0.187 HD
HETATM    6  N5  UNL     1     187.633 122.368  31.838  1.00  0.00    -0.239 N 
ENDROOT
BRANCH   2   7
HETATM    7  C6  UNL     1     184.778 123.878  33.436  1.00  0.00     0.100 C 
BRANCH   7   8
HETATM    8  N2  UNL     1     183.670 124.468  32.809  1.00  0.00    -0.398 N 
ATOM      9  H2  UNL     1     182.793 124.000  32.581  1.00  0.00     0.158 HD
BRANCH   8  10
HETATM   10  C7  UNL     1     183.992 125.893  32.535  1.00  0.00     0.119 C 
BRANCH  10  11
HETATM   11  C8  UNL     1     183.343 126.422  31.312  1.00  0.00     0.020 C 
BRANCH  11  12
HETATM   12  C9  UNL     1     183.542 125.398  30.202  1.00  0.00     0.003 C 
BRANCH  12  13
HETATM   13  C10 UNL     1     183.456 125.976  28.828  1.00  0.00     0.027 C 
BRANCH  13  14
HETATM   14  C11 UNL     1     183.089 127.455  29.008  1.00  0.00     0.229 C 
BRANCH  14  15
HETATM   15  N3  UNL     1     182.225 127.891  27.916  1.00  0.00    -0.079 N 
ATOM     16  H33 UNL     1     182.759 128.137  27.082  1.00  0.00     0.274 HD
ATOM     17  H32 UNL     1     181.684 127.120  27.525  1.00  0.00     0.274 HD
ATOM     18  H31 UNL     1     181.629 128.658  28.228  1.00  0.00     0.274 HD
ENDBRANCH  14  15
ENDBRANCH  13  14
ENDBRANCH  12  13
ENDBRANCH  11  12
ENDBRANCH  10  11
ENDBRANCH   8  10
ENDBRANCH   7   8
ENDBRANCH   2   7
BRANCH   1  19
HETATM   19  N1  UNL     1     187.742 124.157  33.557  1.00  0.00    -0.371 N 
ATOM     20  H1  UNL     1     187.735 123.920  34.549  1.00  0.00     0.161 HD
BRANCH  19  21
HETATM   21  C3  UNL     1     188.394 125.386  33.224  1.00  0.00     0.148 C 
BRANCH  21  22
HETATM   22  C2  UNL     1     187.414 126.540  33.231  1.00  0.00    -0.018 C 
HETATM   23  C1  UNL     1     187.607 127.605  33.973  1.00  0.00     0.008 C 
ENDBRANCH  21  22
ENDBRANCH  19  21
ENDBRANCH   1  19
BRANCH   3  24
HETATM   24  C13 UNL     1     184.252 121.464  31.214  1.00  0.00    -0.007 A 
HETATM   25  C14 UNL     1     183.585 120.527  32.001  1.00  0.00     0.014 A 
HETATM   26  C15 UNL     1     182.400 119.944  31.600  1.00  0.00     0.001 A 
HETATM   27  C16 UNL     1     181.914 120.343  30.375  1.00  0.00     0.000 A 
HETATM   28  C17 UNL     1     182.548 121.260  29.582  1.00  0.00     0.001 A 
HETATM   29  C18 UNL     1     183.731 121.820  30.020  1.00  0.00     0.014 A 
ENDBRANCH   3  24
BRANCH   6  30
HETATM   30  C19 UNL     1     189.011 122.127  31.485  1.00  0.00     0.058 A 
HETATM   31  C20 UNL     1     189.580 120.871  31.707  1.00  0.00     0.031 A 
HETATM   32  C21 UNL     1     190.880 120.653  31.338  1.00  0.00     0.002 A 
HETATM   33  C22 UNL     1     191.623 121.648  30.757  1.00  0.00     0.000 A 
HETATM   34  C23 UNL     1     191.034 122.900  30.543  1.00  0.00     0.002 A 
HETATM   35  C24 UNL     1     189.733 123.141  30.905  1.00  0.00     0.031 A 
ENDBRANCH   6  30
TORSDOF 13
ENDMDL
MODEL 4
REMARK VINA RESULT: -7.683340444      2.361      6.885
REMARK  13 active torsions:
REMARK  status: ('A' for Active; 'I' for Inactive)
REMARK    1  A    between atoms: C2_2  and  C3_3 
REMARK    2  A    between atoms: C3_3  and  N1_4 
REMARK    3  A    between atoms: N1_4  and  C4_6 
REMARK    4  A    between atoms: C5_7  and  C6_8 
REMARK    5  A    between atoms: C6_8  and  N2_9 
REMARK    6  A    between atoms: N2_9  and  C7_11 
REMARK    7  A    between atoms: C7_11  and  C8_12 
REMARK    8  A    between atoms: C8_12  and  C9_13 
REMARK    9  A    between atoms: C9_13  and  C10_14 
REMARK   10  A    between atoms: C10_14  and  C11_15 
REMARK   11  A    between atoms: C11_15  and  N3_16 
REMARK   12  A    between atoms: C12_20  and  C13_21 
REMARK   13  A    between atoms: N5_29  and  C19_30 
ROOT
HETATM    1  C4  UNL     1     188.570 123.533  32.513  1.00  0.00     0.137 A 
HETATM    2  C5  UNL     1     187.494 124.312  33.034  1.00  0.00     0.053 A 
HETATM    3  C12 UNL     1     187.881 125.607  33.016  1.00  0.00     0.074 A 
HETATM    4  N4  UNL     1     189.168 125.607  32.496  1.00  0.00    -0.290 N 
ATOM      5  H4  UNL     1     189.739 126.440  32.356  1.00  0.00     0.187 HD
HETATM    6  N5  UNL     1     189.542 124.396  32.213  1.00  0.00    -0.239 N 
ENDROOT
BRANCH   2   7
HETATM    7  C6  UNL     1     186.267 123.704  33.545  1.00  0.00     0.100 C 
BRANCH   7   8
HETATM    8  N2  UNL     1     185.196 123.445  32.677  1.00  0.00    -0.398 N 
ATOM      9  H2  UNL     1     185.250 122.927  31.799  1.00  0.00     0.158 HD
BRANCH   8  10
HETATM   10  C7  UNL     1     183.969 124.055  33.252  1.00  0.00     0.119 C 
BRANCH  10  11
HETATM   11  C8  UNL     1     183.441 125.188  32.455  1.00  0.00     0.020 C 
BRANCH  11  12
HETATM   12  C9  UNL     1     183.839 124.960  31.003  1.00  0.00     0.003 C 
BRANCH  12  13
HETATM   13  C10 UNL     1     183.475 126.086  30.095  1.00  0.00     0.027 C 
BRANCH  13  14
HETATM   14  C11 UNL     1     182.999 127.230  31.001  1.00  0.00     0.229 C 
BRANCH  14  15
HETATM   15  N3  UNL     1     182.891 128.464  30.231  1.00  0.00    -0.079 N 
ATOM     16  H33 UNL     1     183.636 129.123  30.458  1.00  0.00     0.274 HD
ATOM     17  H32 UNL     1     183.113 128.321  29.246  1.00  0.00     0.274 HD
ATOM     18  H31 UNL     1     181.966 128.875  30.359  1.00  0.00     0.274 HD
ENDBRANCH  14  15
ENDBRANCH  13  14
ENDBRANCH  12  13
ENDBRANCH  11  12
ENDBRANCH  10  11
ENDBRANCH   8  10
ENDBRANCH   7   8
ENDBRANCH   2   7
BRANCH   1  19
HETATM   19  N1  UNL     1     188.516 122.141  32.372  1.00  0.00    -0.371 N 
ATOM     20  H1  UNL     1     188.669 121.607  33.227  1.00  0.00     0.161 HD
BRANCH  19  21
HETATM   21  C3  UNL     1     188.278 121.361  31.197  1.00  0.00     0.148 C 
BRANCH  21  22
HETATM   22  C2  UNL     1     189.577 120.880  30.589  1.00  0.00    -0.018 C 
HETATM   23  C1  UNL     1     190.560 120.423  31.330  1.00  0.00     0.008 C 
ENDBRANCH  21  22
ENDBRANCH  19  21
ENDBRANCH   1  19
BRANCH   3  24
HETATM   24  C13 UNL     1     187.294 126.862  33.438  1.00  0.00    -0.007 A 
HETATM   25  C14 UNL     1     188.035 127.673  34.296  1.00  0.00     0.014 A 
HETATM   26  C15 UNL     1     187.589 128.918  34.694  1.00  0.00     0.001 A 
HETATM   27  C16 UNL     1     186.369 129.312  34.193  1.00  0.00     0.000 A 
HETATM   28  C17 UNL     1     185.621 128.536  33.350  1.00  0.00     0.001 A 
HETATM   29  C18 UNL     1     186.102 127.297  32.976  1.00  0.00     0.014 A 
ENDBRANCH   3  24
BRANCH   6  30
HETATM   30  C19 UNL     1     190.851 124.155  31.656  1.00  0.00     0.058 A 
HETATM   31  C20 UNL     1     191.895 123.730  32.481  1.00  0.00     0.031 A 
HETATM   32  C21 UNL     1     193.122 123.478  31.930  1.00  0.00     0.002 A 
HETATM   33  C22 UNL     1     193.335 123.637  30.584  1.00  0.00     0.000 A 
HETATM   34  C23 UNL     1     192.276 124.063  29.774  1.00  0.00     0.002 A 
HETATM   35  C24 UNL     1     191.037 124.322  30.306  1.00  0.00     0.031 A 
ENDBRANCH   6  30
TORSDOF 13
ENDMDL
MODEL 5
REMARK VINA RESULT: -7.639604813      4.833      8.220
REMARK  13 active torsions:
REMARK  status: ('A' for Active; 'I' for Inactive)
REMARK    1  A    between atoms: C2_2  and  C3_3 
REMARK    2  A    between atoms: C3_3  and  N1_4 
REMARK    3  A    between atoms: N1_4  and  C4_6 
REMARK    4  A    between atoms: C5_7  and  C6_8 
REMARK    5  A    between atoms: C6_8  and  N2_9 
REMARK    6  A    between atoms: N2_9  and  C7_11 
REMARK    7  A    between atoms: C7_11  and  C8_12 
REMARK    8  A    between atoms: C8_12  and  C9_13 
REMARK    9  A    between atoms: C9_13  and  C10_14 
REMARK   10  A    between atoms: C10_14  and  C11_15 
REMARK   11  A    between atoms: C11_15  and  N3_16 
REMARK   12  A    between atoms: C12_20  and  C13_21 
REMARK   13  A    between atoms: N5_29  and  C19_30 
ROOT
HETATM    1  C4  UNL     1     183.835 128.292  29.571  1.00  0.00     0.137 A 
HETATM    2  C5  UNL     1     184.123 127.559  30.760  1.00  0.00     0.053 A 
HETATM    3  C12 UNL     1     183.760 126.275  30.546  1.00  0.00     0.074 A 
HETATM    4  N4  UNL     1     183.262 126.236  29.251  1.00  0.00    -0.290 N 
ATOM      5  H4  UNL     1     182.903 125.400  28.791  1.00  0.00     0.187 HD
HETATM    6  N5  UNL     1     183.316 127.415  28.710  1.00  0.00    -0.239 N 
ENDROOT
BRANCH   2   7
HETATM    7  C6  UNL     1     184.639 128.203  31.967  1.00  0.00     0.100 C 
BRANCH   7   8
HETATM    8  N2  UNL     1     186.024 128.304  32.171  1.00  0.00    -0.398 N 
ATOM      9  H2  UNL     1     186.718 127.601  31.919  1.00  0.00     0.158 HD
BRANCH   8  10
HETATM   10  C7  UNL     1     186.306 129.613  32.818  1.00  0.00     0.119 C 
BRANCH  10  11
HETATM   11  C8  UNL     1     185.796 129.709  34.206  1.00  0.00     0.020 C 
BRANCH  11  12
HETATM   12  C9  UNL     1     185.258 131.119  34.408  1.00  0.00     0.003 C 
BRANCH  12  13
HETATM   13  C10 UNL     1     185.597 131.708  35.736  1.00  0.00     0.027 C 
BRANCH  13  14
HETATM   14  C11 UNL     1     187.128 131.787  35.792  1.00  0.00     0.229 C 
BRANCH  14  15
HETATM   15  N3  UNL     1     187.620 131.104  36.984  1.00  0.00    -0.079 N 
ATOM     16  H33 UNL     1     187.227 131.498  37.839  1.00  0.00     0.274 HD
ATOM     17  H32 UNL     1     187.242 130.161  37.068  1.00  0.00     0.274 HD
ATOM     18  H31 UNL     1     188.640 131.110  36.993  1.00  0.00     0.274 HD
ENDBRANCH  14  15
ENDBRANCH  13  14
ENDBRANCH  12  13
ENDBRANCH  11  12
ENDBRANCH  10  11
ENDBRANCH   8  10
ENDBRANCH   7   8
ENDBRANCH   2   7
BRANCH   1  19
HETATM   19  N1  UNL     1     184.094 129.662  29.426  1.00  0.00    -0.371 N 
ATOM     20  H1  UNL     1     183.336 130.283  29.707  1.00  0.00     0.161 HD
BRANCH  19  21
HETATM   21  C3  UNL     1     185.273 130.311  28.941  1.00  0.00     0.148 C 
BRANCH  21  22
HETATM   22  C2  UNL     1     186.274 129.304  28.421  1.00  0.00    -0.018 C 
HETATM   23  C1  UNL     1     187.466 129.174  28.955  1.00  0.00     0.008 C 
ENDBRANCH  21  22
ENDBRANCH  19  21
ENDBRANCH   1  19
BRANCH   3  24
HETATM   24  C13 UNL     1     183.746 125.064  31.341  1.00  0.00    -0.007 A 
HETATM   25  C14 UNL     1     183.977 123.854  30.691  1.00  0.00     0.014 A 
HETATM   26  C15 UNL     1     184.054 122.658  31.375  1.00  0.00     0.001 A 
HETATM   27  C16 UNL     1     183.890 122.730  32.740  1.00  0.00     0.000 A 
HETATM   28  C17 UNL     1     183.661 123.904  33.405  1.00  0.00     0.001 A 
HETATM   29  C18 UNL     1     183.592 125.079  32.683  1.00  0.00     0.014 A 
ENDBRANCH   3  24
BRANCH   6  30
HETATM   30  C19 UNL     1     182.850 127.613  27.359  1.00  0.00     0.058 A 
HETATM   31  C20 UNL     1     181.496 127.850  27.113  1.00  0.00     0.031 A 
HETATM   32  C21 UNL     1     181.077 128.064  25.828  1.00  0.00     0.002 A 
HETATM   33  C22 UNL     1     181.969 128.049  24.786  1.00  0.00     0.000 A 
HETATM   34  C23 UNL     1     183.322 127.811  25.053  1.00  0.00     0.002 A 
HETATM   35  C24 UNL     1     183.764 127.592  26.333  1.00  0.00     0.031 A 
ENDBRANCH   6  30
TORSDOF 13
ENDMDL
