MODEL 1
REMARK VINA RESULT: -7.265033236      0.000      0.000
REMARK  11 active torsions:
REMARK  status: ('A' for Active; 'I' for Inactive)
REMARK       I    between atoms: C1_4  and  N3_6 
REMARK    1  A    between atoms: C3_8  and  C4_9 
REMARK    2  A    between atoms: C3_8  and  C15_26 
REMARK    3  A    between atoms: C4_9  and  O1_10 
REMARK    4  A    between atoms: C4_9  and  C5_12 
REMARK    5  A    between atoms: C5_12  and  C6_13 
REMARK    6  A    between atoms: N5_18  and  C9_19 
REMARK    7  A    between atoms: C9_19  and  C10_20 
REMARK    8  A    between atoms: C10_20  and  C11_21 
REMARK    9  A    between atoms: C11_21  and  C12_22 
REMARK   10  A    between atoms: C12_22  and  C13_23 
REMARK   11  A    between atoms: C13_23  and  C14_24 
ROOT
HETATM    1  C4  UNL     1      15.870 -13.371  21.259  1.00  0.00     0.161 C 
ENDROOT
BRANCH   1   2
HETATM    2  C3  UNL     1      14.784 -12.900  20.360  1.00  0.00     0.191 C 
HETATM    3  C2  UNL     1      13.433 -13.546  20.592  1.00  0.00     0.188 C 
HETATM    4  N3  UNL     1      13.113 -12.373  21.402  1.00  0.00    -0.265 N 
HETATM    5  C1  UNL     1      12.116 -12.050  22.350  1.00  0.00     0.200 C 
HETATM    6  N6  UNL     1      14.201 -11.670  20.864  1.00  0.00    -0.112 NA
HETATM    7  N1  UNL     1      11.674 -12.955  23.131  1.00  0.00    -0.373 N 
HETATM    8  N2  UNL     1      11.612 -10.735  22.433  1.00  0.00    -0.062 NA
ATOM      9  H12 UNL     1      10.955 -12.722  23.815  1.00  0.00     0.158 HD
ATOM     10  H11 UNL     1      12.038 -13.906  23.071  1.00  0.00     0.158 HD
BRANCH   2  11
HETATM   11  C15 UNL     1      15.092 -12.817  18.896  1.00  0.00     0.415 C 
HETATM   12  F1  UNL     1      14.149 -11.963  18.320  1.00  0.00    -0.168 F 
HETATM   13  F2  UNL     1      16.324 -12.304  18.624  1.00  0.00    -0.168 F 
HETATM   14  F3  UNL     1      14.881 -14.058  18.279  1.00  0.00    -0.168 F 
ENDBRANCH   2  11
ENDBRANCH   1   2
BRANCH   1  15
HETATM   15  O1  UNL     1      15.367 -13.557  22.531  1.00  0.00    -0.393 OA
ATOM     16  H1  UNL     1      16.075 -13.788  23.122  1.00  0.00     0.210 HD
ENDBRANCH   1  15
BRANCH   1  17
HETATM   17  C5  UNL     1      16.536 -14.642  20.796  1.00  0.00     0.092 C 
BRANCH  17  18
HETATM   18  C6  UNL     1      18.002 -14.476  21.004  1.00  0.00     0.030 A 
HETATM   19  C7  UNL     1      18.785 -13.667  20.152  1.00  0.00     0.114 A 
HETATM   20  N4  UNL     1      20.052 -13.679  20.560  1.00  0.00    -0.360 N 
HETATM   21  C8  UNL     1      20.091 -14.463  21.629  1.00  0.00     0.183 A 
ATOM     22  H4  UNL     1      20.837 -13.185  20.135  1.00  0.00     0.166 HD
HETATM   23  N5  UNL     1      18.843 -14.951  21.901  1.00  0.00    -0.345 N 
BRANCH  23  24
HETATM   24  C9  UNL     1      18.574 -15.891  22.960  1.00  0.00     0.130 C 
BRANCH  24  25
HETATM   25  C10 UNL     1      17.944 -15.285  24.169  1.00  0.00     0.020 C 
BRANCH  25  26
HETATM   26  C11 UNL     1      18.760 -15.348  25.403  1.00  0.00     0.002 C 
BRANCH  26  27
HETATM   27  C12 UNL     1      19.813 -14.239  25.402  1.00  0.00     0.001 C 
BRANCH  27  28
HETATM   28  C13 UNL     1      20.538 -14.270  26.736  1.00  0.00     0.011 C 
BRANCH  28  29
HETATM   29  C14 UNL     1      21.898 -14.876  26.628  1.00  0.00     0.085 C 
HETATM   30 BR1  UNL     1      22.501 -14.741  24.807  1.00  0.00    -0.097 Br
ENDBRANCH  28  29
ENDBRANCH  27  28
ENDBRANCH  26  27
ENDBRANCH  25  26
ENDBRANCH  24  25
ENDBRANCH  23  24
ENDBRANCH  17  18
ENDBRANCH   1  17
TORSDOF 11
ENDMDL
MODEL 2
REMARK VINA RESULT: -7.232943102      1.157      1.452
REMARK  11 active torsions:
REMARK  status: ('A' for Active; 'I' for Inactive)
REMARK       I    between atoms: C1_4  and  N3_6 
REMARK    1  A    between atoms: C3_8  and  C4_9 
REMARK    2  A    between atoms: C3_8  and  C15_26 
REMARK    3  A    between atoms: C4_9  and  O1_10 
REMARK    4  A    between atoms: C4_9  and  C5_12 
REMARK    5  A    between atoms: C5_12  and  C6_13 
REMARK    6  A    between atoms: N5_18  and  C9_19 
REMARK    7  A    between atoms: C9_19  and  C10_20 
REMARK    8  A    between atoms: C10_20  and  C11_21 
REMARK    9  A    between atoms: C11_21  and  C12_22 
REMARK   10  A    between atoms: C12_22  and  C13_23 
REMARK   11  A    between atoms: C13_23  and  C14_24 
ROOT
HETATM    1  C4  UNL     1      16.697 -12.958  20.515  1.00  0.00     0.161 C 
ENDROOT
BRANCH   1   2
HETATM    2  C3  UNL     1      15.433 -12.986  19.732  1.00  0.00     0.191 C 
HETATM    3  C2  UNL     1      14.488 -14.119  20.079  1.00  0.00     0.188 C 
HETATM    4  N3  UNL     1      13.799 -13.159  20.938  1.00  0.00    -0.265 N 
HETATM    5  C1  UNL     1      12.851 -13.248  21.982  1.00  0.00     0.200 C 
HETATM    6  N6  UNL     1      14.453 -12.087  20.313  1.00  0.00    -0.112 NA
HETATM    7  N1  UNL     1      12.890 -14.238  22.784  1.00  0.00    -0.373 N 
HETATM    8  N2  UNL     1      11.868 -12.248  22.138  1.00  0.00    -0.062 NA
ATOM      9  H12 UNL     1      12.205 -14.302  23.538  1.00  0.00     0.158 HD
ATOM     10  H11 UNL     1      13.600 -14.961  22.672  1.00  0.00     0.158 HD
BRANCH   2  11
HETATM   11  C15 UNL     1      15.541 -12.816  18.247  1.00  0.00     0.415 C 
HETATM   12  F1  UNL     1      15.390 -14.080  17.672  1.00  0.00    -0.168 F 
HETATM   13  F2  UNL     1      14.580 -12.010  17.717  1.00  0.00    -0.168 F 
HETATM   14  F3  UNL     1      16.835 -12.410  17.893  1.00  0.00    -0.168 F 
ENDBRANCH   2  11
ENDBRANCH   1   2
BRANCH   1  15
HETATM   15  O1  UNL     1      16.871 -11.704  21.065  1.00  0.00    -0.393 OA
ATOM     16  H1  UNL     1      17.590 -11.726  21.685  1.00  0.00     0.210 HD
ENDBRANCH   1  15
BRANCH   1  17
HETATM   17  C5  UNL     1      16.758 -13.994  21.610  1.00  0.00     0.092 C 
BRANCH  17  18
HETATM   18  C6  UNL     1      18.189 -14.376  21.779  1.00  0.00     0.030 A 
HETATM   19  C7  UNL     1      19.169 -14.016  20.828  1.00  0.00     0.114 A 
HETATM   20  N4  UNL     1      20.360 -14.467  21.218  1.00  0.00    -0.360 N 
HETATM   21  C8  UNL     1      20.160 -15.092  22.371  1.00  0.00     0.183 A 
ATOM     22  H4  UNL     1      21.247 -14.354  20.729  1.00  0.00     0.166 HD
HETATM   23  N5  UNL     1      18.838 -15.041  22.713  1.00  0.00    -0.345 N 
BRANCH  23  24
HETATM   24  C9  UNL     1      18.295 -15.693  23.877  1.00  0.00     0.130 C 
BRANCH  24  25
HETATM   25  C10 UNL     1      18.524 -14.958  25.155  1.00  0.00     0.020 C 
BRANCH  25  26
HETATM   26  C11 UNL     1      19.493 -15.588  26.080  1.00  0.00     0.002 C 
BRANCH  26  27
HETATM   27  C12 UNL     1      20.271 -14.517  26.847  1.00  0.00     0.001 C 
BRANCH  27  28
HETATM   28  C13 UNL     1      21.384 -14.005  25.950  1.00  0.00     0.011 C 
BRANCH  28  29
HETATM   29  C14 UNL     1      22.239 -15.110  25.422  1.00  0.00     0.085 C 
HETATM   30 BR1  UNL     1      23.605 -14.360  24.296  1.00  0.00    -0.097 Br
ENDBRANCH  28  29
ENDBRANCH  27  28
ENDBRANCH  26  27
ENDBRANCH  25  26
ENDBRANCH  24  25
ENDBRANCH  23  24
ENDBRANCH  17  18
ENDBRANCH   1  17
TORSDOF 11
ENDMDL
MODEL 3
REMARK VINA RESULT: -7.232805767      2.844      4.047
REMARK  11 active torsions:
REMARK  status: ('A' for Active; 'I' for Inactive)
REMARK       I    between atoms: C1_4  and  N3_6 
REMARK    1  A    between atoms: C3_8  and  C4_9 
REMARK    2  A    between atoms: C3_8  and  C15_26 
REMARK    3  A    between atoms: C4_9  and  O1_10 
REMARK    4  A    between atoms: C4_9  and  C5_12 
REMARK    5  A    between atoms: C5_12  and  C6_13 
REMARK    6  A    between atoms: N5_18  and  C9_19 
REMARK    7  A    between atoms: C9_19  and  C10_20 
REMARK    8  A    between atoms: C10_20  and  C11_21 
REMARK    9  A    between atoms: C11_21  and  C12_22 
REMARK   10  A    between atoms: C12_22  and  C13_23 
REMARK   11  A    between atoms: C13_23  and  C14_24 
ROOT
HETATM    1  C4  UNL     1      14.445 -14.210  21.736  1.00  0.00     0.161 C 
ENDROOT
BRANCH   1   2
HETATM    2  C3  UNL     1      13.737 -13.010  21.216  1.00  0.00     0.191 C 
HETATM    3  C2  UNL     1      12.225 -13.066  21.313  1.00  0.00     0.188 C 
HETATM    4  N3  UNL     1      12.367 -12.304  22.551  1.00  0.00    -0.265 N 
HETATM    5  C1  UNL     1      11.527 -12.007  23.648  1.00  0.00     0.200 C 
HETATM    6  N6  UNL     1      13.690 -11.969  22.226  1.00  0.00    -0.112 NA
HETATM    7  N1  UNL     1      10.682 -12.874  24.046  1.00  0.00    -0.373 N 
HETATM    8  N2  UNL     1      11.621 -10.759  24.299  1.00  0.00    -0.062 NA
ATOM      9  H12 UNL     1      10.076 -12.660  24.838  1.00  0.00     0.158 HD
ATOM     10  H11 UNL     1      10.613 -13.776  23.575  1.00  0.00     0.158 HD
BRANCH   2  11
HETATM   11  C15 UNL     1      14.168 -12.481  19.883  1.00  0.00     0.415 C 
HETATM   12  F1  UNL     1      14.128 -13.546  18.980  1.00  0.00    -0.168 F 
HETATM   13  F2  UNL     1      13.356 -11.503  19.394  1.00  0.00    -0.168 F 
HETATM   14  F3  UNL     1      15.513 -12.090  19.922  1.00  0.00    -0.168 F 
ENDBRANCH   2  11
ENDBRANCH   1   2
BRANCH   1  15
HETATM   15  O1  UNL     1      15.172 -13.867  22.858  1.00  0.00    -0.393 OA
ATOM     16  H1  UNL     1      14.613 -13.403  23.469  1.00  0.00     0.210 HD
ENDBRANCH   1  15
BRANCH   1  17
HETATM   17  C5  UNL     1      13.530 -15.362  22.069  1.00  0.00     0.092 C 
BRANCH  17  18
HETATM   18  C6  UNL     1      13.674 -16.372  20.982  1.00  0.00     0.030 A 
HETATM   19  C7  UNL     1      12.731 -16.474  19.936  1.00  0.00     0.114 A 
HETATM   20  N4  UNL     1      13.096 -17.441  19.096  1.00  0.00    -0.360 N 
HETATM   21  C8  UNL     1      14.225 -17.944  19.577  1.00  0.00     0.183 A 
ATOM     22  H4  UNL     1      12.605 -17.736  18.253  1.00  0.00     0.166 HD
HETATM   23  N5  UNL     1      14.578 -17.296  20.727  1.00  0.00    -0.345 N 
BRANCH  23  24
HETATM   24  C9  UNL     1      15.720 -17.663  21.525  1.00  0.00     0.130 C 
BRANCH  24  25
HETATM   25  C10 UNL     1      16.916 -16.794  21.320  1.00  0.00     0.020 C 
BRANCH  25  26
HETATM   26  C11 UNL     1      17.643 -16.420  22.555  1.00  0.00     0.002 C 
BRANCH  26  27
HETATM   27  C12 UNL     1      18.458 -15.145  22.327  1.00  0.00     0.001 C 
BRANCH  27  28
HETATM   28  C13 UNL     1      18.046 -14.552  20.991  1.00  0.00     0.011 C 
BRANCH  28  29
HETATM   29  C14 UNL     1      18.557 -13.160  20.808  1.00  0.00     0.085 C 
HETATM   30 BR1  UNL     1      20.224 -13.226  19.852  1.00  0.00    -0.097 Br
ENDBRANCH  28  29
ENDBRANCH  27  28
ENDBRANCH  26  27
ENDBRANCH  25  26
ENDBRANCH  24  25
ENDBRANCH  23  24
ENDBRANCH  17  18
ENDBRANCH   1  17
TORSDOF 11
ENDMDL
MODEL 4
REMARK VINA RESULT: -7.195506203      1.389      1.839
REMARK  11 active torsions:
REMARK  status: ('A' for Active; 'I' for Inactive)
REMARK       I    between atoms: C1_4  and  N3_6 
REMARK    1  A    between atoms: C3_8  and  C4_9 
REMARK    2  A    between atoms: C3_8  and  C15_26 
REMARK    3  A    between atoms: C4_9  and  O1_10 
REMARK    4  A    between atoms: C4_9  and  C5_12 
REMARK    5  A    between atoms: C5_12  and  C6_13 
REMARK    6  A    between atoms: N5_18  and  C9_19 
REMARK    7  A    between atoms: C9_19  and  C10_20 
REMARK    8  A    between atoms: C10_20  and  C11_21 
REMARK    9  A    between atoms: C11_21  and  C12_22 
REMARK   10  A    between atoms: C12_22  and  C13_23 
REMARK   11  A    between atoms: C13_23  and  C14_24 
ROOT
HETATM    1  C4  UNL     1      16.164 -13.001  20.805  1.00  0.00     0.161 C 
ENDROOT
BRANCH   1   2
HETATM    2  C3  UNL     1      14.925 -12.858  19.996  1.00  0.00     0.191 C 
HETATM    3  C2  UNL     1      13.692 -13.508  20.591  1.00  0.00     0.188 C 
HETATM    4  N3  UNL     1      13.362 -12.186  21.118  1.00  0.00    -0.265 N 
HETATM    5  C1  UNL     1      12.471 -11.690  22.097  1.00  0.00     0.200 C 
HETATM    6  N6  UNL     1      14.289 -11.580  20.257  1.00  0.00    -0.112 NA
HETATM    7  N1  UNL     1      12.234 -12.383  23.140  1.00  0.00    -0.373 N 
HETATM    8  N2  UNL     1      11.848 -10.436  21.922  1.00  0.00    -0.062 NA
ATOM      9  H12 UNL     1      11.591 -12.025  23.846  1.00  0.00     0.158 HD
ATOM     10  H11 UNL     1      12.684 -13.290  23.266  1.00  0.00     0.158 HD
BRANCH   2  11
HETATM   11  C15 UNL     1      15.026 -13.146  18.529  1.00  0.00     0.415 C 
HETATM   12  F1  UNL     1      16.384 -13.184  18.204  1.00  0.00    -0.168 F 
HETATM   13  F2  UNL     1      14.488 -14.345  18.168  1.00  0.00    -0.168 F 
HETATM   14  F3  UNL     1      14.504 -12.080  17.783  1.00  0.00    -0.168 F 
ENDBRANCH   2  11
ENDBRANCH   1   2
BRANCH   1  15
HETATM   15  O1  UNL     1      16.685 -11.752  21.076  1.00  0.00    -0.393 OA
ATOM     16  H1  UNL     1      17.632 -11.781  21.012  1.00  0.00     0.210 HD
ENDBRANCH   1  15
BRANCH   1  17
HETATM   17  C5  UNL     1      15.964 -13.748  22.100  1.00  0.00     0.092 C 
BRANCH  17  18
HETATM   18  C6  UNL     1      16.773 -14.997  22.021  1.00  0.00     0.030 A 
HETATM   19  C7  UNL     1      16.373 -16.090  21.221  1.00  0.00     0.114 A 
HETATM   20  N4  UNL     1      17.270 -17.069  21.318  1.00  0.00    -0.360 N 
HETATM   21  C8  UNL     1      18.210 -16.631  22.145  1.00  0.00     0.183 A 
ATOM     22  H4  UNL     1      17.240 -17.975  20.851  1.00  0.00     0.166 HD
HETATM   23  N5  UNL     1      17.908 -15.370  22.576  1.00  0.00    -0.345 N 
BRANCH  23  24
HETATM   24  C9  UNL     1      18.702 -14.652  23.541  1.00  0.00     0.130 C 
BRANCH  24  25
HETATM   25  C10 UNL     1      18.453 -15.050  24.957  1.00  0.00     0.020 C 
BRANCH  25  26
HETATM   26  C11 UNL     1      19.629 -15.590  25.677  1.00  0.00     0.002 C 
BRANCH  26  27
HETATM   27  C12 UNL     1      20.225 -14.524  26.598  1.00  0.00     0.001 C 
BRANCH  27  28
HETATM   28  C13 UNL     1      21.524 -14.036  25.981  1.00  0.00     0.011 C 
BRANCH  28  29
HETATM   29  C14 UNL     1      22.197 -15.093  25.168  1.00  0.00     0.085 C 
HETATM   30 BR1  UNL     1      23.706 -14.320  24.262  1.00  0.00    -0.097 Br
ENDBRANCH  28  29
ENDBRANCH  27  28
ENDBRANCH  26  27
ENDBRANCH  25  26
ENDBRANCH  24  25
ENDBRANCH  23  24
ENDBRANCH  17  18
ENDBRANCH   1  17
TORSDOF 11
ENDMDL
MODEL 5
REMARK VINA RESULT: -7.158399089      2.743      3.898
REMARK  11 active torsions:
REMARK  status: ('A' for Active; 'I' for Inactive)
REMARK       I    between atoms: C1_4  and  N3_6 
REMARK    1  A    between atoms: C3_8  and  C4_9 
REMARK    2  A    between atoms: C3_8  and  C15_26 
REMARK    3  A    between atoms: C4_9  and  O1_10 
REMARK    4  A    between atoms: C4_9  and  C5_12 
REMARK    5  A    between atoms: C5_12  and  C6_13 
REMARK    6  A    between atoms: N5_18  and  C9_19 
REMARK    7  A    between atoms: C9_19  and  C10_20 
REMARK    8  A    between atoms: C10_20  and  C11_21 
REMARK    9  A    between atoms: C11_21  and  C12_22 
REMARK   10  A    between atoms: C12_22  and  C13_23 
REMARK   11  A    between atoms: C13_23  and  C14_24 
ROOT
HETATM    1  C4  UNL     1      14.128 -11.832  21.206  1.00  0.00     0.161 C 
ENDROOT
BRANCH   1   2
HETATM    2  C3  UNL     1      12.980 -12.462  21.908  1.00  0.00     0.191 C 
HETATM    3  C2  UNL     1      12.196 -13.465  21.085  1.00  0.00     0.188 C 
HETATM    4  N3  UNL     1      13.007 -14.493  21.733  1.00  0.00    -0.265 N 
HETATM    5  C1  UNL     1      13.276 -15.859  21.490  1.00  0.00     0.200 C 
HETATM    6  N6  UNL     1      13.427 -13.583  22.714  1.00  0.00    -0.112 NA
HETATM    7  N1  UNL     1      13.340 -16.284  20.290  1.00  0.00    -0.373 N 
HETATM    8  N2  UNL     1      13.472 -16.748  22.568  1.00  0.00    -0.062 NA
ATOM      9  H12 UNL     1      13.534 -17.270  20.115  1.00  0.00     0.158 HD
ATOM     10  H11 UNL     1      13.198 -15.642  19.511  1.00  0.00     0.158 HD
BRANCH   2  11
HETATM   11  C15 UNL     1      12.058 -11.557  22.667  1.00  0.00     0.415 C 
HETATM   12  F1  UNL     1      10.945 -12.315  23.041  1.00  0.00    -0.168 F 
HETATM   13  F2  UNL     1      12.605 -11.049  23.807  1.00  0.00    -0.168 F 
HETATM   14  F3  UNL     1      11.550 -10.558  21.826  1.00  0.00    -0.168 F 
ENDBRANCH   2  11
ENDBRANCH   1   2
BRANCH   1  15
HETATM   15  O1  UNL     1      14.159 -10.482  21.491  1.00  0.00    -0.393 OA
ATOM     16  H1  UNL     1      15.005 -10.253  21.857  1.00  0.00     0.210 HD
ENDBRANCH   1  15
BRANCH   1  17
HETATM   17  C5  UNL     1      15.464 -12.444  21.551  1.00  0.00     0.092 C 
BRANCH  17  18
HETATM   18  C6  UNL     1      16.186 -12.683  20.270  1.00  0.00     0.030 A 
HETATM   19  C7  UNL     1      15.496 -12.836  19.048  1.00  0.00     0.114 A 
HETATM   20  N4  UNL     1      16.369 -13.025  18.060  1.00  0.00    -0.360 N 
HETATM   21  C8  UNL     1      17.573 -12.997  18.618  1.00  0.00     0.183 A 
ATOM     22  H4  UNL     1      16.156 -13.165  17.073  1.00  0.00     0.166 HD
HETATM   23  N5  UNL     1      17.464 -12.791  19.964  1.00  0.00    -0.345 N 
BRANCH  23  24
HETATM   24  C9  UNL     1      18.593 -12.783  20.859  1.00  0.00     0.130 C 
BRANCH  24  25
HETATM   25  C10 UNL     1      19.460 -13.993  20.762  1.00  0.00     0.020 C 
BRANCH  25  26
HETATM   26  C11 UNL     1      19.721 -14.687  22.044  1.00  0.00     0.002 C 
BRANCH  26  27
HETATM   27  C12 UNL     1      18.582 -14.427  23.031  1.00  0.00     0.001 C 
BRANCH  27  28
HETATM   28  C13 UNL     1      19.051 -14.837  24.415  1.00  0.00     0.011 C 
BRANCH  28  29
HETATM   29  C14 UNL     1      20.524 -14.666  24.588  1.00  0.00     0.085 C 
HETATM   30 BR1  UNL     1      20.860 -13.782  26.263  1.00  0.00    -0.097 Br
ENDBRANCH  28  29
ENDBRANCH  27  28
ENDBRANCH  26  27
ENDBRANCH  25  26
ENDBRANCH  24  25
ENDBRANCH  23  24
ENDBRANCH  17  18
ENDBRANCH   1  17
TORSDOF 11
ENDMDL
