MODEL 1
REMARK VINA RESULT: -6.155304770      0.000      0.000
REMARK  3 active torsions:
REMARK  status: ('A' for Active; 'I' for Inactive)
REMARK    1  A    between atoms: C2_2  and  C3_3 
REMARK    2  A    between atoms: C3_3  and  C4_4 
REMARK    3  A    between atoms: C4_4  and  N1_5 
ROOT
HETATM    1  N1  UNL     1      28.036   8.161  29.886  1.00  0.00    -0.170 N 
HETATM    2  C5  UNL     1      27.680   9.363  30.558  1.00  0.00     0.122 C 
HETATM    3  N2  UNL     1      28.084   9.593  31.750  1.00  0.00    -0.387 N 
ATOM      4  H21 UNL     1      27.829  10.455  32.232  1.00  0.00     0.157 HD
ATOM      5  H22 UNL     1      28.660   8.903  32.233  1.00  0.00     0.157 HD
HETATM    6  C6  UNL     1      26.855  10.350  29.867  1.00  0.00     0.344 C 
HETATM    7  N3  UNL     1      25.865   9.850  28.975  1.00  0.00     0.059 N 
HETATM    8  C7  UNL     1      25.907  10.531  27.670  1.00  0.00     0.296 C 
HETATM    9  C8  UNL     1      24.431  10.380  27.278  1.00  0.00     0.269 C 
HETATM   10  N4  UNL     1      23.805  10.860  28.494  1.00  0.00    -0.047 N 
HETATM   11  C9  UNL     1      23.937  12.311  28.518  1.00  0.00     0.274 C 
HETATM   12  C10 UNL     1      22.391  10.525  28.566  1.00  0.00     0.274 C 
HETATM   13  C11 UNL     1      24.558  10.207  29.527  1.00  0.00     0.500 C 
HETATM   14  N5  UNL     1      25.945   8.505  28.711  1.00  0.00    -0.045 N 
ATOM     15  H5  UNL     1      25.108   8.043  28.353  1.00  0.00     0.213 HD
HETATM   16  C12 UNL     1      27.128   7.691  28.902  1.00  0.00     0.700 C 
HETATM   17  N6  UNL     1      27.315   6.636  28.232  1.00  0.00    -0.233 N 
ATOM     18  H61 UNL     1      26.663   6.299  27.526  1.00  0.00     0.174 HD
ATOM     19  H62 UNL     1      28.149   6.064  28.367  1.00  0.00     0.174 HD
ENDROOT
BRANCH   1  20
HETATM   20  C4  UNL     1      29.243   7.429  30.187  1.00  0.00     0.149 C 
BRANCH  20  21
HETATM   21  C3  UNL     1      30.449   7.964  29.480  1.00  0.00     0.020 C 
BRANCH  21  22
HETATM   22  C2  UNL     1      31.121   6.860  28.658  1.00  0.00    -0.003 C 
HETATM   23  C1  UNL     1      30.723   5.481  29.105  1.00  0.00     0.005 C 
ENDBRANCH  21  22
ENDBRANCH  20  21
ENDBRANCH   1  20
TORSDOF 3
ENDMDL
MODEL 2
REMARK VINA RESULT: -5.627375310      1.826      3.149
REMARK  3 active torsions:
REMARK  status: ('A' for Active; 'I' for Inactive)
REMARK    1  A    between atoms: C2_2  and  C3_3 
REMARK    2  A    between atoms: C3_3  and  C4_4 
REMARK    3  A    between atoms: C4_4  and  N1_5 
ROOT
HETATM    1  N1  UNL     1      29.357   7.241  29.450  1.00  0.00    -0.170 N 
HETATM    2  C5  UNL     1      27.970   7.203  29.132  1.00  0.00     0.122 C 
HETATM    3  N2  UNL     1      27.484   6.251  28.428  1.00  0.00    -0.387 N 
ATOM      4  H21 UNL     1      26.491   6.224  28.200  1.00  0.00     0.157 HD
ATOM      5  H22 UNL     1      28.097   5.514  28.079  1.00  0.00     0.157 HD
HETATM    6  C6  UNL     1      27.094   8.259  29.630  1.00  0.00     0.344 C 
HETATM    7  N3  UNL     1      27.650   9.566  29.722  1.00  0.00     0.059 N 
HETATM    8  C7  UNL     1      27.385  10.186  31.032  1.00  0.00     0.296 C 
HETATM    9  C8  UNL     1      27.385  11.659  30.600  1.00  0.00     0.269 C 
HETATM   10  N4  UNL     1      26.480  11.582  29.471  1.00  0.00    -0.047 N 
HETATM   11  C9  UNL     1      25.127  11.450  29.995  1.00  0.00     0.274 C 
HETATM   12  C10 UNL     1      26.533  12.768  28.629  1.00  0.00     0.274 C 
HETATM   13  C11 UNL     1      26.931  10.414  28.769  1.00  0.00     0.500 C 
HETATM   14  N5  UNL     1      29.007   9.638  29.529  1.00  0.00    -0.045 N 
ATOM     15  H5  UNL     1      29.400  10.543  29.270  1.00  0.00     0.213 HD
HETATM   16  C12 UNL     1      29.923   8.524  29.665  1.00  0.00     0.700 C 
HETATM   17  N6  UNL     1      31.141   8.706  29.950  1.00  0.00    -0.233 N 
ATOM     18  H61 UNL     1      31.547   9.628  30.104  1.00  0.00     0.174 HD
ATOM     19  H62 UNL     1      31.785   7.921  30.046  1.00  0.00     0.174 HD
ENDROOT
BRANCH   1  20
HETATM   20  C4  UNL     1      30.168   6.051  29.534  1.00  0.00     0.149 C 
BRANCH  20  21
HETATM   21  C3  UNL     1      30.677   5.589  28.204  1.00  0.00     0.020 C 
BRANCH  21  22
HETATM   22  C2  UNL     1      32.171   5.897  28.067  1.00  0.00    -0.003 C 
HETATM   23  C1  UNL     1      33.040   4.718  28.408  1.00  0.00     0.005 C 
ENDBRANCH  21  22
ENDBRANCH  20  21
ENDBRANCH   1  20
TORSDOF 3
ENDMDL
MODEL 3
REMARK VINA RESULT: -5.496015274      0.896      1.053
REMARK  3 active torsions:
REMARK  status: ('A' for Active; 'I' for Inactive)
REMARK    1  A    between atoms: C2_2  and  C3_3 
REMARK    2  A    between atoms: C3_3  and  C4_4 
REMARK    3  A    between atoms: C4_4  and  N1_5 
ROOT
HETATM    1  N1  UNL     1      28.412   8.264  28.992  1.00  0.00    -0.170 N 
HETATM    2  C5  UNL     1      28.348   9.607  29.456  1.00  0.00     0.122 C 
HETATM    3  N2  UNL     1      29.218  10.059  30.280  1.00  0.00    -0.387 N 
ATOM      4  H21 UNL     1      29.172  11.022  30.612  1.00  0.00     0.157 HD
ATOM      5  H22 UNL     1      29.961   9.449  30.619  1.00  0.00     0.157 HD
HETATM    6  C6  UNL     1      27.283  10.480  28.971  1.00  0.00     0.344 C 
HETATM    7  N3  UNL     1      26.020   9.875  28.719  1.00  0.00     0.059 N 
HETATM    8  C7  UNL     1      25.484  10.250  27.400  1.00  0.00     0.296 C 
HETATM    9  C8  UNL     1      23.986  10.132  27.712  1.00  0.00     0.269 C 
HETATM   10  N4  UNL     1      23.928  10.911  28.932  1.00  0.00    -0.047 N 
HETATM   11  C9  UNL     1      24.022  12.318  28.565  1.00  0.00     0.274 C 
HETATM   12  C10 UNL     1      22.689  10.710  29.668  1.00  0.00     0.274 C 
HETATM   13  C11 UNL     1      25.065  10.444  29.672  1.00  0.00     0.500 C 
HETATM   14  N5  UNL     1      26.012   8.503  28.763  1.00  0.00    -0.045 N 
ATOM     15  H5  UNL     1      25.114   8.040  28.907  1.00  0.00     0.213 HD
HETATM   16  C12 UNL     1      27.183   7.662  28.620  1.00  0.00     0.700 C 
HETATM   17  N6  UNL     1      27.091   6.475  28.195  1.00  0.00    -0.233 N 
ATOM     18  H61 UNL     1      26.208   6.044  27.927  1.00  0.00     0.174 HD
ATOM     19  H62 UNL     1      27.916   5.884  28.094  1.00  0.00     0.174 HD
ENDROOT
BRANCH   1  20
HETATM   20  C4  UNL     1      29.649   7.525  28.917  1.00  0.00     0.149 C 
BRANCH  20  21
HETATM   21  C3  UNL     1      29.718   6.390  29.892  1.00  0.00     0.020 C 
BRANCH  21  22
HETATM   22  C2  UNL     1      30.621   5.276  29.353  1.00  0.00    -0.003 C 
HETATM   23  C1  UNL     1      31.695   5.792  28.436  1.00  0.00     0.005 C 
ENDBRANCH  21  22
ENDBRANCH  20  21
ENDBRANCH   1  20
TORSDOF 3
ENDMDL
MODEL 4
REMARK VINA RESULT: -5.423683597      0.993      1.602
REMARK  3 active torsions:
REMARK  status: ('A' for Active; 'I' for Inactive)
REMARK    1  A    between atoms: C2_2  and  C3_3 
REMARK    2  A    between atoms: C3_3  and  C4_4 
REMARK    3  A    between atoms: C4_4  and  N1_5 
ROOT
HETATM    1  N1  UNL     1      27.924   8.600  29.970  1.00  0.00    -0.170 N 
HETATM    2  C5  UNL     1      27.443   9.789  30.586  1.00  0.00     0.122 C 
HETATM    3  N2  UNL     1      27.789  10.096  31.779  1.00  0.00    -0.387 N 
ATOM      4  H21 UNL     1      27.445  10.948  32.221  1.00  0.00     0.157 HD
ATOM      5  H22 UNL     1      28.408   9.477  32.303  1.00  0.00     0.157 HD
HETATM    6  C6  UNL     1      26.557  10.673  29.835  1.00  0.00     0.344 C 
HETATM    7  N3  UNL     1      25.643  10.056  28.936  1.00  0.00     0.059 N 
HETATM    8  C7  UNL     1      25.665  10.692  27.607  1.00  0.00     0.296 C 
HETATM    9  C8  UNL     1      24.220  10.397  27.181  1.00  0.00     0.269 C 
HETATM   10  N4  UNL     1      23.518  10.863  28.360  1.00  0.00    -0.047 N 
HETATM   11  C9  UNL     1      23.521  12.320  28.332  1.00  0.00     0.274 C 
HETATM   12  C10 UNL     1      22.137  10.407  28.406  1.00  0.00     0.274 C 
HETATM   13  C11 UNL     1      24.292  10.317  29.438  1.00  0.00     0.500 C 
HETATM   14  N5  UNL     1      25.847   8.715  28.725  1.00  0.00    -0.045 N 
ATOM     15  H5  UNL     1      25.065   8.169  28.362  1.00  0.00     0.213 HD
HETATM   16  C12 UNL     1      27.090   8.017  28.980  1.00  0.00     0.700 C 
HETATM   17  N6  UNL     1      27.390   6.960  28.357  1.00  0.00    -0.233 N 
ATOM     18  H61 UNL     1      26.791   6.541  27.645  1.00  0.00     0.174 HD
ATOM     19  H62 UNL     1      28.265   6.468  28.536  1.00  0.00     0.174 HD
ENDROOT
BRANCH   1  20
HETATM   20  C4  UNL     1      29.179   7.989  30.332  1.00  0.00     0.149 C 
BRANCH  20  21
HETATM   21  C3  UNL     1      30.359   8.626  29.666  1.00  0.00     0.020 C 
BRANCH  21  22
HETATM   22  C2  UNL     1      31.039   9.617  30.616  1.00  0.00    -0.003 C 
HETATM   23  C1  UNL     1      30.990  11.032  30.111  1.00  0.00     0.005 C 
ENDBRANCH  21  22
ENDBRANCH  20  21
ENDBRANCH   1  20
TORSDOF 3
ENDMDL
MODEL 5
REMARK VINA RESULT: -5.378356087      3.535      6.059
REMARK  3 active torsions:
REMARK  status: ('A' for Active; 'I' for Inactive)
REMARK    1  A    between atoms: C2_2  and  C3_3 
REMARK    2  A    between atoms: C3_3  and  C4_4 
REMARK    3  A    between atoms: C4_4  and  N1_5 
ROOT
HETATM    1  N1  UNL     1      29.680   8.334  30.265  1.00  0.00    -0.170 N 
HETATM    2  C5  UNL     1      29.134   9.310  31.143  1.00  0.00     0.122 C 
HETATM    3  N2  UNL     1      27.873   9.369  31.357  1.00  0.00    -0.387 N 
ATOM      4  H21 UNL     1      27.481  10.068  31.987  1.00  0.00     0.157 HD
ATOM      5  H22 UNL     1      27.247   8.716  30.885  1.00  0.00     0.157 HD
HETATM    6  C6  UNL     1      30.029  10.245  31.818  1.00  0.00     0.344 C 
HETATM    7  N3  UNL     1      31.179  10.670  31.094  1.00  0.00     0.059 N 
HETATM    8  C7  UNL     1      32.408  10.559  31.899  1.00  0.00     0.296 C 
HETATM    9  C8  UNL     1      33.221  11.685  31.246  1.00  0.00     0.269 C 
HETATM   10  N4  UNL     1      32.240  12.751  31.291  1.00  0.00    -0.047 N 
HETATM   11  C9  UNL     1      32.166  13.228  32.666  1.00  0.00     0.274 C 
HETATM   12  C10 UNL     1      32.593  13.873  30.434  1.00  0.00     0.274 C 
HETATM   13  C11 UNL     1      31.036  12.107  30.851  1.00  0.00     0.500 C 
HETATM   14  N5  UNL     1      31.419   9.988  29.928  1.00  0.00    -0.045 N 
ATOM     15  H5  UNL     1      32.013  10.438  29.231  1.00  0.00     0.213 HD
HETATM   16  C12 UNL     1      30.892   8.676  29.612  1.00  0.00     0.700 C 
HETATM   17  N6  UNL     1      31.486   7.907  28.803  1.00  0.00    -0.233 N 
ATOM     18  H61 UNL     1      32.357   8.153  28.335  1.00  0.00     0.174 HD
ATOM     19  H62 UNL     1      31.115   6.983  28.582  1.00  0.00     0.174 HD
ENDROOT
BRANCH   1  20
HETATM   20  C4  UNL     1      29.041   7.064  30.019  1.00  0.00     0.149 C 
BRANCH  20  21
HETATM   21  C3  UNL     1      28.497   6.937  28.630  1.00  0.00     0.020 C 
BRANCH  21  22
HETATM   22  C2  UNL     1      26.987   7.194  28.621  1.00  0.00    -0.003 C 
HETATM   23  C1  UNL     1      26.645   8.637  28.376  1.00  0.00     0.005 C 
ENDBRANCH  21  22
ENDBRANCH  20  21
ENDBRANCH   1  20
TORSDOF 3
ENDMDL
