MODEL 1
REMARK VINA RESULT: -5.709677541      0.000      0.000
REMARK  4 active torsions:
REMARK  status: ('A' for Active; 'I' for Inactive)
REMARK    1  A    between atoms: C2_2  and  N1_3 
REMARK    2  A    between atoms: C9_13  and  C10_14 
REMARK    3  A    between atoms: C10_14  and  S1_15 
REMARK    4  A    between atoms: S1_15  and  C11_17 
ROOT
HETATM    1  N1  UNL     1      29.282   8.924  31.225  1.00  0.00    -0.380 N 
ATOM      2  H1  UNL     1      29.771   8.044  31.387  1.00  0.00     0.160 HD
HETATM    3  C3  UNL     1      28.204   8.878  30.554  1.00  0.00     0.078 C 
HETATM    4  N2  UNL     1      27.489  10.094  30.302  1.00  0.00    -0.371 N 
ATOM      5  H2  UNL     1      27.577  10.895  30.926  1.00  0.00     0.161 HD
HETATM    6  C4  UNL     1      26.628  10.150  29.117  1.00  0.00     0.024 C 
HETATM    7  C5  UNL     1      25.160   9.993  29.517  1.00  0.00     0.038 C 
HETATM    8  C6  UNL     1      26.737  11.504  28.430  1.00  0.00     0.038 C 
HETATM    9  C7  UNL     1      27.052   9.115  28.130  1.00  0.00     0.031 C 
HETATM   10  C8  UNL     1      27.162   7.720  28.631  1.00  0.00     0.015 C 
HETATM   11  C9  UNL     1      27.689   7.615  30.040  1.00  0.00     0.064 C 
ENDROOT
BRANCH  11  12
HETATM   12  C10 UNL     1      28.650   6.459  30.113  1.00  0.00     0.121 C 
BRANCH  12  13
HETATM   13  S1  UNL     1      29.453   6.395  28.499  1.00  0.00     0.015 S 
HETATM   14  O1  UNL     1      29.567   4.734  28.137  1.00  0.00    -0.258 OA
BRANCH  13  15
HETATM   15  C11 UNL     1      31.107   7.022  28.689  1.00  0.00     0.104 C 
HETATM   16  C12 UNL     1      32.137   6.001  28.299  1.00  0.00     0.018 C 
ENDBRANCH  13  15
ENDBRANCH  12  13
ENDBRANCH  11  12
BRANCH   1  17
HETATM   17  C2  UNL     1      29.875  10.129  31.781  1.00  0.00     0.116 C 
HETATM   18  C1  UNL     1      31.254  10.315  31.219  1.00  0.00     0.026 C 
ENDBRANCH   1  17
TORSDOF 4
ENDMDL
MODEL 2
REMARK VINA RESULT: -5.144821797      2.059      2.606
REMARK  4 active torsions:
REMARK  status: ('A' for Active; 'I' for Inactive)
REMARK    1  A    between atoms: C2_2  and  N1_3 
REMARK    2  A    between atoms: C9_13  and  C10_14 
REMARK    3  A    between atoms: C10_14  and  S1_15 
REMARK    4  A    between atoms: S1_15  and  C11_17 
ROOT
HETATM    1  N1  UNL     1      31.890  10.023  30.964  1.00  0.00    -0.380 N 
ATOM      2  H1  UNL     1      32.384   9.253  30.512  1.00  0.00     0.160 HD
HETATM    3  C3  UNL     1      30.620   9.997  30.934  1.00  0.00     0.078 C 
HETATM    4  N2  UNL     1      29.888  11.061  31.555  1.00  0.00    -0.371 N 
ATOM      5  H2  UNL     1      30.293  11.602  32.319  1.00  0.00     0.161 HD
HETATM    6  C4  UNL     1      28.539  11.347  31.058  1.00  0.00     0.024 C 
HETATM    7  C5  UNL     1      27.487  10.779  32.013  1.00  0.00     0.038 C 
HETATM    8  C6  UNL     1      28.289  12.847  30.998  1.00  0.00     0.038 C 
HETATM    9  C7  UNL     1      28.383  10.815  29.674  1.00  0.00     0.031 C 
HETATM   10  C8  UNL     1      28.724   9.383  29.467  1.00  0.00     0.015 C 
HETATM   11  C9  UNL     1      29.902   8.910  30.281  1.00  0.00     0.064 C 
ENDROOT
BRANCH  11  12
HETATM   12  C10 UNL     1      30.753   8.010  29.425  1.00  0.00     0.121 C 
BRANCH  12  13
HETATM   13  S1  UNL     1      29.671   6.658  28.919  1.00  0.00     0.015 S 
HETATM   14  O1  UNL     1      29.108   5.984  30.379  1.00  0.00    -0.258 OA
BRANCH  13  15
HETATM   15  C11 UNL     1      30.674   5.433  28.109  1.00  0.00     0.104 C 
HETATM   16  C12 UNL     1      32.130   5.598  28.441  1.00  0.00     0.018 C 
ENDBRANCH  13  15
ENDBRANCH  12  13
ENDBRANCH  11  12
BRANCH   1  17
HETATM   17  C2  UNL     1      32.695  11.058  31.590  1.00  0.00     0.116 C 
HETATM   18  C1  UNL     1      33.195  12.008  30.542  1.00  0.00     0.026 C 
ENDBRANCH   1  17
TORSDOF 4
ENDMDL
MODEL 3
REMARK VINA RESULT: -5.069118346      2.951      5.092
REMARK  4 active torsions:
REMARK  status: ('A' for Active; 'I' for Inactive)
REMARK    1  A    between atoms: C2_2  and  N1_3 
REMARK    2  A    between atoms: C9_13  and  C10_14 
REMARK    3  A    between atoms: C10_14  and  S1_15 
REMARK    4  A    between atoms: S1_15  and  C11_17 
ROOT
HETATM    1  N1  UNL     1      28.703   7.434  28.400  1.00  0.00    -0.380 N 
ATOM      2  H1  UNL     1      27.860   7.205  27.873  1.00  0.00     0.160 HD
HETATM    3  C3  UNL     1      28.621   8.373  29.252  1.00  0.00     0.078 C 
HETATM    4  N2  UNL     1      29.785   8.727  30.009  1.00  0.00    -0.371 N 
ATOM      5  H2  UNL     1      30.528   8.050  30.181  1.00  0.00     0.161 HD
HETATM    6  C4  UNL     1      29.873  10.094  30.531  1.00  0.00     0.024 C 
HETATM    7  C5  UNL     1      29.544  10.118  32.025  1.00  0.00     0.038 C 
HETATM    8  C6  UNL     1      31.290  10.635  30.402  1.00  0.00     0.038 C 
HETATM    9  C7  UNL     1      28.980  10.997  29.748  1.00  0.00     0.031 C 
HETATM   10  C8  UNL     1      27.560  10.578  29.615  1.00  0.00     0.015 C 
HETATM   11  C9  UNL     1      27.370   9.090  29.467  1.00  0.00     0.064 C 
ENDROOT
BRANCH  11  12
HETATM   12  C10 UNL     1      26.306   8.837  28.433  1.00  0.00     0.121 C 
BRANCH  12  13
HETATM   13  S1  UNL     1      25.119  10.183  28.621  1.00  0.00     0.015 S 
HETATM   14  O1  UNL     1      24.052   9.652  29.837  1.00  0.00    -0.258 OA
BRANCH  13  15
HETATM   15  C11 UNL     1      24.195  10.308  27.106  1.00  0.00     0.104 C 
HETATM   16  C12 UNL     1      24.876  11.203  26.111  1.00  0.00     0.018 C 
ENDBRANCH  13  15
ENDBRANCH  12  13
ENDBRANCH  11  12
BRANCH   1  17
HETATM   17  C2  UNL     1      29.899   6.660  28.114  1.00  0.00     0.116 C 
HETATM   18  C1  UNL     1      29.749   5.278  28.679  1.00  0.00     0.026 C 
ENDBRANCH   1  17
TORSDOF 4
ENDMDL
MODEL 4
REMARK VINA RESULT: -5.064553239      2.750      5.012
REMARK  4 active torsions:
REMARK  status: ('A' for Active; 'I' for Inactive)
REMARK    1  A    between atoms: C2_2  and  N1_3 
REMARK    2  A    between atoms: C9_13  and  C10_14 
REMARK    3  A    between atoms: C10_14  and  S1_15 
REMARK    4  A    between atoms: S1_15  and  C11_17 
ROOT
HETATM    1  N1  UNL     1      30.011   8.185  29.864  1.00  0.00    -0.380 N 
ATOM      2  H1  UNL     1      29.066   7.827  30.004  1.00  0.00     0.160 HD
HETATM    3  C3  UNL     1      30.309   9.284  30.429  1.00  0.00     0.078 C 
HETATM    4  N2  UNL     1      31.626   9.821  30.253  1.00  0.00    -0.371 N 
ATOM      5  H2  UNL     1      32.417   9.215  30.040  1.00  0.00     0.161 HD
HETATM    6  C4  UNL     1      31.798  11.270  30.391  1.00  0.00     0.024 C 
HETATM    7  C5  UNL     1      32.417  11.607  31.749  1.00  0.00     0.038 C 
HETATM    8  C6  UNL     1      32.763  11.804  29.342  1.00  0.00     0.038 C 
HETATM    9  C7  UNL     1      30.492  11.960  30.185  1.00  0.00     0.031 C 
HETATM   10  C8  UNL     1      29.350  11.489  31.012  1.00  0.00     0.015 C 
HETATM   11  C9  UNL     1      29.337   9.999  31.246  1.00  0.00     0.064 C 
ENDROOT
BRANCH  11  12
HETATM   12  C10 UNL     1      27.921   9.504  31.130  1.00  0.00     0.121 C 
BRANCH  12  13
HETATM   13  S1  UNL     1      27.143  10.545  29.879  1.00  0.00     0.015 S 
HETATM   14  O1  UNL     1      25.581  10.855  30.482  1.00  0.00    -0.258 OA
BRANCH  13  15
HETATM   15  C11 UNL     1      26.970   9.577  28.397  1.00  0.00     0.104 C 
HETATM   16  C12 UNL     1      26.761   8.122  28.705  1.00  0.00     0.018 C 
ENDBRANCH  13  15
ENDBRANCH  12  13
ENDBRANCH  11  12
BRANCH   1  17
HETATM   17  C2  UNL     1      30.907   7.397  29.035  1.00  0.00     0.116 C 
HETATM   18  C1  UNL     1      30.529   5.947  29.124  1.00  0.00     0.026 C 
ENDBRANCH   1  17
TORSDOF 4
ENDMDL
MODEL 5
REMARK VINA RESULT: -5.033907257      2.137      3.894
REMARK  4 active torsions:
REMARK  status: ('A' for Active; 'I' for Inactive)
REMARK    1  A    between atoms: C2_2  and  N1_3 
REMARK    2  A    between atoms: C9_13  and  C10_14 
REMARK    3  A    between atoms: C10_14  and  S1_15 
REMARK    4  A    between atoms: S1_15  and  C11_17 
ROOT
HETATM    1  N1  UNL     1      27.227  10.814  31.309  1.00  0.00    -0.380 N 
ATOM      2  H1  UNL     1      26.559  10.054  31.177  1.00  0.00     0.160 HD
HETATM    3  C3  UNL     1      28.373  10.682  30.778  1.00  0.00     0.078 C 
HETATM    4  N2  UNL     1      29.341  11.726  30.943  1.00  0.00    -0.371 N 
ATOM      5  H2  UNL     1      29.052  12.688  31.117  1.00  0.00     0.161 HD
HETATM    6  C4  UNL     1      30.759  11.366  30.854  1.00  0.00     0.024 C 
HETATM    7  C5  UNL     1      31.330  11.778  29.495  1.00  0.00     0.038 C 
HETATM    8  C6  UNL     1      31.575  12.113  31.899  1.00  0.00     0.038 C 
HETATM    9  C7  UNL     1      30.932   9.908  31.113  1.00  0.00     0.031 C 
HETATM   10  C8  UNL     1      30.105   8.982  30.295  1.00  0.00     0.015 C 
HETATM   11  C9  UNL     1      28.716   9.491  30.009  1.00  0.00     0.064 C 
ENDROOT
BRANCH  11  12
HETATM   12  C10 UNL     1      27.744   8.349  30.138  1.00  0.00     0.121 C 
BRANCH  12  13
HETATM   13  S1  UNL     1      27.936   7.378  28.630  1.00  0.00     0.015 S 
HETATM   14  O1  UNL     1      26.345   6.992  28.158  1.00  0.00    -0.258 OA
BRANCH  13  15
HETATM   15  C11 UNL     1      28.756   5.859  29.062  1.00  0.00     0.104 C 
HETATM   16  C12 UNL     1      30.095   5.741  28.392  1.00  0.00     0.018 C 
ENDBRANCH  13  15
ENDBRANCH  12  13
ENDBRANCH  11  12
BRANCH   1  17
HETATM   17  C2  UNL     1      26.789  11.959  32.089  1.00  0.00     0.116 C 
HETATM   18  C1  UNL     1      25.649  12.638  31.390  1.00  0.00     0.026 C 
ENDBRANCH   1  17
TORSDOF 4
ENDMDL
