MODEL 1
REMARK VINA RESULT: -10.109809860      0.000      0.000
REMARK  13 active torsions:
REMARK  status: ('A' for Active; 'I' for Inactive)
REMARK    1  A    between atoms: C5_5  and  C6_6 
REMARK       I    between atoms: C6_6  and  N1_8 
REMARK    2  A    between atoms: N2_11  and  C9_12 
REMARK    3  A    between atoms: C9_12  and  O2_13 
REMARK    4  A    between atoms: C10_15  and  N3_16 
REMARK    5  A    between atoms: C10_15  and  C28_43 
REMARK       I    between atoms: N3_16  and  C11_18 
REMARK    6  A    between atoms: C11_18  and  C12_20 
REMARK    7  A    between atoms: C12_20  and  C13_21 
REMARK    8  A    between atoms: C13_21  and  N4_22 
REMARK    9  A    between atoms: N4_22  and  C14_23 
REMARK   10  A    between atoms: C14_23  and  C15_24 
REMARK   11  A    between atoms: C15_24  and  C16_25 
REMARK   12  A    between atoms: C16_25  and  N5_26 
REMARK   13  A    between atoms: C18_31  and  C19_32 
ROOT
HETATM    1  N3  UNL     1       8.394 -17.600 -18.746  1.00  0.00    -0.323 N 
ATOM      2  H3  UNL     1       9.318 -17.216 -18.549  1.00  0.00     0.169 HD
HETATM    3  C11 UNL     1       7.270 -16.947 -18.273  1.00  0.00     0.223 C 
HETATM    4  O3  UNL     1       6.114 -17.419 -18.514  1.00  0.00    -0.273 OA
ENDROOT
BRANCH   3   5
HETATM    5  C12 UNL     1       7.336 -15.675 -17.469  1.00  0.00     0.131 C 
BRANCH   5   6
HETATM    6  C13 UNL     1       8.459 -15.790 -16.507  1.00  0.00     0.246 C 
BRANCH   6   7
HETATM    7  N4  UNL     1       8.156 -16.285 -15.209  1.00  0.00    -0.067 N 
HETATM    8  C24 UNL     1       8.683 -15.342 -14.228  1.00  0.00     0.237 C 
HETATM    9  C25 UNL     1       7.737 -14.194 -14.284  1.00  0.00     0.029 C 
HETATM   10  C26 UNL     1       6.406 -14.873 -14.499  1.00  0.00     0.029 C 
HETATM   11  C27 UNL     1       6.757 -16.283 -14.938  1.00  0.00     0.237 C 
BRANCH   7  12
HETATM   12  C14 UNL     1       8.776 -17.583 -14.943  1.00  0.00     0.239 C 
BRANCH  12  13
HETATM   13  C15 UNL     1       9.838 -17.522 -13.907  1.00  0.00     0.050 C 
BRANCH  13  14
HETATM   14  C16 UNL     1      11.172 -17.066 -14.428  1.00  0.00     0.156 C 
BRANCH  14  15
HETATM   15  N5  UNL     1      12.087 -18.098 -14.790  1.00  0.00    -0.238 N 
HETATM   16  C17 UNL     1      12.761 -18.932 -13.861  1.00  0.00     0.338 C 
HETATM   17  O4  UNL     1      12.576 -18.768 -12.629  1.00  0.00    -0.245 OA
HETATM   18  N6  UNL     1      13.658 -19.966 -14.234  1.00  0.00    -0.328 N 
HETATM   19  C18 UNL     1      13.676 -20.444 -15.597  1.00  0.00     0.183 C 
ATOM     20  H6  UNL     1      14.288 -20.371 -13.542  1.00  0.00     0.165 HD
HETATM   21  C22 UNL     1      13.257 -19.383 -16.541  1.00  0.00     0.261 C 
HETATM   22  O5  UNL     1      13.707 -19.396 -17.706  1.00  0.00    -0.269 OA
HETATM   23  N7  UNL     1      12.360 -18.352 -16.166  1.00  0.00    -0.258 N 
HETATM   24  C23 UNL     1      11.722 -17.558 -17.192  1.00  0.00     0.181 C 
BRANCH  19  25
HETATM   25  C19 UNL     1      15.095 -20.907 -15.882  1.00  0.00     0.009 C 
HETATM   26  C20 UNL     1      15.424 -22.212 -15.226  1.00  0.00     0.012 C 
HETATM   27  C21 UNL     1      16.084 -19.864 -15.417  1.00  0.00     0.012 C 
ENDBRANCH  19  25
ENDBRANCH  14  15
ENDBRANCH  13  14
ENDBRANCH  12  13
ENDBRANCH   7  12
ENDBRANCH   6   7
ENDBRANCH   5   6
ENDBRANCH   3   5
BRANCH   1  28
HETATM   28  C10 UNL     1       8.276 -18.847 -19.532  1.00  0.00     0.087 C 
HETATM   29  C9  UNL     1       9.090 -19.894 -18.990  1.00  0.00     0.166 C 
BRANCH  29  30
HETATM   30  N2  UNL     1       9.928 -20.923 -19.369  1.00  0.00    -0.357 N 
HETATM   31  C8  UNL     1      10.244 -21.105 -20.829  1.00  0.00     0.145 C 
HETATM   32  C7  UNL     1      11.675 -21.360 -21.074  1.00  0.00     0.145 C 
HETATM   33  N1  UNL     1      12.412 -21.989 -19.998  1.00  0.00    -0.349 N 
HETATM   34  C6  UNL     1      13.410 -22.913 -20.281  1.00  0.00     0.224 C 
HETATM   35  C32 UNL     1      12.064 -21.609 -18.659  1.00  0.00     0.145 C 
HETATM   36  O1  UNL     1      13.603 -23.145 -21.536  1.00  0.00    -0.273 OA
HETATM   37  C31 UNL     1      10.548 -21.911 -18.546  1.00  0.00     0.145 C 
BRANCH  34  38
HETATM   38  C5  UNL     1      14.280 -23.665 -19.352  1.00  0.00     0.078 C 
HETATM   39  C4  UNL     1      15.445 -22.939 -18.816  1.00  0.00     0.014 C 
HETATM   40  C3  UNL     1      16.730 -23.651 -18.665  1.00  0.00     0.005 C 
HETATM   41  C2  UNL     1      16.903 -24.932 -19.402  1.00  0.00    -0.019 C 
HETATM   42  C1  UNL     1      18.108 -25.669 -18.833  1.00  0.00     0.010 C 
HETATM   43  C34 UNL     1      15.657 -25.760 -19.232  1.00  0.00     0.005 C 
HETATM   44  C33 UNL     1      14.531 -25.049 -19.894  1.00  0.00     0.014 C 
ENDBRANCH  34  38
ENDBRANCH  29  30
BRANCH  29  45
HETATM   45  O2  UNL     1       9.002 -19.848 -17.630  1.00  0.00    -0.344 OA
ATOM     46  H2  UNL     1       8.801 -20.712 -17.291  1.00  0.00     0.219 HD
ENDBRANCH  29  45
BRANCH  28  47
HETATM   47  C28 UNL     1       8.108 -18.544 -20.959  1.00  0.00    -0.057 C 
HETATM   48  C29 UNL     1       8.981 -17.468 -21.540  1.00  0.00     0.045 C 
HETATM   49  C30 UNL     1       6.674 -18.506 -21.456  1.00  0.00     0.045 C 
ENDBRANCH  28  47
ENDBRANCH   1  28
TORSDOF 13
ENDMDL
MODEL 2
REMARK VINA RESULT: -10.092069385      1.736      8.885
REMARK  13 active torsions:
REMARK  status: ('A' for Active; 'I' for Inactive)
REMARK    1  A    between atoms: C5_5  and  C6_6 
REMARK       I    between atoms: C6_6  and  N1_8 
REMARK    2  A    between atoms: N2_11  and  C9_12 
REMARK    3  A    between atoms: C9_12  and  O2_13 
REMARK    4  A    between atoms: C10_15  and  N3_16 
REMARK    5  A    between atoms: C10_15  and  C28_43 
REMARK       I    between atoms: N3_16  and  C11_18 
REMARK    6  A    between atoms: C11_18  and  C12_20 
REMARK    7  A    between atoms: C12_20  and  C13_21 
REMARK    8  A    between atoms: C13_21  and  N4_22 
REMARK    9  A    between atoms: N4_22  and  C14_23 
REMARK   10  A    between atoms: C14_23  and  C15_24 
REMARK   11  A    between atoms: C15_24  and  C16_25 
REMARK   12  A    between atoms: C16_25  and  N5_26 
REMARK   13  A    between atoms: C18_31  and  C19_32 
ROOT
HETATM    1  N3  UNL     1      12.007 -20.853 -20.182  1.00  0.00    -0.323 N 
ATOM      2  H3  UNL     1      12.578 -20.198 -19.649  1.00  0.00     0.169 HD
HETATM    3  C11 UNL     1      12.621 -21.758 -21.030  1.00  0.00     0.223 C 
HETATM    4  O3  UNL     1      11.915 -22.579 -21.698  1.00  0.00    -0.273 OA
ENDROOT
BRANCH   3   5
HETATM    5  C12 UNL     1      14.113 -21.830 -21.213  1.00  0.00     0.131 C 
BRANCH   5   6
HETATM    6  C13 UNL     1      14.569 -23.177 -20.789  1.00  0.00     0.246 C 
BRANCH   6   7
HETATM    7  N4  UNL     1      15.023 -23.320 -19.449  1.00  0.00    -0.067 N 
HETATM    8  C24 UNL     1      14.191 -24.323 -18.792  1.00  0.00     0.237 C 
HETATM    9  C25 UNL     1      14.669 -25.615 -19.356  1.00  0.00     0.029 C 
HETATM   10  C26 UNL     1      16.155 -25.388 -19.491  1.00  0.00     0.029 C 
HETATM   11  C27 UNL     1      16.329 -23.885 -19.374  1.00  0.00     0.237 C 
BRANCH   7  12
HETATM   12  C14 UNL     1      14.903 -22.082 -18.680  1.00  0.00     0.239 C 
BRANCH  12  13
HETATM   13  C15 UNL     1      14.051 -22.224 -17.473  1.00  0.00     0.050 C 
BRANCH  13  14
HETATM   14  C16 UNL     1      14.399 -21.269 -16.366  1.00  0.00     0.156 C 
BRANCH  14  15
HETATM   15  N5  UNL     1      13.391 -20.323 -16.016  1.00  0.00    -0.238 N 
HETATM   16  C17 UNL     1      12.548 -20.434 -14.880  1.00  0.00     0.338 C 
HETATM   17  O4  UNL     1      12.660 -21.427 -14.117  1.00  0.00    -0.245 OA
HETATM   18  N6  UNL     1      11.559 -19.478 -14.534  1.00  0.00    -0.328 N 
HETATM   19  C18 UNL     1      11.583 -18.168 -15.142  1.00  0.00     0.183 C 
ATOM     20  H6  UNL     1      10.832 -19.715 -13.859  1.00  0.00     0.165 HD
HETATM   21  C22 UNL     1      12.203 -18.213 -16.486  1.00  0.00     0.261 C 
HETATM   22  O5  UNL     1      11.843 -17.382 -17.346  1.00  0.00    -0.269 OA
HETATM   23  N7  UNL     1      13.192 -19.168 -16.827  1.00  0.00    -0.258 N 
HETATM   24  C23 UNL     1      14.001 -18.961 -18.008  1.00  0.00     0.181 C 
BRANCH  19  25
HETATM   25  C19 UNL     1      10.142 -17.690 -15.213  1.00  0.00     0.009 C 
HETATM   26  C20 UNL     1       9.897 -16.455 -14.405  1.00  0.00     0.012 C 
HETATM   27  C21 UNL     1       9.210 -18.780 -14.737  1.00  0.00     0.012 C 
ENDBRANCH  19  25
ENDBRANCH  14  15
ENDBRANCH  13  14
ENDBRANCH  12  13
ENDBRANCH   7  12
ENDBRANCH   6   7
ENDBRANCH   5   6
ENDBRANCH   3   5
BRANCH   1  28
HETATM   28  C10 UNL     1      10.535 -20.823 -20.036  1.00  0.00     0.087 C 
HETATM   29  C9  UNL     1       9.994 -19.547 -20.400  1.00  0.00     0.166 C 
BRANCH  29  30
HETATM   30  N2  UNL     1       9.044 -18.623 -20.016  1.00  0.00    -0.357 N 
HETATM   31  C8  UNL     1       7.863 -18.377 -20.915  1.00  0.00     0.145 C 
HETATM   32  C7  UNL     1       6.588 -18.313 -20.177  1.00  0.00     0.145 C 
HETATM   33  N1  UNL     1       6.664 -17.881 -18.797  1.00  0.00    -0.349 N 
HETATM   34  C6  UNL     1       5.657 -17.092 -18.256  1.00  0.00     0.224 C 
HETATM   35  C32 UNL     1       7.804 -18.309 -18.040  1.00  0.00     0.145 C 
HETATM   36  O1  UNL     1       4.697 -16.794 -19.066  1.00  0.00    -0.273 OA
HETATM   37  C31 UNL     1       9.026 -17.802 -18.849  1.00  0.00     0.145 C 
BRANCH  34  38
HETATM   38  C5  UNL     1       5.529 -16.547 -16.887  1.00  0.00     0.078 C 
HETATM   39  C4  UNL     1       4.199 -16.037 -16.508  1.00  0.00     0.014 C 
HETATM   40  C3  UNL     1       4.103 -14.807 -15.697  1.00  0.00     0.005 C 
HETATM   41  C2  UNL     1       5.305 -13.933 -15.619  1.00  0.00    -0.019 C 
HETATM   42  C1  UNL     1       5.126 -12.950 -14.470  1.00  0.00     0.010 C 
HETATM   43  C34 UNL     1       6.516 -14.795 -15.384  1.00  0.00     0.005 C 
HETATM   44  C33 UNL     1       6.710 -15.662 -16.577  1.00  0.00     0.014 C 
ENDBRANCH  34  38
ENDBRANCH  29  30
BRANCH  29  45
HETATM   45  O2  UNL     1      10.653 -19.100 -21.507  1.00  0.00    -0.344 OA
ATOM     46  H2  UNL     1      11.504 -19.517 -21.565  1.00  0.00     0.219 HD
ENDBRANCH  29  45
BRANCH  28  47
HETATM   47  C28 UNL     1      10.113 -21.639 -18.890  1.00  0.00    -0.057 C 
HETATM   48  C29 UNL     1      10.071 -20.966 -17.547  1.00  0.00     0.045 C 
HETATM   49  C30 UNL     1      10.666 -23.052 -18.853  1.00  0.00     0.045 C 
ENDBRANCH  28  47
ENDBRANCH   1  28
TORSDOF 13
ENDMDL
MODEL 3
REMARK VINA RESULT: -10.016380590      2.623      8.697
REMARK  13 active torsions:
REMARK  status: ('A' for Active; 'I' for Inactive)
REMARK    1  A    between atoms: C5_5  and  C6_6 
REMARK       I    between atoms: C6_6  and  N1_8 
REMARK    2  A    between atoms: N2_11  and  C9_12 
REMARK    3  A    between atoms: C9_12  and  O2_13 
REMARK    4  A    between atoms: C10_15  and  N3_16 
REMARK    5  A    between atoms: C10_15  and  C28_43 
REMARK       I    between atoms: N3_16  and  C11_18 
REMARK    6  A    between atoms: C11_18  and  C12_20 
REMARK    7  A    between atoms: C12_20  and  C13_21 
REMARK    8  A    between atoms: C13_21  and  N4_22 
REMARK    9  A    between atoms: N4_22  and  C14_23 
REMARK   10  A    between atoms: C14_23  and  C15_24 
REMARK   11  A    between atoms: C15_24  and  C16_25 
REMARK   12  A    between atoms: C16_25  and  N5_26 
REMARK   13  A    between atoms: C18_31  and  C19_32 
ROOT
HETATM    1  N3  UNL     1      12.439 -20.365 -18.932  1.00  0.00    -0.323 N 
ATOM      2  H3  UNL     1      12.310 -20.052 -17.971  1.00  0.00     0.169 HD
HETATM    3  C11 UNL     1      13.666 -20.870 -19.324  1.00  0.00     0.223 C 
HETATM    4  O3  UNL     1      13.837 -21.263 -20.522  1.00  0.00    -0.273 OA
ENDROOT
BRANCH   3   5
HETATM    5  C12 UNL     1      14.844 -20.984 -18.392  1.00  0.00     0.131 C 
BRANCH   5   6
HETATM    6  C13 UNL     1      14.526 -22.005 -17.364  1.00  0.00     0.246 C 
BRANCH   6   7
HETATM    7  N4  UNL     1      14.292 -21.545 -16.039  1.00  0.00    -0.067 N 
HETATM    8  C24 UNL     1      14.933 -22.475 -15.115  1.00  0.00     0.237 C 
HETATM    9  C25 UNL     1      16.383 -22.163 -15.235  1.00  0.00     0.029 C 
HETATM   10  C26 UNL     1      16.387 -20.663 -15.408  1.00  0.00     0.029 C 
HETATM   11  C27 UNL     1      14.955 -20.312 -15.766  1.00  0.00     0.237 C 
BRANCH   7  12
HETATM   12  C14 UNL     1      12.870 -21.503 -15.701  1.00  0.00     0.239 C 
BRANCH  12  13
HETATM   13  C15 UNL     1      12.329 -20.123 -15.620  1.00  0.00     0.050 C 
BRANCH  13  14
HETATM   14  C16 UNL     1      11.433 -19.889 -14.437  1.00  0.00     0.156 C 
BRANCH  14  15
HETATM   15  N5  UNL     1      10.333 -19.006 -14.651  1.00  0.00    -0.238 N 
HETATM   16  C17 UNL     1       9.105 -19.388 -15.252  1.00  0.00     0.338 C 
HETATM   17  O4  UNL     1       8.947 -20.570 -15.648  1.00  0.00    -0.245 OA
HETATM   18  N6  UNL     1       8.013 -18.504 -15.445  1.00  0.00    -0.328 N 
HETATM   19  C18 UNL     1       7.972 -17.246 -14.736  1.00  0.00     0.183 C 
ATOM     20  H6  UNL     1       7.258 -18.755 -16.084  1.00  0.00     0.165 HD
HETATM   21  C22 UNL     1       9.337 -16.760 -14.430  1.00  0.00     0.261 C 
HETATM   22  O5  UNL     1       9.536 -15.530 -14.340  1.00  0.00    -0.269 OA
HETATM   23  N7  UNL     1      10.426 -17.646 -14.236  1.00  0.00    -0.258 N 
HETATM   24  C23 UNL     1      11.636 -17.157 -13.612  1.00  0.00     0.181 C 
BRANCH  19  25
HETATM   25  C19 UNL     1       7.222 -16.266 -15.622  1.00  0.00     0.009 C 
HETATM   26  C20 UNL     1       6.712 -15.075 -14.872  1.00  0.00     0.012 C 
HETATM   27  C21 UNL     1       6.057 -16.958 -16.291  1.00  0.00     0.012 C 
ENDBRANCH  19  25
ENDBRANCH  14  15
ENDBRANCH  13  14
ENDBRANCH  12  13
ENDBRANCH   7  12
ENDBRANCH   6   7
ENDBRANCH   5   6
ENDBRANCH   3   5
BRANCH   1  28
HETATM   28  C10 UNL     1      11.313 -20.275 -19.887  1.00  0.00     0.087 C 
HETATM   29  C9  UNL     1      10.620 -19.026 -19.771  1.00  0.00     0.166 C 
BRANCH  29  30
HETATM   30  N2  UNL     1       9.350 -18.486 -19.775  1.00  0.00    -0.357 N 
HETATM   31  C8  UNL     1       8.841 -17.831 -21.030  1.00  0.00     0.145 C 
HETATM   32  C7  UNL     1       7.454 -18.216 -21.351  1.00  0.00     0.145 C 
HETATM   33  N1  UNL     1       6.616 -18.596 -20.233  1.00  0.00    -0.349 N 
HETATM   34  C6  UNL     1       5.269 -18.256 -20.224  1.00  0.00     0.224 C 
HETATM   35  C32 UNL     1       7.238 -19.328 -19.169  1.00  0.00     0.145 C 
HETATM   36  O1  UNL     1       4.861 -17.598 -21.257  1.00  0.00    -0.273 OA
HETATM   37  C31 UNL     1       8.409 -18.425 -18.703  1.00  0.00     0.145 C 
BRANCH  34  38
HETATM   38  C5  UNL     1       4.239 -18.540 -19.201  1.00  0.00     0.078 C 
HETATM   39  C4  UNL     1       3.500 -19.806 -19.352  1.00  0.00     0.014 C 
HETATM   40  C3  UNL     1       2.052 -19.834 -19.064  1.00  0.00     0.005 C 
HETATM   41  C2  UNL     1       1.332 -18.534 -19.009  1.00  0.00    -0.019 C 
HETATM   42  C1  UNL     1      -0.024 -18.749 -18.348  1.00  0.00     0.010 C 
HETATM   43  C34 UNL     1       2.153 -17.559 -18.207  1.00  0.00     0.005 C 
HETATM   44  C33 UNL     1       3.419 -17.301 -18.943  1.00  0.00     0.014 C 
ENDBRANCH  34  38
ENDBRANCH  29  30
BRANCH  29  45
HETATM   45  O2  UNL     1      11.542 -18.037 -19.595  1.00  0.00    -0.344 OA
ATOM     46  H2  UNL     1      12.416 -18.410 -19.587  1.00  0.00     0.219 HD
ENDBRANCH  29  45
BRANCH  28  47
HETATM   47  C28 UNL     1      10.685 -21.590 -20.072  1.00  0.00    -0.057 C 
HETATM   48  C29 UNL     1      10.781 -22.562 -18.930  1.00  0.00     0.045 C 
HETATM   49  C30 UNL     1      10.883 -22.224 -21.437  1.00  0.00     0.045 C 
ENDBRANCH  28  47
ENDBRANCH   1  28
TORSDOF 13
ENDMDL
MODEL 4
REMARK VINA RESULT: -9.732029692      2.912     10.120
REMARK  13 active torsions:
REMARK  status: ('A' for Active; 'I' for Inactive)
REMARK    1  A    between atoms: C5_5  and  C6_6 
REMARK       I    between atoms: C6_6  and  N1_8 
REMARK    2  A    between atoms: N2_11  and  C9_12 
REMARK    3  A    between atoms: C9_12  and  O2_13 
REMARK    4  A    between atoms: C10_15  and  N3_16 
REMARK    5  A    between atoms: C10_15  and  C28_43 
REMARK       I    between atoms: N3_16  and  C11_18 
REMARK    6  A    between atoms: C11_18  and  C12_20 
REMARK    7  A    between atoms: C12_20  and  C13_21 
REMARK    8  A    between atoms: C13_21  and  N4_22 
REMARK    9  A    between atoms: N4_22  and  C14_23 
REMARK   10  A    between atoms: C14_23  and  C15_24 
REMARK   11  A    between atoms: C15_24  and  C16_25 
REMARK   12  A    between atoms: C16_25  and  N5_26 
REMARK   13  A    between atoms: C18_31  and  C19_32 
ROOT
HETATM    1  N3  UNL     1      11.972 -20.236 -15.807  1.00  0.00    -0.323 N 
ATOM      2  H3  UNL     1      11.837 -19.872 -16.749  1.00  0.00     0.169 HD
HETATM    3  C11 UNL     1      12.754 -21.362 -15.618  1.00  0.00     0.223 C 
HETATM    4  O3  UNL     1      12.928 -21.823 -14.446  1.00  0.00    -0.273 OA
ENDROOT
BRANCH   3   5
HETATM    5  C12 UNL     1      13.430 -22.092 -16.749  1.00  0.00     0.131 C 
BRANCH   5   6
HETATM    6  C13 UNL     1      12.872 -21.588 -18.027  1.00  0.00     0.246 C 
BRANCH   6   7
HETATM    7  N4  UNL     1      12.587 -22.548 -19.037  1.00  0.00    -0.067 N 
HETATM    8  C24 UNL     1      11.206 -22.989 -18.870  1.00  0.00     0.237 C 
HETATM    9  C25 UNL     1      10.398 -21.846 -19.378  1.00  0.00     0.029 C 
HETATM   10  C26 UNL     1      11.222 -21.347 -20.540  1.00  0.00     0.029 C 
HETATM   11  C27 UNL     1      12.588 -21.980 -20.344  1.00  0.00     0.237 C 
BRANCH   7  12
HETATM   12  C14 UNL     1      13.438 -23.734 -18.941  1.00  0.00     0.239 C 
BRANCH  12  13
HETATM   13  C15 UNL     1      14.398 -23.857 -20.068  1.00  0.00     0.050 C 
BRANCH  13  14
HETATM   14  C16 UNL     1      15.790 -23.402 -19.733  1.00  0.00     0.156 C 
BRANCH  14  15
HETATM   15  N5  UNL     1      16.667 -24.403 -19.220  1.00  0.00    -0.238 N 
HETATM   16  C17 UNL     1      17.145 -25.510 -19.968  1.00  0.00     0.338 C 
HETATM   17  O4  UNL     1      16.779 -25.659 -21.161  1.00  0.00    -0.245 OA
HETATM   18  N6  UNL     1      18.029 -26.490 -19.450  1.00  0.00    -0.328 N 
HETATM   19  C18 UNL     1      18.756 -26.229 -18.229  1.00  0.00     0.183 C 
ATOM     20  H6  UNL     1      18.152 -27.377 -19.938  1.00  0.00     0.165 HD
HETATM   21  C22 UNL     1      18.012 -25.295 -17.354  1.00  0.00     0.261 C 
HETATM   22  O5  UNL     1      18.166 -25.371 -16.117  1.00  0.00    -0.269 OA
HETATM   23  N7  UNL     1      17.130 -24.315 -17.874  1.00  0.00    -0.258 N 
HETATM   24  C23 UNL     1      16.702 -23.223 -17.028  1.00  0.00     0.181 C 
BRANCH  19  25
HETATM   25  C19 UNL     1      18.970 -27.571 -17.549  1.00  0.00     0.009 C 
HETATM   26  C20 UNL     1      20.115 -27.560 -16.585  1.00  0.00     0.012 C 
HETATM   27  C21 UNL     1      19.213 -28.644 -18.585  1.00  0.00     0.012 C 
ENDBRANCH  19  25
ENDBRANCH  14  15
ENDBRANCH  13  14
ENDBRANCH  12  13
ENDBRANCH   7  12
ENDBRANCH   6   7
ENDBRANCH   5   6
ENDBRANCH   3   5
BRANCH   1  28
HETATM   28  C10 UNL     1      11.330 -19.554 -14.662  1.00  0.00     0.087 C 
HETATM   29  C9  UNL     1       9.975 -19.190 -14.955  1.00  0.00     0.166 C 
BRANCH  29  30
HETATM   30  N2  UNL     1       9.065 -18.169 -14.780  1.00  0.00    -0.357 N 
HETATM   31  C8  UNL     1       9.560 -16.823 -14.325  1.00  0.00     0.145 C 
HETATM   32  C7  UNL     1       8.957 -15.708 -15.080  1.00  0.00     0.145 C 
HETATM   33  N1  UNL     1       7.643 -15.946 -15.639  1.00  0.00    -0.349 N 
HETATM   34  C6  UNL     1       6.705 -14.922 -15.676  1.00  0.00     0.224 C 
HETATM   35  C32 UNL     1       7.375 -17.261 -16.144  1.00  0.00     0.145 C 
HETATM   36  O1  UNL     1       7.101 -13.796 -15.185  1.00  0.00    -0.273 OA
HETATM   37  C31 UNL     1       7.647 -18.205 -14.944  1.00  0.00     0.145 C 
BRANCH  34  38
HETATM   38  C5  UNL     1       5.322 -14.939 -16.199  1.00  0.00     0.078 C 
HETATM   39  C4  UNL     1       4.538 -13.705 -16.012  1.00  0.00     0.014 C 
HETATM   40  C3  UNL     1       3.108 -13.807 -15.656  1.00  0.00     0.005 C 
HETATM   41  C2  UNL     1       2.616 -15.109 -15.131  1.00  0.00    -0.019 C 
HETATM   42  C1  UNL     1       1.093 -15.118 -15.181  1.00  0.00     0.010 C 
HETATM   43  C34 UNL     1       3.172 -16.217 -15.987  1.00  0.00     0.005 C 
HETATM   44  C33 UNL     1       4.649 -16.235 -15.823  1.00  0.00     0.014 C 
ENDBRANCH  34  38
ENDBRANCH  29  30
BRANCH  29  45
HETATM   45  O2  UNL     1       9.395 -20.212 -15.648  1.00  0.00    -0.344 OA
ATOM     46  H2  UNL     1       9.345 -20.985 -15.098  1.00  0.00     0.219 HD
ENDBRANCH  29  45
BRANCH  28  47
HETATM   47  C28 UNL     1      12.304 -18.724 -13.943  1.00  0.00    -0.057 C 
HETATM   48  C29 UNL     1      12.054 -18.484 -12.480  1.00  0.00     0.045 C 
HETATM   49  C30 UNL     1      12.800 -17.500 -14.690  1.00  0.00     0.045 C 
ENDBRANCH  28  47
ENDBRANCH   1  28
TORSDOF 13
ENDMDL
MODEL 5
REMARK VINA RESULT: -9.698841828      1.412      2.186
REMARK  13 active torsions:
REMARK  status: ('A' for Active; 'I' for Inactive)
REMARK    1  A    between atoms: C5_5  and  C6_6 
REMARK       I    between atoms: C6_6  and  N1_8 
REMARK    2  A    between atoms: N2_11  and  C9_12 
REMARK    3  A    between atoms: C9_12  and  O2_13 
REMARK    4  A    between atoms: C10_15  and  N3_16 
REMARK    5  A    between atoms: C10_15  and  C28_43 
REMARK       I    between atoms: N3_16  and  C11_18 
REMARK    6  A    between atoms: C11_18  and  C12_20 
REMARK    7  A    between atoms: C12_20  and  C13_21 
REMARK    8  A    between atoms: C13_21  and  N4_22 
REMARK    9  A    between atoms: N4_22  and  C14_23 
REMARK   10  A    between atoms: C14_23  and  C15_24 
REMARK   11  A    between atoms: C15_24  and  C16_25 
REMARK   12  A    between atoms: C16_25  and  N5_26 
REMARK   13  A    between atoms: C18_31  and  C19_32 
ROOT
HETATM    1  N3  UNL     1       6.709 -17.886 -18.766  1.00  0.00    -0.323 N 
ATOM      2  H3  UNL     1       5.892 -18.188 -18.236  1.00  0.00     0.169 HD
HETATM    3  C11 UNL     1       7.231 -16.623 -18.553  1.00  0.00     0.223 C 
HETATM    4  O3  UNL     1       8.249 -16.238 -19.211  1.00  0.00    -0.273 OA
ENDROOT
BRANCH   3   5
HETATM    5  C12 UNL     1       6.649 -15.650 -17.562  1.00  0.00     0.131 C 
BRANCH   5   6
HETATM    6  C13 UNL     1       7.590 -15.529 -16.422  1.00  0.00     0.246 C 
BRANCH   6   7
HETATM    7  N4  UNL     1       7.111 -15.906 -15.137  1.00  0.00    -0.067 N 
HETATM    8  C24 UNL     1       7.957 -15.271 -14.131  1.00  0.00     0.237 C 
HETATM    9  C25 UNL     1       7.532 -13.845 -14.148  1.00  0.00     0.029 C 
HETATM   10  C26 UNL     1       6.043 -13.945 -14.376  1.00  0.00     0.029 C 
HETATM   11  C27 UNL     1       5.821 -15.366 -14.859  1.00  0.00     0.237 C 
BRANCH   7  12
HETATM   12  C14 UNL     1       7.175 -17.349 -14.914  1.00  0.00     0.239 C 
BRANCH  12  13
HETATM   13  C15 UNL     1       8.431 -17.963 -15.415  1.00  0.00     0.050 C 
BRANCH  13  14
HETATM   14  C16 UNL     1       8.965 -19.060 -14.537  1.00  0.00     0.156 C 
BRANCH  14  15
HETATM   15  N5  UNL     1      10.320 -19.440 -14.766  1.00  0.00    -0.238 N 
HETATM   16  C17 UNL     1      10.717 -20.550 -15.556  1.00  0.00     0.338 C 
HETATM   17  O4  UNL     1       9.844 -21.278 -16.091  1.00  0.00    -0.245 OA
HETATM   18  N6  UNL     1      12.070 -20.909 -15.789  1.00  0.00    -0.328 N 
HETATM   19  C18 UNL     1      13.123 -19.962 -15.505  1.00  0.00     0.183 C 
ATOM     20  H6  UNL     1      12.298 -21.833 -16.156  1.00  0.00     0.165 HD
HETATM   21  C22 UNL     1      12.728 -19.031 -14.424  1.00  0.00     0.261 C 
HETATM   22  O5  UNL     1      13.614 -18.543 -13.691  1.00  0.00    -0.269 OA
HETATM   23  N7  UNL     1      11.376 -18.673 -14.194  1.00  0.00    -0.258 N 
HETATM   24  C23 UNL     1      11.076 -17.521 -13.374  1.00  0.00     0.181 C 
BRANCH  19  25
HETATM   25  C19 UNL     1      14.349 -20.772 -15.117  1.00  0.00     0.009 C 
HETATM   26  C20 UNL     1      15.576 -20.373 -15.876  1.00  0.00     0.012 C 
HETATM   27  C21 UNL     1      14.091 -22.243 -15.342  1.00  0.00     0.012 C 
ENDBRANCH  19  25
ENDBRANCH  14  15
ENDBRANCH  13  14
ENDBRANCH  12  13
ENDBRANCH   7  12
ENDBRANCH   6   7
ENDBRANCH   5   6
ENDBRANCH   3   5
BRANCH   1  28
HETATM   28  C10 UNL     1       7.318 -18.805 -19.753  1.00  0.00     0.087 C 
HETATM   29  C9  UNL     1       8.492 -19.439 -19.230  1.00  0.00     0.166 C 
BRANCH  29  30
HETATM   30  N2  UNL     1       9.768 -19.821 -19.589  1.00  0.00    -0.357 N 
HETATM   31  C8  UNL     1      10.888 -18.824 -19.469  1.00  0.00     0.145 C 
HETATM   32  C7  UNL     1      12.103 -19.401 -18.864  1.00  0.00     0.145 C 
HETATM   33  N1  UNL     1      12.297 -20.824 -19.042  1.00  0.00    -0.349 N 
HETATM   34  C6  UNL     1      13.575 -21.337 -19.230  1.00  0.00     0.224 C 
HETATM   35  C32 UNL     1      11.127 -21.653 -19.008  1.00  0.00     0.145 C 
HETATM   36  O1  UNL     1      14.523 -20.461 -19.233  1.00  0.00    -0.273 OA
HETATM   37  C31 UNL     1      10.205 -21.076 -20.112  1.00  0.00     0.145 C 
BRANCH  34  38
HETATM   38  C5  UNL     1      14.001 -22.739 -19.425  1.00  0.00     0.078 C 
HETATM   39  C4  UNL     1      15.259 -23.137 -18.770  1.00  0.00     0.014 C 
HETATM   40  C3  UNL     1      16.192 -24.033 -19.483  1.00  0.00     0.005 C 
HETATM   41  C2  UNL     1      16.016 -24.188 -20.952  1.00  0.00    -0.019 C 
HETATM   42  C1  UNL     1      16.808 -25.402 -21.419  1.00  0.00     0.010 C 
HETATM   43  C34 UNL     1      14.551 -24.376 -21.247  1.00  0.00     0.005 C 
HETATM   44  C33 UNL     1      13.837 -23.127 -20.873  1.00  0.00     0.014 C 
ENDBRANCH  34  38
ENDBRANCH  29  30
BRANCH  29  45
HETATM   45  O2  UNL     1       8.258 -19.774 -17.929  1.00  0.00    -0.344 OA
ATOM     46  H2  UNL     1       7.351 -20.035 -17.823  1.00  0.00     0.219 HD
ENDBRANCH  29  45
BRANCH  28  47
HETATM   47  C28 UNL     1       7.161 -18.279 -21.115  1.00  0.00    -0.057 C 
HETATM   48  C29 UNL     1       5.880 -18.600 -21.831  1.00  0.00     0.045 C 
HETATM   49  C30 UNL     1       8.395 -18.364 -21.995  1.00  0.00     0.045 C 
ENDBRANCH  28  47
ENDBRANCH   1  28
TORSDOF 13
ENDMDL
