MODEL 1
REMARK VINA RESULT: -9.216430861      0.000      0.000
REMARK  11 active torsions:
REMARK  status: ('A' for Active; 'I' for Inactive)
REMARK    1  A    between atoms: C2_2  and  N1_3 
REMARK       I    between atoms: N1_3  and  C3_5 
REMARK    2  A    between atoms: C3_5  and  C4_7 
REMARK    3  A    between atoms: C5_8  and  C6_9 
REMARK       I    between atoms: C6_9  and  N2_11 
REMARK    4  A    between atoms: N2_11  and  C7_13 
REMARK    5  A    between atoms: C7_13  and  C8_14 
REMARK    6  A    between atoms: C7_13  and  C10_19 
REMARK    7  A    between atoms: C8_14  and  C9_16 
REMARK       I    between atoms: C10_19  and  N4_21 
REMARK    8  A    between atoms: C14_25  and  C15_26 
REMARK    9  A    between atoms: C15_26  and  C16_27 
REMARK   10  A    between atoms: N5_37  and  C26_38 
REMARK   11  A    between atoms: C26_38  and  C27_39 
ROOT
HETATM    1  C4  UNL     1     -19.101  18.775  -7.112  1.00  0.00     0.189 C 
HETATM    2  C5  UNL     1     -18.927  19.905  -6.176  1.00  0.00     0.114 C 
HETATM    3  C20 UNL     1     -18.525  19.525  -4.792  1.00  0.00     0.010 C 
HETATM    4  C21 UNL     1     -19.076  20.354  -3.705  1.00  0.00     0.006 C 
HETATM    5  C22 UNL     1     -19.056  19.438  -2.505  1.00  0.00     0.001 C 
HETATM    6  C23 UNL     1     -18.759  18.052  -3.027  1.00  0.00     0.010 C 
HETATM    7  C24 UNL     1     -19.126  18.162  -4.467  1.00  0.00     0.029 C 
HETATM    8  C25 UNL     1     -18.381  17.208  -5.363  1.00  0.00     0.064 C 
HETATM    9  N5  UNL     1     -18.617  17.515  -6.692  1.00  0.00    -0.379 N 
ENDROOT
BRANCH   2  10
HETATM   10  C6  UNL     1     -18.033  20.966  -6.666  1.00  0.00     0.225 C 
HETATM   11  O2  UNL     1     -18.481  21.793  -7.529  1.00  0.00    -0.273 OA
HETATM   12  N2  UNL     1     -16.700  21.128  -6.237  1.00  0.00    -0.341 N 
ATOM     13  H2  UNL     1     -16.334  20.470  -5.548  1.00  0.00     0.163 HD
BRANCH  12  14
HETATM   14  C7  UNL     1     -15.806  22.188  -6.723  1.00  0.00     0.257 C 
BRANCH  14  15
HETATM   15  C8  UNL     1     -14.834  21.540  -7.661  1.00  0.00     0.245 C 
HETATM   16  O3  UNL     1     -14.348  20.415  -7.262  1.00  0.00    -0.285 OA
BRANCH  15  17
HETATM   17  C9  UNL     1     -14.411  22.049  -8.925  1.00  0.00     0.303 C 
HETATM   18  N3  UNL     1     -13.062  22.586  -9.043  1.00  0.00    -0.054 NA
HETATM   19  O4  UNL     1     -15.084  22.088  -9.974  1.00  0.00    -0.268 OA
ENDBRANCH  15  17
ENDBRANCH  14  15
BRANCH  14  20
HETATM   20  C10 UNL     1     -15.024  22.735  -5.583  1.00  0.00     0.251 C 
HETATM   21  O5  UNL     1     -13.753  22.598  -5.697  1.00  0.00    -0.271 OA
HETATM   22  N4  UNL     1     -15.530  23.359  -4.439  1.00  0.00    -0.345 N 
HETATM   23  C11 UNL     1     -16.985  23.440  -4.187  1.00  0.00     0.126 C 
HETATM   24  C14 UNL     1     -14.903  24.037  -3.309  1.00  0.00     0.088 C 
HETATM   25  C12 UNL     1     -17.133  23.241  -2.703  1.00  0.00     0.022 C 
HETATM   26  C13 UNL     1     -15.773  23.613  -2.165  1.00  0.00     0.027 C 
BRANCH  24  27
HETATM   27  C15 UNL     1     -13.475  23.732  -3.240  1.00  0.00     0.033 C 
BRANCH  27  28
HETATM   28  C16 UNL     1     -12.499  24.873  -3.264  1.00  0.00    -0.050 C 
HETATM   29  C17 UNL     1     -13.145  25.930  -4.188  1.00  0.00     0.014 C 
HETATM   30  C18 UNL     1     -11.238  24.482  -3.996  1.00  0.00     0.014 C 
HETATM   31  C19 UNL     1     -12.246  25.529  -1.965  1.00  0.00     0.014 C 
ENDBRANCH  27  28
ENDBRANCH  24  27
ENDBRANCH  14  20
ENDBRANCH  12  14
ENDBRANCH   2  10
BRANCH   1  32
HETATM   32  C3  UNL     1     -20.531  18.605  -7.562  1.00  0.00     0.241 C 
HETATM   33  N1  UNL     1     -21.462  17.769  -6.909  1.00  0.00    -0.360 N 
ATOM     34  H1  UNL     1     -21.194  17.240  -6.079  1.00  0.00     0.162 HD
HETATM   35  O1  UNL     1     -20.905  19.245  -8.575  1.00  0.00    -0.271 OA
BRANCH  33  36
HETATM   36  C2  UNL     1     -22.806  17.678  -7.443  1.00  0.00     0.118 C 
HETATM   37  C1  UNL     1     -23.441  16.337  -7.068  1.00  0.00     0.026 C 
ENDBRANCH  33  36
ENDBRANCH   1  32
BRANCH   9  38
HETATM   38  C26 UNL     1     -18.308  16.604  -7.722  1.00  0.00     0.127 C 
BRANCH  38  39
HETATM   39  C27 UNL     1     -17.077  16.870  -8.533  1.00  0.00     0.003 C 
HETATM   40  C28 UNL     1     -16.350  18.130  -8.204  1.00  0.00     0.006 C 
HETATM   41  C29 UNL     1     -15.897  18.855  -9.473  1.00  0.00     0.000 C 
HETATM   42  C30 UNL     1     -17.107  19.265 -10.291  1.00  0.00     0.000 C 
HETATM   43  C31 UNL     1     -18.047  18.124 -10.499  1.00  0.00     0.000 C 
HETATM   44  C32 UNL     1     -17.383  16.840 -10.033  1.00  0.00     0.006 C 
ENDBRANCH  38  39
ENDBRANCH   9  38
TORSDOF 11
ENDMDL
MODEL 2
REMARK VINA RESULT: -8.877946177      4.417      8.884
REMARK  11 active torsions:
REMARK  status: ('A' for Active; 'I' for Inactive)
REMARK    1  A    between atoms: C2_2  and  N1_3 
REMARK       I    between atoms: N1_3  and  C3_5 
REMARK    2  A    between atoms: C3_5  and  C4_7 
REMARK    3  A    between atoms: C5_8  and  C6_9 
REMARK       I    between atoms: C6_9  and  N2_11 
REMARK    4  A    between atoms: N2_11  and  C7_13 
REMARK    5  A    between atoms: C7_13  and  C8_14 
REMARK    6  A    between atoms: C7_13  and  C10_19 
REMARK    7  A    between atoms: C8_14  and  C9_16 
REMARK       I    between atoms: C10_19  and  N4_21 
REMARK    8  A    between atoms: C14_25  and  C15_26 
REMARK    9  A    between atoms: C15_26  and  C16_27 
REMARK   10  A    between atoms: N5_37  and  C26_38 
REMARK   11  A    between atoms: C26_38  and  C27_39 
ROOT
HETATM    1  C4  UNL     1     -24.608  18.018  -3.666  1.00  0.00     0.189 C 
HETATM    2  C5  UNL     1     -24.042  17.027  -4.606  1.00  0.00     0.114 C 
HETATM    3  C20 UNL     1     -24.513  17.151  -6.015  1.00  0.00     0.010 C 
HETATM    4  C21 UNL     1     -24.673  15.889  -6.760  1.00  0.00     0.006 C 
HETATM    5  C22 UNL     1     -25.694  16.223  -7.821  1.00  0.00     0.001 C 
HETATM    6  C23 UNL     1     -26.269  17.571  -7.456  1.00  0.00     0.010 C 
HETATM    7  C24 UNL     1     -25.942  17.682  -6.006  1.00  0.00     0.029 C 
HETATM    8  C25 UNL     1     -25.805  19.100  -5.517  1.00  0.00     0.064 C 
HETATM    9  N5  UNL     1     -25.296  19.115  -4.230  1.00  0.00    -0.379 N 
ENDROOT
BRANCH   2  10
HETATM   10  C6  UNL     1     -22.574  16.946  -4.590  1.00  0.00     0.225 C 
HETATM   11  O2  UNL     1     -22.024  15.837  -4.277  1.00  0.00    -0.273 OA
HETATM   12  N2  UNL     1     -21.725  18.028  -4.904  1.00  0.00    -0.341 N 
ATOM     13  H2  UNL     1     -22.156  18.919  -5.154  1.00  0.00     0.163 HD
BRANCH  12  14
HETATM   14  C7  UNL     1     -20.259  17.949  -4.892  1.00  0.00     0.257 C 
BRANCH  14  15
HETATM   15  C8  UNL     1     -19.764  19.167  -4.173  1.00  0.00     0.245 C 
HETATM   16  O3  UNL     1     -20.527  20.203  -4.252  1.00  0.00    -0.285 OA
BRANCH  15  17
HETATM   17  C9  UNL     1     -18.554  19.276  -3.426  1.00  0.00     0.303 C 
HETATM   18  N3  UNL     1     -18.338  18.363  -2.312  1.00  0.00    -0.054 NA
HETATM   19  O4  UNL     1     -17.629  20.089  -3.623  1.00  0.00    -0.268 OA
ENDBRANCH  15  17
ENDBRANCH  14  15
BRANCH  14  20
HETATM   20  C10 UNL     1     -19.749  18.022  -6.287  1.00  0.00     0.251 C 
HETATM   21  O5  UNL     1     -19.322  19.182  -6.636  1.00  0.00    -0.271 OA
HETATM   22  N4  UNL     1     -19.698  16.982  -7.218  1.00  0.00    -0.345 N 
HETATM   23  C11 UNL     1     -20.284  15.655  -6.923  1.00  0.00     0.126 C 
HETATM   24  C14 UNL     1     -19.134  16.866  -8.559  1.00  0.00     0.088 C 
HETATM   25  C12 UNL     1     -20.895  15.205  -8.222  1.00  0.00     0.022 C 
HETATM   26  C13 UNL     1     -20.150  16.014  -9.257  1.00  0.00     0.027 C 
BRANCH  24  27
HETATM   27  C15 UNL     1     -18.837  18.183  -9.119  1.00  0.00     0.033 C 
BRANCH  27  28
HETATM   28  C16 UNL     1     -17.434  18.466  -9.574  1.00  0.00    -0.050 C 
HETATM   29  C17 UNL     1     -16.546  17.514  -8.742  1.00  0.00     0.014 C 
HETATM   30  C18 UNL     1     -16.996  19.841  -9.131  1.00  0.00     0.014 C 
HETATM   31  C19 UNL     1     -17.153  18.189 -10.997  1.00  0.00     0.014 C 
ENDBRANCH  27  28
ENDBRANCH  24  27
ENDBRANCH  14  20
ENDBRANCH  12  14
ENDBRANCH   2  10
BRANCH   1  32
HETATM   32  C3  UNL     1     -25.496  17.389  -2.620  1.00  0.00     0.241 C 
HETATM   33  N1  UNL     1     -26.812  16.948  -2.877  1.00  0.00    -0.360 N 
ATOM     34  H1  UNL     1     -27.218  17.034  -3.808  1.00  0.00     0.162 HD
HETATM   35  O1  UNL     1     -25.031  17.256  -1.462  1.00  0.00    -0.271 OA
BRANCH  33  36
HETATM   36  C2  UNL     1     -27.573  16.370  -1.787  1.00  0.00     0.118 C 
HETATM   37  C1  UNL     1     -28.660  17.341  -1.320  1.00  0.00     0.026 C 
ENDBRANCH  33  36
ENDBRANCH   1  32
BRANCH   9  38
HETATM   38  C26 UNL     1     -25.367  20.271  -3.426  1.00  0.00     0.127 C 
BRANCH  38  39
HETATM   39  C27 UNL     1     -25.930  21.512  -4.049  1.00  0.00     0.003 C 
HETATM   40  C28 UNL     1     -24.942  22.592  -4.335  1.00  0.00     0.006 C 
HETATM   41  C29 UNL     1     -25.498  23.966  -3.953  1.00  0.00     0.000 C 
HETATM   42  C30 UNL     1     -25.761  24.018  -2.460  1.00  0.00     0.000 C 
HETATM   43  C31 UNL     1     -26.561  22.845  -1.998  1.00  0.00     0.000 C 
HETATM   44  C32 UNL     1     -27.075  22.084  -3.209  1.00  0.00     0.006 C 
ENDBRANCH  38  39
ENDBRANCH   9  38
TORSDOF 11
ENDMDL
MODEL 3
REMARK VINA RESULT: -8.719471193      2.460      5.521
REMARK  11 active torsions:
REMARK  status: ('A' for Active; 'I' for Inactive)
REMARK    1  A    between atoms: C2_2  and  N1_3 
REMARK       I    between atoms: N1_3  and  C3_5 
REMARK    2  A    between atoms: C3_5  and  C4_7 
REMARK    3  A    between atoms: C5_8  and  C6_9 
REMARK       I    between atoms: C6_9  and  N2_11 
REMARK    4  A    between atoms: N2_11  and  C7_13 
REMARK    5  A    between atoms: C7_13  and  C8_14 
REMARK    6  A    between atoms: C7_13  and  C10_19 
REMARK    7  A    between atoms: C8_14  and  C9_16 
REMARK       I    between atoms: C10_19  and  N4_21 
REMARK    8  A    between atoms: C14_25  and  C15_26 
REMARK    9  A    between atoms: C15_26  and  C16_27 
REMARK   10  A    between atoms: N5_37  and  C26_38 
REMARK   11  A    between atoms: C26_38  and  C27_39 
ROOT
HETATM    1  C4  UNL     1     -21.454  17.745  -6.068  1.00  0.00     0.189 C 
HETATM    2  C5  UNL     1     -20.198  17.738  -6.847  1.00  0.00     0.114 C 
HETATM    3  C20 UNL     1     -20.210  16.873  -8.061  1.00  0.00     0.010 C 
HETATM    4  C21 UNL     1     -18.941  16.203  -8.394  1.00  0.00     0.006 C 
HETATM    5  C22 UNL     1     -19.369  14.992  -9.188  1.00  0.00     0.001 C 
HETATM    6  C23 UNL     1     -20.867  14.881  -9.031  1.00  0.00     0.010 C 
HETATM    7  C24 UNL     1     -21.124  15.680  -7.799  1.00  0.00     0.029 C 
HETATM    8  C25 UNL     1     -22.504  16.279  -7.736  1.00  0.00     0.064 C 
HETATM    9  N5  UNL     1     -22.590  17.171  -6.681  1.00  0.00    -0.379 N 
ENDROOT
BRANCH   2  10
HETATM   10  C6  UNL     1     -19.702  19.075  -7.209  1.00  0.00     0.225 C 
HETATM   11  O2  UNL     1     -20.336  19.746  -8.090  1.00  0.00    -0.273 OA
HETATM   12  N2  UNL     1     -18.559  19.669  -6.635  1.00  0.00    -0.341 N 
ATOM     13  H2  UNL     1     -18.046  19.139  -5.930  1.00  0.00     0.163 HD
BRANCH  12  14
HETATM   14  C7  UNL     1     -18.063  21.005  -6.991  1.00  0.00     0.257 C 
BRANCH  14  15
HETATM   15  C8  UNL     1     -16.925  20.806  -7.945  1.00  0.00     0.245 C 
HETATM   16  O3  UNL     1     -16.124  21.808  -8.067  1.00  0.00    -0.285 OA
BRANCH  15  17
HETATM   17  C9  UNL     1     -16.658  19.632  -8.710  1.00  0.00     0.303 C 
HETATM   18  N3  UNL     1     -15.428  18.896  -8.450  1.00  0.00    -0.054 NA
HETATM   19  O4  UNL     1     -17.378  19.147  -9.605  1.00  0.00    -0.268 OA
ENDBRANCH  15  17
ENDBRANCH  14  15
BRANCH  14  20
HETATM   20  C10 UNL     1     -17.514  21.667  -5.779  1.00  0.00     0.251 C 
HETATM   21  O5  UNL     1     -18.009  22.827  -5.537  1.00  0.00    -0.271 OA
HETATM   22  N4  UNL     1     -16.541  21.161  -4.913  1.00  0.00    -0.345 N 
HETATM   23  C11 UNL     1     -15.842  19.889  -5.200  1.00  0.00     0.126 C 
HETATM   24  C14 UNL     1     -15.989  21.628  -3.645  1.00  0.00     0.088 C 
HETATM   25  C12 UNL     1     -14.423  20.119  -4.758  1.00  0.00     0.022 C 
HETATM   26  C13 UNL     1     -14.543  21.256  -3.773  1.00  0.00     0.027 C 
BRANCH  24  27
HETATM   27  C15 UNL     1     -16.323  23.032  -3.413  1.00  0.00     0.033 C 
BRANCH  27  28
HETATM   28  C16 UNL     1     -15.505  23.806  -2.420  1.00  0.00    -0.050 C 
HETATM   29  C17 UNL     1     -16.534  24.622  -1.605  1.00  0.00     0.014 C 
HETATM   30  C18 UNL     1     -14.680  24.863  -3.114  1.00  0.00     0.014 C 
HETATM   31  C19 UNL     1     -14.732  22.997  -1.455  1.00  0.00     0.014 C 
ENDBRANCH  27  28
ENDBRANCH  24  27
ENDBRANCH  14  20
ENDBRANCH  12  14
ENDBRANCH   2  10
BRANCH   1  32
HETATM   32  C3  UNL     1     -21.295  17.131  -4.698  1.00  0.00     0.241 C 
HETATM   33  N1  UNL     1     -20.750  17.819  -3.593  1.00  0.00    -0.360 N 
ATOM     34  H1  UNL     1     -20.443  18.788  -3.682  1.00  0.00     0.162 HD
HETATM   35  O1  UNL     1     -21.669  15.943  -4.543  1.00  0.00    -0.271 OA
BRANCH  33  36
HETATM   36  C2  UNL     1     -20.637  17.120  -2.329  1.00  0.00     0.118 C 
HETATM   37  C1  UNL     1     -21.447  17.837  -1.246  1.00  0.00     0.026 C 
ENDBRANCH  33  36
ENDBRANCH   1  32
BRANCH   9  38
HETATM   38  C26 UNL     1     -23.837  17.625  -6.203  1.00  0.00     0.127 C 
BRANCH  38  39
HETATM   39  C27 UNL     1     -25.037  16.775  -6.489  1.00  0.00     0.003 C 
HETATM   40  C28 UNL     1     -26.033  17.365  -7.430  1.00  0.00     0.006 C 
HETATM   41  C29 UNL     1     -27.464  17.127  -6.942  1.00  0.00     0.000 C 
HETATM   42  C30 UNL     1     -27.675  17.822  -5.610  1.00  0.00     0.000 C 
HETATM   43  C31 UNL     1     -26.595  17.490  -4.634  1.00  0.00     0.000 C 
HETATM   44  C32 UNL     1     -25.746  16.362  -5.196  1.00  0.00     0.006 C 
ENDBRANCH  38  39
ENDBRANCH   9  38
TORSDOF 11
ENDMDL
MODEL 4
REMARK VINA RESULT: -8.636051985      1.873      4.612
REMARK  11 active torsions:
REMARK  status: ('A' for Active; 'I' for Inactive)
REMARK    1  A    between atoms: C2_2  and  N1_3 
REMARK       I    between atoms: N1_3  and  C3_5 
REMARK    2  A    between atoms: C3_5  and  C4_7 
REMARK    3  A    between atoms: C5_8  and  C6_9 
REMARK       I    between atoms: C6_9  and  N2_11 
REMARK    4  A    between atoms: N2_11  and  C7_13 
REMARK    5  A    between atoms: C7_13  and  C8_14 
REMARK    6  A    between atoms: C7_13  and  C10_19 
REMARK    7  A    between atoms: C8_14  and  C9_16 
REMARK       I    between atoms: C10_19  and  N4_21 
REMARK    8  A    between atoms: C14_25  and  C15_26 
REMARK    9  A    between atoms: C15_26  and  C16_27 
REMARK   10  A    between atoms: N5_37  and  C26_38 
REMARK   11  A    between atoms: C26_38  and  C27_39 
ROOT
HETATM    1  C4  UNL     1     -20.195  18.223  -6.418  1.00  0.00     0.189 C 
HETATM    2  C5  UNL     1     -18.858  18.325  -7.040  1.00  0.00     0.114 C 
HETATM    3  C20 UNL     1     -18.676  17.529  -8.287  1.00  0.00     0.010 C 
HETATM    4  C21 UNL     1     -17.339  16.946  -8.496  1.00  0.00     0.006 C 
HETATM    5  C22 UNL     1     -17.599  15.761  -9.394  1.00  0.00     0.001 C 
HETATM    6  C23 UNL     1     -19.095  15.563  -9.425  1.00  0.00     0.010 C 
HETATM    7  C24 UNL     1     -19.543  16.278  -8.196  1.00  0.00     0.029 C 
HETATM    8  C25 UNL     1     -20.953  16.799  -8.271  1.00  0.00     0.064 C 
HETATM    9  N5  UNL     1     -21.216  17.625  -7.192  1.00  0.00    -0.379 N 
ENDROOT
BRANCH   2  10
HETATM   10  C6  UNL     1     -18.402  19.704  -7.273  1.00  0.00     0.225 C 
HETATM   11  O2  UNL     1     -19.251  20.571  -7.668  1.00  0.00    -0.273 OA
HETATM   12  N2  UNL     1     -17.072  20.133  -7.083  1.00  0.00    -0.341 N 
ATOM     13  H2  UNL     1     -16.387  19.445  -6.768  1.00  0.00     0.163 HD
BRANCH  12  14
HETATM   14  C7  UNL     1     -16.615  21.510  -7.312  1.00  0.00     0.257 C 
BRANCH  14  15
HETATM   15  C8  UNL     1     -15.578  21.449  -8.392  1.00  0.00     0.245 C 
HETATM   16  O3  UNL     1     -15.072  22.583  -8.737  1.00  0.00    -0.285 OA
BRANCH  15  17
HETATM   17  C9  UNL     1     -15.114  20.275  -9.055  1.00  0.00     0.303 C 
HETATM   18  N3  UNL     1     -15.789  19.851 -10.274  1.00  0.00    -0.054 NA
HETATM   19  O4  UNL     1     -14.168  19.545  -8.699  1.00  0.00    -0.268 OA
ENDBRANCH  15  17
ENDBRANCH  14  15
BRANCH  14  20
HETATM   20  C10 UNL     1     -15.946  22.018  -6.085  1.00  0.00     0.251 C 
HETATM   21  O5  UNL     1     -14.670  21.872  -6.077  1.00  0.00    -0.271 OA
HETATM   22  N4  UNL     1     -16.558  22.615  -4.980  1.00  0.00    -0.345 N 
HETATM   23  C11 UNL     1     -18.031  22.703  -4.871  1.00  0.00     0.126 C 
HETATM   24  C14 UNL     1     -16.042  23.256  -3.775  1.00  0.00     0.088 C 
HETATM   25  C12 UNL     1     -18.326  22.465  -3.416  1.00  0.00     0.022 C 
HETATM   26  C13 UNL     1     -17.024  22.810  -2.735  1.00  0.00     0.027 C 
BRANCH  24  27
HETATM   27  C15 UNL     1     -14.630  22.936  -3.574  1.00  0.00     0.033 C 
BRANCH  27  28
HETATM   28  C16 UNL     1     -13.658  24.067  -3.403  1.00  0.00    -0.050 C 
HETATM   29  C17 UNL     1     -14.359  25.293  -4.032  1.00  0.00     0.014 C 
HETATM   30  C18 UNL     1     -12.443  23.865  -4.276  1.00  0.00     0.014 C 
HETATM   31  C19 UNL     1     -13.328  24.425  -2.008  1.00  0.00     0.014 C 
ENDBRANCH  27  28
ENDBRANCH  24  27
ENDBRANCH  14  20
ENDBRANCH  12  14
ENDBRANCH   2  10
BRANCH   1  32
HETATM   32  C3  UNL     1     -20.163  17.543  -5.071  1.00  0.00     0.241 C 
HETATM   33  N1  UNL     1     -20.417  18.211  -3.854  1.00  0.00    -0.360 N 
ATOM     34  H1  UNL     1     -20.646  19.205  -3.843  1.00  0.00     0.162 HD
HETATM   35  O1  UNL     1     -19.895  16.318  -5.041  1.00  0.00    -0.271 OA
BRANCH  33  36
HETATM   36  C2  UNL     1     -20.346  17.453  -2.621  1.00  0.00     0.118 C 
HETATM   37  C1  UNL     1     -21.455  17.889  -1.660  1.00  0.00     0.026 C 
ENDBRANCH  33  36
ENDBRANCH   1  32
BRANCH   9  38
HETATM   38  C26 UNL     1     -22.535  17.986  -6.847  1.00  0.00     0.127 C 
BRANCH  38  39
HETATM   39  C27 UNL     1     -23.493  16.879  -6.529  1.00  0.00     0.003 C 
HETATM   40  C28 UNL     1     -24.762  16.883  -7.313  1.00  0.00     0.006 C 
HETATM   41  C29 UNL     1     -25.965  16.573  -6.420  1.00  0.00     0.000 C 
HETATM   42  C30 UNL     1     -26.115  17.653  -5.366  1.00  0.00     0.000 C 
HETATM   43  C31 UNL     1     -24.830  17.913  -4.652  1.00  0.00     0.000 C 
HETATM   44  C32 UNL     1     -23.822  16.841  -5.035  1.00  0.00     0.006 C 
ENDBRANCH  38  39
ENDBRANCH   9  38
TORSDOF 11
ENDMDL
MODEL 5
REMARK VINA RESULT: -8.377760713      4.431      9.940
REMARK  11 active torsions:
REMARK  status: ('A' for Active; 'I' for Inactive)
REMARK    1  A    between atoms: C2_2  and  N1_3 
REMARK       I    between atoms: N1_3  and  C3_5 
REMARK    2  A    between atoms: C3_5  and  C4_7 
REMARK    3  A    between atoms: C5_8  and  C6_9 
REMARK       I    between atoms: C6_9  and  N2_11 
REMARK    4  A    between atoms: N2_11  and  C7_13 
REMARK    5  A    between atoms: C7_13  and  C8_14 
REMARK    6  A    between atoms: C7_13  and  C10_19 
REMARK    7  A    between atoms: C8_14  and  C9_16 
REMARK       I    between atoms: C10_19  and  N4_21 
REMARK    8  A    between atoms: C14_25  and  C15_26 
REMARK    9  A    between atoms: C15_26  and  C16_27 
REMARK   10  A    between atoms: N5_37  and  C26_38 
REMARK   11  A    between atoms: C26_38  and  C27_39 
ROOT
HETATM    1  C4  UNL     1     -11.421  25.496 -10.213  1.00  0.00     0.189 C 
HETATM    2  C5  UNL     1     -11.158  24.126 -10.699  1.00  0.00     0.114 C 
HETATM    3  C20 UNL     1      -9.815  23.918 -11.312  1.00  0.00     0.010 C 
HETATM    4  C21 UNL     1      -9.756  22.975 -12.442  1.00  0.00     0.006 C 
HETATM    5  C22 UNL     1      -8.540  23.419 -13.220  1.00  0.00     0.001 C 
HETATM    6  C23 UNL     1      -8.132  24.758 -12.653  1.00  0.00     0.010 C 
HETATM    7  C24 UNL     1      -9.378  25.218 -11.978  1.00  0.00     0.029 C 
HETATM    8  C25 UNL     1      -9.138  26.160 -10.827  1.00  0.00     0.064 C 
HETATM    9  N5  UNL     1     -10.313  26.369 -10.127  1.00  0.00    -0.379 N 
ENDROOT
BRANCH   2  10
HETATM   10  C6  UNL     1     -11.405  23.071  -9.703  1.00  0.00     0.225 C 
HETATM   11  O2  UNL     1     -10.536  22.148  -9.559  1.00  0.00    -0.273 OA
HETATM   12  N2  UNL     1     -12.555  23.018  -8.888  1.00  0.00    -0.341 N 
ATOM     13  H2  UNL     1     -13.256  23.751  -8.997  1.00  0.00     0.163 HD
BRANCH  12  14
HETATM   14  C7  UNL     1     -12.803  21.968  -7.891  1.00  0.00     0.257 C 
BRANCH  14  15
HETATM   15  C8  UNL     1     -13.864  21.074  -8.456  1.00  0.00     0.245 C 
HETATM   16  O3  UNL     1     -13.768  19.830  -8.131  1.00  0.00    -0.285 OA
BRANCH  15  17
HETATM   17  C9  UNL     1     -14.942  21.470  -9.301  1.00  0.00     0.303 C 
HETATM   18  N3  UNL     1     -16.268  20.926  -9.038  1.00  0.00    -0.054 NA
HETATM   19  O4  UNL     1     -14.880  22.252 -10.270  1.00  0.00    -0.268 OA
ENDBRANCH  15  17
ENDBRANCH  14  15
BRANCH  14  20
HETATM   20  C10 UNL     1     -13.355  22.583  -6.655  1.00  0.00     0.251 C 
HETATM   21  O5  UNL     1     -14.638  22.600  -6.598  1.00  0.00    -0.271 OA
HETATM   22  N4  UNL     1     -12.631  23.126  -5.590  1.00  0.00    -0.345 N 
HETATM   23  C11 UNL     1     -11.158  23.249  -5.645  1.00  0.00     0.126 C 
HETATM   24  C14 UNL     1     -13.015  23.652  -4.284  1.00  0.00     0.088 C 
HETATM   25  C12 UNL     1     -10.854  24.560  -4.974  1.00  0.00     0.022 C 
HETATM   26  C13 UNL     1     -12.074  24.806  -4.119  1.00  0.00     0.027 C 
BRANCH  24  27
HETATM   27  C15 UNL     1     -14.451  23.919  -4.227  1.00  0.00     0.033 C 
BRANCH  27  28
HETATM   28  C16 UNL     1     -15.277  23.174  -3.219  1.00  0.00    -0.050 C 
HETATM   29  C17 UNL     1     -16.736  23.333  -3.703  1.00  0.00     0.014 C 
HETATM   30  C18 UNL     1     -15.263  23.884  -1.886  1.00  0.00     0.014 C 
HETATM   31  C19 UNL     1     -15.011  21.725  -3.115  1.00  0.00     0.014 C 
ENDBRANCH  27  28
ENDBRANCH  24  27
ENDBRANCH  14  20
ENDBRANCH  12  14
ENDBRANCH   2  10
BRANCH   1  32
HETATM   32  C3  UNL     1     -12.512  26.192 -10.989  1.00  0.00     0.241 C 
HETATM   33  N1  UNL     1     -12.282  26.924 -12.174  1.00  0.00    -0.360 N 
ATOM     34  H1  UNL     1     -11.342  27.005 -12.562  1.00  0.00     0.162 HD
HETATM   35  O1  UNL     1     -13.685  26.110 -10.551  1.00  0.00    -0.271 OA
BRANCH  33  36
HETATM   36  C2  UNL     1     -13.410  27.559 -12.825  1.00  0.00     0.118 C 
HETATM   37  C1  UNL     1     -13.009  28.068 -14.213  1.00  0.00     0.026 C 
ENDBRANCH  33  36
ENDBRANCH   1  32
BRANCH   9  38
HETATM   38  C26 UNL     1     -10.445  27.436  -9.215  1.00  0.00     0.127 C 
BRANCH  38  39
HETATM   39  C27 UNL     1      -9.675  27.348  -7.933  1.00  0.00     0.003 C 
HETATM   40  C28 UNL     1     -10.416  27.767  -6.708  1.00  0.00     0.006 C 
HETATM   41  C29 UNL     1      -9.534  28.617  -5.791  1.00  0.00     0.000 C 
HETATM   42  C30 UNL     1      -9.134  29.896  -6.503  1.00  0.00     0.000 C 
HETATM   43  C31 UNL     1      -8.580  29.623  -7.862  1.00  0.00     0.000 C 
HETATM   44  C32 UNL     1      -8.360  28.128  -8.020  1.00  0.00     0.006 C 
ENDBRANCH  38  39
ENDBRANCH   9  38
TORSDOF 11
ENDMDL
