MODEL 1
REMARK VINA RESULT: -5.037960092      0.000      0.000
REMARK  12 active torsions:
REMARK  status: ('A' for Active; 'I' for Inactive)
REMARK    1  A    between atoms: C2_2  and  C3_3 
REMARK    2  A    between atoms: C3_3  and  C4_4 
REMARK    3  A    between atoms: C5_5  and  O1_6 
REMARK    4  A    between atoms: C9_14  and  C10_15 
REMARK    5  A    between atoms: C10_15  and  C11_16 
REMARK    6  A    between atoms: C11_16  and  C12_17 
REMARK    7  A    between atoms: C12_17  and  N3_18 
REMARK    8  A    between atoms: C15_25  and  O2_26 
REMARK    9  A    between atoms: C17_29  and  C19_31 
REMARK   10  A    between atoms: C21_35  and  O3_36 
REMARK   11  A    between atoms: C22_38  and  C23_39 
REMARK   12  A    between atoms: C29_48  and  C30_49 
REMARK       I    between atoms: C30_49  and  N9_51 
ROOT
HETATM    1  C4  UNL     1      26.200  -3.307  -1.191  1.00  0.00     0.011 C 
HETATM    2  C5  UNL     1      24.956  -2.562  -1.203  1.00  0.00     0.149 C 
HETATM    3  N1  UNL     1      24.541  -1.247  -1.223  1.00  0.00    -0.321 N 
ATOM      4  H1  UNL     1      24.177  -0.992  -0.304  1.00  0.00     0.169 HD
HETATM    5  C6  UNL     1      24.449  -0.106  -2.113  1.00  0.00     0.127 C 
HETATM    6  N2  UNL     1      24.843   0.996  -1.565  1.00  0.00    -0.374 N 
HETATM    7  C7  UNL     1      24.946   2.337  -2.006  1.00  0.00     0.150 C 
HETATM    8  C8  UNL     1      25.262   0.917  -0.106  1.00  0.00     0.150 C 
HETATM    9  C9  UNL     1      23.848  -0.163  -3.457  1.00  0.00     0.057 C 
HETATM   10  N6  UNL     1      24.459  -1.012  -4.465  1.00  0.00    -0.331 N 
HETATM   11  C14 UNL     1      23.885  -2.407  -4.504  1.00  0.00     0.158 C 
HETATM   12  C15 UNL     1      25.402  -0.814  -5.456  1.00  0.00     0.170 C 
HETATM   13  C16 UNL     1      26.629  -0.101  -5.812  1.00  0.00     0.087 C 
HETATM   14  C17 UNL     1      27.332   0.799  -4.926  1.00  0.00    -0.053 C 
HETATM   15  C18 UNL     1      27.896   0.387  -3.641  1.00  0.00     0.046 C 
HETATM   16  N7  UNL     1      27.474  -0.883  -6.708  1.00  0.00    -0.335 N 
ATOM     17  H7  UNL     1      27.365  -0.616  -7.687  1.00  0.00     0.168 HD
HETATM   18  C21 UNL     1      28.393  -1.907  -6.532  1.00  0.00     0.139 C 
HETATM   19  C22 UNL     1      29.762  -1.931  -5.970  1.00  0.00     0.162 C 
HETATM   20  N8  UNL     1      30.153  -3.243  -5.502  1.00  0.00    -0.348 N 
ATOM     21  H8  UNL     1      31.051  -3.596  -5.834  1.00  0.00     0.163 HD
HETATM   22  C26 UNL     1      29.426  -4.083  -4.636  1.00  0.00     0.221 C 
HETATM   23  O4  UNL     1      29.297  -5.296  -4.974  1.00  0.00    -0.273 OA
HETATM   24  C27 UNL     1      28.787  -3.691  -3.352  1.00  0.00     0.131 C 
HETATM   25  C28 UNL     1      27.339  -3.781  -3.411  1.00  0.00     0.000 C 
HETATM   26  C29 UNL     1      26.502  -4.262  -2.310  1.00  0.00     0.039 C 
ENDROOT
BRANCH   9  27
HETATM   27  C10 UNL     1      23.376   1.141  -4.055  1.00  0.00     0.063 C 
BRANCH  27  28
HETATM   28  C11 UNL     1      21.869   1.389  -3.880  1.00  0.00     0.026 C 
BRANCH  28  29
HETATM   29  C12 UNL     1      21.108   0.140  -3.531  1.00  0.00     0.122 C 
BRANCH  29  30
HETATM   30  N3  UNL     1      20.648   0.234  -2.129  1.00  0.00    -0.367 N 
HETATM   31  C13 UNL     1      20.772  -0.787  -1.364  1.00  0.00     0.196 C 
HETATM   32  N4  UNL     1      21.342  -1.986  -1.850  1.00  0.00    -0.067 NA
HETATM   33  N5  UNL     1      20.335  -0.707  -0.025  1.00  0.00    -0.067 NA
ATOM     34  H3  UNL     1      20.238   1.098  -1.776  1.00  0.00     0.161 HD
ENDBRANCH  29  30
ENDBRANCH  28  29
ENDBRANCH  27  28
ENDBRANCH   9  27
BRANCH  12  35
HETATM   35  O2  UNL     1      25.120  -1.552  -6.557  1.00  0.00    -0.344 OA
ATOM     36  H2  UNL     1      25.201  -1.033  -7.349  1.00  0.00     0.219 HD
ENDBRANCH  12  35
BRANCH   2  37
HETATM   37  O1  UNL     1      23.932  -3.415  -1.181  1.00  0.00    -0.346 OA
ATOM     38  H1  UNL     1      23.119  -2.930  -1.255  1.00  0.00     0.219 HD
ENDBRANCH   2  37
BRANCH   1  39
HETATM   39  C3  UNL     1      27.411  -2.693  -0.555  1.00  0.00     0.070 C 
BRANCH  39  40
HETATM   40  C2  UNL     1      27.414  -3.041   0.883  1.00  0.00    -0.032 C 
HETATM   41  C1  UNL     1      26.875  -2.201   1.750  1.00  0.00     0.007 C 
ENDBRANCH  39  40
ENDBRANCH   1  39
BRANCH  14  42
HETATM   42  C19 UNL     1      28.321   1.640  -5.767  1.00  0.00     0.031 C 
HETATM   43  C20 UNL     1      29.628   1.700  -4.964  1.00  0.00     0.010 C 
ENDBRANCH  14  42
BRANCH  26  44
HETATM   44  C30 UNL     1      26.860  -5.635  -1.834  1.00  0.00     0.251 C 
HETATM   45  O5  UNL     1      26.723  -6.026  -0.670  1.00  0.00    -0.268 OA
HETATM   46  N9  UNL     1      27.391  -6.555  -2.772  1.00  0.00    -0.361 N 
HETATM   47  C31 UNL     1      27.740  -7.906  -2.307  1.00  0.00     0.149 C 
ATOM     48  H9  UNL     1      27.527  -6.286  -3.746  1.00  0.00     0.162 HD
ENDBRANCH  26  44
BRANCH  18  49
HETATM   49  O3  UNL     1      28.063  -3.110  -6.912  1.00  0.00    -0.348 OA
ATOM     50  H3  UNL     1      28.533  -3.848  -6.540  1.00  0.00     0.219 HD
ENDBRANCH  18  49
BRANCH  19  51
HETATM   51  C23 UNL     1      30.779  -1.504  -7.068  1.00  0.00     0.008 C 
HETATM   52  C24 UNL     1      31.941  -0.899  -6.308  1.00  0.00     0.012 C 
HETATM   53  C25 UNL     1      31.210  -2.698  -7.866  1.00  0.00     0.012 C 
ENDBRANCH  19  51
TORSDOF 12
ENDMDL
MODEL 2
REMARK VINA RESULT: -4.919798707      1.198      1.920
REMARK  12 active torsions:
REMARK  status: ('A' for Active; 'I' for Inactive)
REMARK    1  A    between atoms: C2_2  and  C3_3 
REMARK    2  A    between atoms: C3_3  and  C4_4 
REMARK    3  A    between atoms: C5_5  and  O1_6 
REMARK    4  A    between atoms: C9_14  and  C10_15 
REMARK    5  A    between atoms: C10_15  and  C11_16 
REMARK    6  A    between atoms: C11_16  and  C12_17 
REMARK    7  A    between atoms: C12_17  and  N3_18 
REMARK    8  A    between atoms: C15_25  and  O2_26 
REMARK    9  A    between atoms: C17_29  and  C19_31 
REMARK   10  A    between atoms: C21_35  and  O3_36 
REMARK   11  A    between atoms: C22_38  and  C23_39 
REMARK   12  A    between atoms: C29_48  and  C30_49 
REMARK       I    between atoms: C30_49  and  N9_51 
ROOT
HETATM    1  C4  UNL     1      26.198  -3.288  -1.173  1.00  0.00     0.011 C 
HETATM    2  C5  UNL     1      24.965  -2.523  -1.187  1.00  0.00     0.149 C 
HETATM    3  N1  UNL     1      24.571  -1.203  -1.207  1.00  0.00    -0.321 N 
ATOM      4  H1  UNL     1      24.208  -0.942  -0.289  1.00  0.00     0.169 HD
HETATM    5  C6  UNL     1      24.499  -0.059  -2.096  1.00  0.00     0.127 C 
HETATM    6  N2  UNL     1      24.909   1.036  -1.546  1.00  0.00    -0.374 N 
HETATM    7  C7  UNL     1      25.035   2.376  -1.985  1.00  0.00     0.150 C 
HETATM    8  C8  UNL     1      25.323   0.949  -0.086  1.00  0.00     0.150 C 
HETATM    9  C9  UNL     1      23.901  -0.106  -3.441  1.00  0.00     0.057 C 
HETATM   10  N6  UNL     1      24.501  -0.963  -4.449  1.00  0.00    -0.331 N 
HETATM   11  C14 UNL     1      23.905  -2.349  -4.491  1.00  0.00     0.158 C 
HETATM   12  C15 UNL     1      25.449  -0.779  -5.437  1.00  0.00     0.170 C 
HETATM   13  C16 UNL     1      26.688  -0.084  -5.790  1.00  0.00     0.087 C 
HETATM   14  C17 UNL     1      27.403   0.803  -4.901  1.00  0.00    -0.053 C 
HETATM   15  C18 UNL     1      27.958   0.381  -3.615  1.00  0.00     0.046 C 
HETATM   16  N7  UNL     1      27.523  -0.879  -6.684  1.00  0.00    -0.335 N 
ATOM     17  H7  UNL     1      27.420  -0.610  -7.663  1.00  0.00     0.168 HD
HETATM   18  C21 UNL     1      28.425  -1.917  -6.507  1.00  0.00     0.139 C 
HETATM   19  C22 UNL     1      29.792  -1.964  -5.942  1.00  0.00     0.162 C 
HETATM   20  N8  UNL     1      30.162  -3.282  -5.474  1.00  0.00    -0.348 N 
ATOM     21  H8  UNL     1      31.054  -3.649  -5.804  1.00  0.00     0.163 HD
HETATM   22  C26 UNL     1      29.419  -4.111  -4.611  1.00  0.00     0.221 C 
HETATM   23  O4  UNL     1      29.272  -5.322  -4.950  1.00  0.00    -0.273 OA
HETATM   24  C27 UNL     1      28.784  -3.711  -3.328  1.00  0.00     0.131 C 
HETATM   25  C28 UNL     1      27.334  -3.777  -3.390  1.00  0.00     0.000 C 
HETATM   26  C29 UNL     1      26.487  -4.246  -2.292  1.00  0.00     0.039 C 
ENDROOT
BRANCH   9  27
HETATM   27  C10 UNL     1      23.451   1.206  -4.039  1.00  0.00     0.063 C 
BRANCH  27  28
HETATM   28  C11 UNL     1      21.926   1.319  -4.201  1.00  0.00     0.026 C 
BRANCH  28  29
HETATM   29  C12 UNL     1      21.494   1.366  -5.641  1.00  0.00     0.122 C 
BRANCH  29  30
HETATM   30  N3  UNL     1      21.428  -0.015  -6.167  1.00  0.00    -0.367 N 
HETATM   31  C13 UNL     1      22.174  -0.339  -7.157  1.00  0.00     0.196 C 
HETATM   32  N4  UNL     1      23.049   0.606  -7.739  1.00  0.00    -0.067 NA
HETATM   33  N5  UNL     1      22.117  -1.654  -7.666  1.00  0.00    -0.067 NA
ATOM     34  H3  UNL     1      20.798  -0.699  -5.748  1.00  0.00     0.161 HD
ENDBRANCH  29  30
ENDBRANCH  28  29
ENDBRANCH  27  28
ENDBRANCH   9  27
BRANCH  12  35
HETATM   35  O2  UNL     1      25.159  -1.511  -6.540  1.00  0.00    -0.344 OA
ATOM     36  H2  UNL     1      24.851  -0.959  -7.249  1.00  0.00     0.219 HD
ENDBRANCH  12  35
BRANCH   2  37
HETATM   37  O1  UNL     1      23.928  -3.360  -1.169  1.00  0.00    -0.346 OA
ATOM     38  H1  UNL     1      23.761  -3.672  -2.050  1.00  0.00     0.219 HD
ENDBRANCH   2  37
BRANCH   1  39
HETATM   39  C3  UNL     1      27.417  -2.693  -0.533  1.00  0.00     0.070 C 
BRANCH  39  40
HETATM   40  C2  UNL     1      27.413  -3.048   0.903  1.00  0.00    -0.032 C 
HETATM   41  C1  UNL     1      26.903  -2.196   1.776  1.00  0.00     0.007 C 
ENDBRANCH  39  40
ENDBRANCH   1  39
BRANCH  14  42
HETATM   42  C19 UNL     1      28.407   1.629  -5.738  1.00  0.00     0.031 C 
HETATM   43  C20 UNL     1      29.720   1.648  -4.943  1.00  0.00     0.010 C 
ENDBRANCH  14  42
BRANCH  26  44
HETATM   44  C30 UNL     1      26.822  -5.626  -1.816  1.00  0.00     0.251 C 
HETATM   45  O5  UNL     1      26.661  -6.020  -0.657  1.00  0.00    -0.268 OA
HETATM   46  N9  UNL     1      27.358  -6.547  -2.749  1.00  0.00    -0.361 N 
HETATM   47  C31 UNL     1      27.685  -7.903  -2.285  1.00  0.00     0.149 C 
ATOM     48  H9  UNL     1      27.514  -6.276  -3.720  1.00  0.00     0.162 HD
ENDBRANCH  26  44
BRANCH  18  49
HETATM   49  O3  UNL     1      28.077  -3.115  -6.889  1.00  0.00    -0.348 OA
ATOM     50  H3  UNL     1      28.759  -3.761  -7.034  1.00  0.00     0.219 HD
ENDBRANCH  18  49
BRANCH  19  51
HETATM   51  C23 UNL     1      30.819  -1.552  -7.037  1.00  0.00     0.008 C 
HETATM   52  C24 UNL     1      32.004  -1.002  -6.272  1.00  0.00     0.012 C 
HETATM   53  C25 UNL     1      31.205  -2.745  -7.859  1.00  0.00     0.012 C 
ENDBRANCH  19  51
TORSDOF 12
ENDMDL
MODEL 3
REMARK VINA RESULT: -4.825816900      2.157      2.913
REMARK  12 active torsions:
REMARK  status: ('A' for Active; 'I' for Inactive)
REMARK    1  A    between atoms: C2_2  and  C3_3 
REMARK    2  A    between atoms: C3_3  and  C4_4 
REMARK    3  A    between atoms: C5_5  and  O1_6 
REMARK    4  A    between atoms: C9_14  and  C10_15 
REMARK    5  A    between atoms: C10_15  and  C11_16 
REMARK    6  A    between atoms: C11_16  and  C12_17 
REMARK    7  A    between atoms: C12_17  and  N3_18 
REMARK    8  A    between atoms: C15_25  and  O2_26 
REMARK    9  A    between atoms: C17_29  and  C19_31 
REMARK   10  A    between atoms: C21_35  and  O3_36 
REMARK   11  A    between atoms: C22_38  and  C23_39 
REMARK   12  A    between atoms: C29_48  and  C30_49 
REMARK       I    between atoms: C30_49  and  N9_51 
ROOT
HETATM    1  C4  UNL     1      26.815  -4.126  -2.678  1.00  0.00     0.011 C 
HETATM    2  C5  UNL     1      25.417  -3.747  -2.757  1.00  0.00     0.149 C 
HETATM    3  N1  UNL     1      24.579  -2.784  -2.238  1.00  0.00    -0.321 N 
ATOM      4  H1  UNL     1      23.973  -3.205  -1.533  1.00  0.00     0.169 HD
HETATM    5  C6  UNL     1      24.271  -1.372  -2.359  1.00  0.00     0.127 C 
HETATM    6  N2  UNL     1      24.135  -0.784  -1.217  1.00  0.00    -0.374 N 
HETATM    7  C7  UNL     1      23.845   0.542  -0.815  1.00  0.00     0.150 C 
HETATM    8  C8  UNL     1      24.254  -1.663   0.019  1.00  0.00     0.150 C 
HETATM    9  C9  UNL     1      24.010  -0.699  -3.643  1.00  0.00     0.057 C 
HETATM   10  N6  UNL     1      25.069  -0.643  -4.636  1.00  0.00    -0.331 N 
HETATM   11  C14 UNL     1      25.043  -1.798  -5.608  1.00  0.00     0.158 C 
HETATM   12  C15 UNL     1      26.059   0.270  -4.946  1.00  0.00     0.170 C 
HETATM   13  C16 UNL     1      27.002   1.244  -4.394  1.00  0.00     0.087 C 
HETATM   14  C17 UNL     1      27.151   1.521  -2.983  1.00  0.00    -0.053 C 
HETATM   15  C18 UNL     1      27.556   0.513  -2.003  1.00  0.00     0.046 C 
HETATM   16  N7  UNL     1      28.228   1.322  -5.180  1.00  0.00    -0.335 N 
ATOM     17  H7  UNL     1      28.230   2.106  -5.833  1.00  0.00     0.168 HD
HETATM   18  C21 UNL     1      29.393   0.572  -5.241  1.00  0.00     0.139 C 
HETATM   19  C22 UNL     1      30.542   0.439  -4.317  1.00  0.00     0.162 C 
HETATM   20  N8  UNL     1      31.268  -0.799  -4.499  1.00  0.00    -0.348 N 
ATOM     21  H8  UNL     1      32.279  -0.723  -4.608  1.00  0.00     0.163 HD
HETATM   22  C26 UNL     1      30.726  -2.098  -4.542  1.00  0.00     0.221 C 
HETATM   23  O4  UNL     1      31.102  -2.856  -5.483  1.00  0.00    -0.273 OA
HETATM   24  C27 UNL     1      29.748  -2.681  -3.585  1.00  0.00     0.131 C 
HETATM   25  C28 UNL     1      28.466  -2.955  -4.212  1.00  0.00     0.000 C 
HETATM   26  C29 UNL     1      27.650  -4.137  -3.926  1.00  0.00     0.039 C 
ENDROOT
BRANCH   9  27
HETATM   27  C10 UNL     1      23.239   0.599  -3.595  1.00  0.00     0.063 C 
BRANCH  27  28
HETATM   28  C11 UNL     1      21.878   0.534  -4.306  1.00  0.00     0.026 C 
BRANCH  28  29
HETATM   29  C12 UNL     1      21.220  -0.814  -4.186  1.00  0.00     0.122 C 
BRANCH  29  30
HETATM   30  N3  UNL     1      21.231  -1.473  -5.509  1.00  0.00    -0.367 N 
HETATM   31  C13 UNL     1      21.631  -2.688  -5.595  1.00  0.00     0.196 C 
HETATM   32  N4  UNL     1      22.055  -3.390  -4.444  1.00  0.00    -0.067 NA
HETATM   33  N5  UNL     1      21.646  -3.326  -6.854  1.00  0.00    -0.067 NA
ATOM     34  H3  UNL     1      20.925  -0.970  -6.341  1.00  0.00     0.161 HD
ENDBRANCH  29  30
ENDBRANCH  28  29
ENDBRANCH  27  28
ENDBRANCH   9  27
BRANCH  12  35
HETATM   35  O2  UNL     1      26.281   0.320  -6.282  1.00  0.00    -0.344 OA
ATOM     36  H2  UNL     1      25.671   0.909  -6.711  1.00  0.00     0.219 HD
ENDBRANCH  12  35
BRANCH   2  37
HETATM   37  O1  UNL     1      24.777  -4.593  -3.564  1.00  0.00    -0.346 OA
ATOM     38  H1  UNL     1      24.203  -5.145  -3.048  1.00  0.00     0.219 HD
ENDBRANCH   2  37
BRANCH   1  39
HETATM   39  C3  UNL     1      27.580  -3.836  -1.421  1.00  0.00     0.070 C 
BRANCH  39  40
HETATM   40  C2  UNL     1      27.027  -4.671  -0.332  1.00  0.00    -0.032 C 
HETATM   41  C1  UNL     1      27.005  -5.984  -0.476  1.00  0.00     0.007 C 
ENDBRANCH  39  40
ENDBRANCH   1  39
BRANCH  14  42
HETATM   42  C19 UNL     1      27.927   2.849  -2.825  1.00  0.00     0.031 C 
HETATM   43  C20 UNL     1      28.855   2.665  -1.616  1.00  0.00     0.010 C 
ENDBRANCH  14  42
BRANCH  26  44
HETATM   44  C30 UNL     1      28.366  -5.434  -4.147  1.00  0.00     0.251 C 
HETATM   45  O5  UNL     1      28.152  -6.465  -3.502  1.00  0.00    -0.268 OA
HETATM   46  N9  UNL     1      29.355  -5.492  -5.160  1.00  0.00    -0.361 N 
HETATM   47  C31 UNL     1      30.057  -6.765  -5.380  1.00  0.00     0.149 C 
ATOM     48  H9  UNL     1      29.575  -4.670  -5.722  1.00  0.00     0.162 HD
ENDBRANCH  26  44
BRANCH  18  49
HETATM   49  O3  UNL     1      29.591  -0.186  -6.284  1.00  0.00    -0.348 OA
ATOM     50  H3  UNL     1      29.408  -1.116  -6.210  1.00  0.00     0.219 HD
ENDBRANCH  18  49
BRANCH  19  51
HETATM   51  C23 UNL     1      31.541   1.607  -4.563  1.00  0.00     0.008 C 
HETATM   52  C24 UNL     1      32.147   1.893  -3.204  1.00  0.00     0.012 C 
HETATM   53  C25 UNL     1      32.589   1.192  -5.551  1.00  0.00     0.012 C 
ENDBRANCH  19  51
TORSDOF 12
ENDMDL
MODEL 4
REMARK VINA RESULT: -4.420958401      1.538      1.799
REMARK  12 active torsions:
REMARK  status: ('A' for Active; 'I' for Inactive)
REMARK    1  A    between atoms: C2_2  and  C3_3 
REMARK    2  A    between atoms: C3_3  and  C4_4 
REMARK    3  A    between atoms: C5_5  and  O1_6 
REMARK    4  A    between atoms: C9_14  and  C10_15 
REMARK    5  A    between atoms: C10_15  and  C11_16 
REMARK    6  A    between atoms: C11_16  and  C12_17 
REMARK    7  A    between atoms: C12_17  and  N3_18 
REMARK    8  A    between atoms: C15_25  and  O2_26 
REMARK    9  A    between atoms: C17_29  and  C19_31 
REMARK   10  A    between atoms: C21_35  and  O3_36 
REMARK   11  A    between atoms: C22_38  and  C23_39 
REMARK   12  A    between atoms: C29_48  and  C30_49 
REMARK       I    between atoms: C30_49  and  N9_51 
ROOT
HETATM    1  C4  UNL     1      26.632  -3.728  -2.028  1.00  0.00     0.011 C 
HETATM    2  C5  UNL     1      25.318  -3.151  -1.820  1.00  0.00     0.149 C 
HETATM    3  N1  UNL     1      24.768  -1.991  -1.318  1.00  0.00    -0.321 N 
ATOM      4  H1  UNL     1      24.348  -2.180  -0.408  1.00  0.00     0.169 HD
HETATM    5  C6  UNL     1      24.588  -0.590  -1.650  1.00  0.00     0.127 C 
HETATM    6  N2  UNL     1      24.846   0.201  -0.663  1.00  0.00    -0.374 N 
HETATM    7  C7  UNL     1      24.824   1.606  -0.490  1.00  0.00     0.150 C 
HETATM    8  C8  UNL     1      25.220  -0.457   0.656  1.00  0.00     0.150 C 
HETATM    9  C9  UNL     1      24.045  -0.119  -2.936  1.00  0.00     0.057 C 
HETATM   10  N6  UNL     1      24.776  -0.406  -4.157  1.00  0.00    -0.331 N 
HETATM   11  C14 UNL     1      24.353  -1.693  -4.823  1.00  0.00     0.158 C 
HETATM   12  C15 UNL     1      25.727   0.269  -4.898  1.00  0.00     0.170 C 
HETATM   13  C16 UNL     1      26.884   1.162  -4.828  1.00  0.00     0.087 C 
HETATM   14  C17 UNL     1      27.458   1.653  -3.596  1.00  0.00    -0.053 C 
HETATM   15  C18 UNL     1      28.017   0.779  -2.564  1.00  0.00     0.046 C 
HETATM   16  N7  UNL     1      27.837   0.905  -5.903  1.00  0.00    -0.335 N 
ATOM     17  H7  UNL     1      27.735   1.554  -6.684  1.00  0.00     0.168 HD
HETATM   18  C21 UNL     1      28.851  -0.019  -6.104  1.00  0.00     0.139 C 
HETATM   19  C22 UNL     1      30.195  -0.170  -5.502  1.00  0.00     0.162 C 
HETATM   20  N8  UNL     1      30.705  -1.521  -5.599  1.00  0.00    -0.348 N 
ATOM     21  H8  UNL     1      31.645  -1.627  -5.980  1.00  0.00     0.163 HD
HETATM   22  C26 UNL     1      30.040  -2.705  -5.225  1.00  0.00     0.221 C 
HETATM   23  O4  UNL     1      30.050  -3.665  -6.049  1.00  0.00    -0.273 OA
HETATM   24  C27 UNL     1      29.319  -2.949  -3.947  1.00  0.00     0.131 C 
HETATM   25  C28 UNL     1      27.891  -3.120  -4.148  1.00  0.00     0.000 C 
HETATM   26  C29 UNL     1      27.071  -4.089  -3.418  1.00  0.00     0.039 C 
ENDROOT
BRANCH   9  27
HETATM   27  C10 UNL     1      23.460   1.273  -2.965  1.00  0.00     0.063 C 
BRANCH  27  28
HETATM   28  C11 UNL     1      21.962   1.306  -3.308  1.00  0.00     0.026 C 
BRANCH  28  29
HETATM   29  C12 UNL     1      21.174   0.248  -2.584  1.00  0.00     0.122 C 
BRANCH  29  30
HETATM   30  N3  UNL     1      20.701  -0.753  -3.564  1.00  0.00    -0.367 N 
HETATM   31  C13 UNL     1      20.914  -1.996  -3.335  1.00  0.00     0.196 C 
HETATM   32  N4  UNL     1      21.589  -2.407  -2.163  1.00  0.00    -0.067 NA
HETATM   33  N5  UNL     1      20.467  -2.959  -4.264  1.00  0.00    -0.067 NA
ATOM     34  H3  UNL     1      20.213  -0.459  -4.409  1.00  0.00     0.161 HD
ENDBRANCH  29  30
ENDBRANCH  28  29
ENDBRANCH  27  28
ENDBRANCH   9  27
BRANCH  12  35
HETATM   35  O2  UNL     1      25.562   0.050  -6.226  1.00  0.00    -0.344 OA
ATOM     36  H2  UNL     1      25.353   0.855  -6.685  1.00  0.00     0.219 HD
ENDBRANCH  12  35
BRANCH   2  37
HETATM   37  O1  UNL     1      24.389  -4.011  -2.237  1.00  0.00    -0.346 OA
ATOM     38  H1  UNL     1      24.020  -3.702  -3.055  1.00  0.00     0.219 HD
ENDBRANCH   2  37
BRANCH   1  39
HETATM   39  C3  UNL     1      27.749  -3.348  -1.102  1.00  0.00     0.070 C 
BRANCH  39  40
HETATM   40  C2  UNL     1      27.427  -3.847   0.252  1.00  0.00    -0.032 C 
HETATM   41  C1  UNL     1      27.814  -3.149   1.306  1.00  0.00     0.007 C 
ENDBRANCH  39  40
ENDBRANCH   1  39
BRANCH  14  42
HETATM   42  C19 UNL     1      28.382   2.847  -3.928  1.00  0.00     0.031 C 
HETATM   43  C20 UNL     1      29.487   2.847  -2.862  1.00  0.00     0.010 C 
ENDBRANCH  14  42
BRANCH  26  44
HETATM   44  C30 UNL     1      27.554  -5.501  -3.537  1.00  0.00     0.251 C 
HETATM   45  O5  UNL     1      27.379  -6.371  -2.678  1.00  0.00    -0.268 OA
HETATM   46  N9  UNL     1      28.258  -5.874  -4.708  1.00  0.00    -0.361 N 
HETATM   47  C31 UNL     1      28.731  -7.262  -4.828  1.00  0.00     0.149 C 
ATOM     48  H9  UNL     1      28.434  -5.197  -5.450  1.00  0.00     0.162 HD
ENDBRANCH  26  44
BRANCH  18  49
HETATM   49  O3  UNL     1      28.662  -0.969  -6.977  1.00  0.00    -0.348 OA
ATOM     50  H3  UNL     1      29.059  -1.818  -6.817  1.00  0.00     0.219 HD
ENDBRANCH  18  49
BRANCH  19  51
HETATM   51  C23 UNL     1      31.200   0.763  -6.238  1.00  0.00     0.008 C 
HETATM   52  C24 UNL     1      31.964   1.462  -5.133  1.00  0.00     0.012 C 
HETATM   53  C25 UNL     1      32.115  -0.046  -7.108  1.00  0.00     0.012 C 
ENDBRANCH  19  51
TORSDOF 12
ENDMDL
MODEL 5
REMARK VINA RESULT: -4.128005244      2.377      6.219
REMARK  12 active torsions:
REMARK  status: ('A' for Active; 'I' for Inactive)
REMARK    1  A    between atoms: C2_2  and  C3_3 
REMARK    2  A    between atoms: C3_3  and  C4_4 
REMARK    3  A    between atoms: C5_5  and  O1_6 
REMARK    4  A    between atoms: C9_14  and  C10_15 
REMARK    5  A    between atoms: C10_15  and  C11_16 
REMARK    6  A    between atoms: C11_16  and  C12_17 
REMARK    7  A    between atoms: C12_17  and  N3_18 
REMARK    8  A    between atoms: C15_25  and  O2_26 
REMARK    9  A    between atoms: C17_29  and  C19_31 
REMARK   10  A    between atoms: C21_35  and  O3_36 
REMARK   11  A    between atoms: C22_38  and  C23_39 
REMARK   12  A    between atoms: C29_48  and  C30_49 
REMARK       I    between atoms: C30_49  and  N9_51 
ROOT
HETATM    1  C4  UNL     1      25.471   0.215  -5.533  1.00  0.00     0.011 C 
HETATM    2  C5  UNL     1      24.785   0.745  -4.371  1.00  0.00     0.149 C 
HETATM    3  N1  UNL     1      23.827   0.341  -3.465  1.00  0.00    -0.321 N 
ATOM      4  H1  UNL     1      22.949   0.825  -3.660  1.00  0.00     0.169 HD
HETATM    5  C6  UNL     1      23.648  -0.542  -2.328  1.00  0.00     0.127 C 
HETATM    6  N2  UNL     1      22.554  -1.225  -2.385  1.00  0.00    -0.374 N 
HETATM    7  C7  UNL     1      21.948  -2.193  -1.549  1.00  0.00     0.150 C 
HETATM    8  C8  UNL     1      21.639  -0.946  -3.567  1.00  0.00     0.150 C 
HETATM    9  C9  UNL     1      24.550  -0.567  -1.164  1.00  0.00     0.057 C 
HETATM   10  N6  UNL     1      25.938  -0.951  -1.357  1.00  0.00    -0.331 N 
HETATM   11  C14 UNL     1      26.853   0.219  -1.629  1.00  0.00     0.158 C 
HETATM   12  C15 UNL     1      26.634  -2.142  -1.275  1.00  0.00     0.170 C 
HETATM   13  C16 UNL     1      26.566  -3.585  -1.510  1.00  0.00     0.087 C 
HETATM   14  C17 UNL     1      25.417  -4.264  -2.065  1.00  0.00    -0.053 C 
HETATM   15  C18 UNL     1      24.877  -3.980  -3.395  1.00  0.00     0.046 C 
HETATM   16  N7  UNL     1      27.862  -4.138  -1.889  1.00  0.00    -0.335 N 
ATOM     17  H7  UNL     1      28.351  -4.569  -1.105  1.00  0.00     0.168 HD
HETATM   18  C21 UNL     1      28.580  -4.210  -3.073  1.00  0.00     0.139 C 
HETATM   19  C22 UNL     1      28.396  -5.014  -4.302  1.00  0.00     0.162 C 
HETATM   20  N8  UNL     1      29.032  -4.424  -5.460  1.00  0.00    -0.348 N 
ATOM     21  H8  UNL     1      29.640  -5.034  -6.007  1.00  0.00     0.163 HD
HETATM   22  C26 UNL     1      28.901  -3.097  -5.911  1.00  0.00     0.221 C 
HETATM   23  O4  UNL     1      29.963  -2.473  -6.204  1.00  0.00    -0.273 OA
HETATM   24  C27 UNL     1      27.632  -2.342  -6.084  1.00  0.00     0.131 C 
HETATM   25  C28 UNL     1      27.529  -1.226  -5.160  1.00  0.00     0.000 C 
HETATM   26  C29 UNL     1      26.967   0.080  -5.511  1.00  0.00     0.039 C 
ENDROOT
BRANCH   9  27
HETATM   27  C10 UNL     1      24.000  -1.142   0.119  1.00  0.00     0.063 C 
BRANCH  27  28
HETATM   28  C11 UNL     1      24.150  -0.205   1.329  1.00  0.00     0.026 C 
BRANCH  28  29
HETATM   29  C12 UNL     1      24.943  -0.820   2.449  1.00  0.00     0.122 C 
BRANCH  29  30
HETATM   30  N3  UNL     1      25.968  -1.718   1.874  1.00  0.00    -0.367 N 
HETATM   31  C13 UNL     1      26.885  -2.185   2.638  1.00  0.00     0.196 C 
HETATM   32  N4  UNL     1      26.919  -1.848   4.010  1.00  0.00    -0.067 NA
HETATM   33  N5  UNL     1      27.867  -3.042   2.099  1.00  0.00    -0.067 NA
ATOM     34  H3  UNL     1      25.945  -1.964   0.885  1.00  0.00     0.161 HD
ENDBRANCH  29  30
ENDBRANCH  28  29
ENDBRANCH  27  28
ENDBRANCH   9  27
BRANCH  12  35
HETATM   35  O2  UNL     1      27.883  -1.949  -0.785  1.00  0.00    -0.344 OA
ATOM     36  H2  UNL     1      28.540  -2.070  -1.460  1.00  0.00     0.219 HD
ENDBRANCH  12  35
BRANCH   2  37
HETATM   37  O1  UNL     1      25.215   1.983  -4.132  1.00  0.00    -0.346 OA
ATOM     38  H1  UNL     1      25.978   1.947  -3.566  1.00  0.00     0.219 HD
ENDBRANCH   2  37
BRANCH   1  39
HETATM   39  C3  UNL     1      24.769  -0.786  -6.401  1.00  0.00     0.070 C 
BRANCH  39  40
HETATM   40  C2  UNL     1      23.697  -0.091  -7.147  1.00  0.00    -0.032 C 
HETATM   41  C1  UNL     1      22.506  -0.656  -7.239  1.00  0.00     0.007 C 
ENDBRANCH  39  40
ENDBRANCH   1  39
BRANCH  14  42
HETATM   42  C19 UNL     1      25.567  -5.779  -1.796  1.00  0.00     0.031 C 
HETATM   43  C20 UNL     1      25.213  -6.488  -3.110  1.00  0.00     0.010 C 
ENDBRANCH  14  42
BRANCH  26  44
HETATM   44  C30 UNL     1      27.636   0.732  -6.681  1.00  0.00     0.251 C 
HETATM   45  O5  UNL     1      27.051   1.425  -7.520  1.00  0.00    -0.268 OA
HETATM   46  N9  UNL     1      29.031   0.547  -6.847  1.00  0.00    -0.361 N 
HETATM   47  C31 UNL     1      29.690   1.189  -7.993  1.00  0.00     0.149 C 
ATOM     48  H9  UNL     1      29.564  -0.018  -6.186  1.00  0.00     0.162 HD
ENDBRANCH  26  44
BRANCH  18  49
HETATM   49  O3  UNL     1      29.636  -3.456  -3.207  1.00  0.00    -0.348 OA
ATOM     50  H3  UNL     1      30.492  -3.870  -3.202  1.00  0.00     0.219 HD
ENDBRANCH  18  49
BRANCH  19  51
HETATM   51  C23 UNL     1      29.020  -6.425  -4.095  1.00  0.00     0.008 C 
HETATM   52  C24 UNL     1      28.105  -7.369  -4.847  1.00  0.00     0.012 C 
HETATM   53  C25 UNL     1      30.414  -6.461  -4.645  1.00  0.00     0.012 C 
ENDBRANCH  19  51
TORSDOF 12
ENDMDL
