MODEL 1
REMARK VINA RESULT: -8.206460030      0.000      0.000
REMARK  20 active torsions:
REMARK  status: ('A' for Active; 'I' for Inactive)
REMARK    1  A    between atoms: C3_4  and  O2_5 
REMARK    2  A    between atoms: O2_5  and  C4_6 
REMARK    3  A    between atoms: C6_9  and  O4_10 
REMARK    4  A    between atoms: C8_13  and  O5_14 
REMARK    5  A    between atoms: C9_16  and  O6_17 
REMARK    6  A    between atoms: C10_19  and  O7_20 
REMARK    7  A    between atoms: O7_20  and  C11_21 
REMARK    8  A    between atoms: C12_23  and  O9_24 
REMARK    9  A    between atoms: C14_28  and  O10_29 
REMARK   10  A    between atoms: O10_29  and  C15_30 
REMARK   11  A    between atoms: C15_30  and  C16_31 
REMARK   12  A    between atoms: C16_31  and  O11_32 
REMARK   13  A    between atoms: C16_31  and  C17_34 
REMARK   14  A    between atoms: C18_36  and  C19_37 
REMARK   15  A    between atoms: C19_37  and  O13_38 
REMARK   16  A    between atoms: C20_40  and  O14_41 
REMARK   17  A    between atoms: C21_43  and  O15_44 
REMARK   18  A    between atoms: C22_46  and  O16_47 
REMARK   19  A    between atoms: C23_50  and  C24_51 
REMARK   20  A    between atoms: C24_51  and  O18_52 
ROOT
HETATM    1  C11 UNL     1      -7.227  -4.169  14.051  1.00  0.00     0.296 C 
HETATM    2  O8  UNL     1      -8.487  -4.007  13.527  1.00  0.00    -0.306 OA
HETATM    3  C12 UNL     1      -8.543  -3.910  12.157  1.00  0.00     0.309 C 
HETATM    4  C13 UNL     1      -9.946  -4.084  11.782  1.00  0.00     0.134 C 
HETATM    5  N1  UNL     1     -11.060  -4.232  11.472  1.00  0.00    -0.191 NA
HETATM    6  C14 UNL     1      -7.659  -4.825  11.408  1.00  0.00     0.339 C 
HETATM    7  O17 UNL     1      -6.943  -5.710  12.215  1.00  0.00    -0.342 OA
HETATM    8  C23 UNL     1      -6.387  -5.179  13.328  1.00  0.00     0.203 C 
ENDROOT
BRANCH   3   9
HETATM    9  O9  UNL     1      -8.193  -2.593  11.851  1.00  0.00    -0.350 OA
ATOM     10  H9  UNL     1      -7.432  -2.650  11.285  1.00  0.00     0.214 HD
ENDBRANCH   3   9
BRANCH   6  11
HETATM   11  O10 UNL     1      -6.720  -4.187  10.626  1.00  0.00    -0.352 OA
BRANCH  11  12
HETATM   12  C15 UNL     1      -7.012  -4.130   9.293  1.00  0.00     0.205 C 
BRANCH  12  13
HETATM   13  C16 UNL     1      -6.976  -2.769   8.649  1.00  0.00     0.173 C 
BRANCH  13  14
HETATM   14  O11 UNL     1      -5.833  -2.574   7.889  1.00  0.00    -0.391 OA
ATOM     15  H11 UNL     1      -5.234  -1.954   8.288  1.00  0.00     0.210 HD
ENDBRANCH  13  14
BRANCH  13  16
HETATM   16  C17 UNL     1      -8.234  -2.523   7.828  1.00  0.00     0.184 C 
HETATM   17  O12 UNL     1      -9.323  -2.445   8.693  1.00  0.00    -0.370 OA
HETATM   18  C18 UNL     1     -10.460  -2.733   7.914  1.00  0.00     0.177 C 
HETATM   19  C20 UNL     1     -10.399  -2.084   6.567  1.00  0.00     0.180 C 
HETATM   20  C21 UNL     1      -9.545  -0.822   6.690  1.00  0.00     0.180 C 
HETATM   21  C22 UNL     1      -8.126  -1.287   6.987  1.00  0.00     0.181 C 
BRANCH  18  22
HETATM   22  C19 UNL     1     -11.718  -2.381   8.686  1.00  0.00     0.198 C 
BRANCH  22  23
HETATM   23  O13 UNL     1     -11.365  -1.553   9.741  1.00  0.00    -0.398 OA
ATOM     24  H13 UNL     1     -11.169  -2.096  10.495  1.00  0.00     0.209 HD
ENDBRANCH  22  23
ENDBRANCH  18  22
BRANCH  19  25
HETATM   25  O14 UNL     1     -11.634  -1.726   6.056  1.00  0.00    -0.390 OA
ATOM     26  H14 UNL     1     -11.661  -0.853   5.684  1.00  0.00     0.210 HD
ENDBRANCH  19  25
BRANCH  20  27
HETATM   27  O15 UNL     1      -9.562  -0.105   5.475  1.00  0.00    -0.390 OA
ATOM     28  H15 UNL     1      -8.676   0.124   5.219  1.00  0.00     0.210 HD
ENDBRANCH  20  27
BRANCH  21  29
HETATM   29  O16 UNL     1      -7.403  -0.273   7.604  1.00  0.00    -0.390 OA
ATOM     30  H16 UNL     1      -6.720   0.087   7.049  1.00  0.00     0.210 HD
ENDBRANCH  21  29
ENDBRANCH  13  16
ENDBRANCH  12  13
ENDBRANCH  11  12
ENDBRANCH   6  11
BRANCH   1  31
HETATM   31  O7  UNL     1      -6.634  -2.915  14.105  1.00  0.00    -0.348 OA
BRANCH  31  32
HETATM   32  C10 UNL     1      -7.262  -2.147  15.039  1.00  0.00     0.184 C 
HETATM   33  C2  UNL     1      -6.677  -2.305  16.432  1.00  0.00     0.152 C 
HETATM   34  C1  UNL     1      -5.202  -1.933  16.421  1.00  0.00     0.042 C 
HETATM   35  O1  UNL     1      -7.328  -1.608  17.376  1.00  0.00    -0.351 OA
HETATM   36  C3  UNL     1      -8.242  -0.676  17.006  1.00  0.00     0.298 C 
HETATM   37  C8  UNL     1      -8.020   0.036  15.721  1.00  0.00     0.205 C 
HETATM   38  C9  UNL     1      -7.098  -0.645  14.766  1.00  0.00     0.183 C 
BRANCH  36  39
HETATM   39  O2  UNL     1      -8.332   0.291  18.032  1.00  0.00    -0.316 OA
BRANCH  39  40
HETATM   40  C4  UNL     1      -9.415   0.425  18.883  1.00  0.00     0.099 A 
HETATM   41  C5  UNL     1     -10.655   0.935  18.571  1.00  0.00     0.181 A 
HETATM   42  O3  UNL     1     -11.429   0.899  19.657  1.00  0.00    -0.298 OA
HETATM   43  C6  UNL     1     -10.770   0.392  20.670  1.00  0.00     0.185 A 
HETATM   44  C7  UNL     1      -9.503   0.084  20.223  1.00  0.00     0.102 A 
BRANCH  43  45
HETATM   45  O4  UNL     1     -11.287   0.210  21.965  1.00  0.00    -0.341 OA
ATOM     46  H4  UNL     1     -11.859  -0.500  22.231  1.00  0.00     0.220 HD
ENDBRANCH  43  45
ENDBRANCH  39  40
ENDBRANCH  36  39
BRANCH  37  47
HETATM   47  O5  UNL     1      -7.482   1.322  15.963  1.00  0.00    -0.388 OA
ATOM     48  H5  UNL     1      -8.118   1.990  15.734  1.00  0.00     0.210 HD
ENDBRANCH  37  47
BRANCH  38  49
HETATM   49  O6  UNL     1      -7.410  -0.339  13.449  1.00  0.00    -0.390 OA
ATOM     50  H6  UNL     1      -7.597  -1.120  12.943  1.00  0.00     0.210 HD
ENDBRANCH  38  49
ENDBRANCH  31  32
ENDBRANCH   1  31
BRANCH   8  51
HETATM   51  C24 UNL     1      -5.988  -6.338  14.245  1.00  0.00     0.201 C 
BRANCH  51  52
HETATM   52  O18 UNL     1      -6.957  -6.521  15.257  1.00  0.00    -0.398 OA
ATOM     53  H18 UNL     1      -7.764  -6.857  14.885  1.00  0.00     0.209 HD
ENDBRANCH  51  52
ENDBRANCH   8  51
TORSDOF 20
ENDMDL
MODEL 2
REMARK VINA RESULT: -8.081856047      1.426      1.961
REMARK  20 active torsions:
REMARK  status: ('A' for Active; 'I' for Inactive)
REMARK    1  A    between atoms: C3_4  and  O2_5 
REMARK    2  A    between atoms: O2_5  and  C4_6 
REMARK    3  A    between atoms: C6_9  and  O4_10 
REMARK    4  A    between atoms: C8_13  and  O5_14 
REMARK    5  A    between atoms: C9_16  and  O6_17 
REMARK    6  A    between atoms: C10_19  and  O7_20 
REMARK    7  A    between atoms: O7_20  and  C11_21 
REMARK    8  A    between atoms: C12_23  and  O9_24 
REMARK    9  A    between atoms: C14_28  and  O10_29 
REMARK   10  A    between atoms: O10_29  and  C15_30 
REMARK   11  A    between atoms: C15_30  and  C16_31 
REMARK   12  A    between atoms: C16_31  and  O11_32 
REMARK   13  A    between atoms: C16_31  and  C17_34 
REMARK   14  A    between atoms: C18_36  and  C19_37 
REMARK   15  A    between atoms: C19_37  and  O13_38 
REMARK   16  A    between atoms: C20_40  and  O14_41 
REMARK   17  A    between atoms: C21_43  and  O15_44 
REMARK   18  A    between atoms: C22_46  and  O16_47 
REMARK   19  A    between atoms: C23_50  and  C24_51 
REMARK   20  A    between atoms: C24_51  and  O18_52 
ROOT
HETATM    1  C11 UNL     1      -7.163  -4.129  14.100  1.00  0.00     0.296 C 
HETATM    2  O8  UNL     1      -8.427  -3.981  13.583  1.00  0.00    -0.306 OA
HETATM    3  C12 UNL     1      -8.494  -3.913  12.211  1.00  0.00     0.309 C 
HETATM    4  C13 UNL     1      -9.900  -4.098  11.851  1.00  0.00     0.134 C 
HETATM    5  N1  UNL     1     -11.015  -4.255  11.552  1.00  0.00    -0.191 NA
HETATM    6  C14 UNL     1      -7.614  -4.841  11.475  1.00  0.00     0.339 C 
HETATM    7  O17 UNL     1      -6.889  -5.707  12.294  1.00  0.00    -0.342 OA
HETATM    8  C23 UNL     1      -6.326  -5.151  13.392  1.00  0.00     0.203 C 
ENDROOT
BRANCH   3   9
HETATM    9  O9  UNL     1      -8.150  -2.602  11.875  1.00  0.00    -0.350 OA
ATOM     10  H9  UNL     1      -8.377  -2.499  10.959  1.00  0.00     0.214 HD
ENDBRANCH   3   9
BRANCH   6  11
HETATM   11  O10 UNL     1      -6.681  -4.217  10.673  1.00  0.00    -0.352 OA
BRANCH  11  12
HETATM   12  C15 UNL     1      -6.999  -4.160   9.345  1.00  0.00     0.205 C 
BRANCH  12  13
HETATM   13  C16 UNL     1      -6.974  -2.800   8.700  1.00  0.00     0.173 C 
BRANCH  13  14
HETATM   14  O11 UNL     1      -5.843  -2.604   7.923  1.00  0.00    -0.391 OA
ATOM     15  H11 UNL     1      -6.039  -2.175   7.099  1.00  0.00     0.210 HD
ENDBRANCH  13  14
BRANCH  13  16
HETATM   16  C17 UNL     1      -8.244  -2.554   7.897  1.00  0.00     0.184 C 
HETATM   17  O12 UNL     1      -9.312  -2.426   8.782  1.00  0.00    -0.370 OA
HETATM   18  C18 UNL     1     -10.471  -2.716   8.037  1.00  0.00     0.177 C 
HETATM   19  C20 UNL     1     -10.426  -2.112   6.668  1.00  0.00     0.180 C 
HETATM   20  C21 UNL     1      -9.546  -0.865   6.731  1.00  0.00     0.180 C 
HETATM   21  C22 UNL     1      -8.130  -1.349   7.014  1.00  0.00     0.181 C 
BRANCH  18  22
HETATM   22  C19 UNL     1     -11.705  -2.313   8.823  1.00  0.00     0.198 C 
BRANCH  22  23
HETATM   23  O13 UNL     1     -12.618  -3.356   8.766  1.00  0.00    -0.398 OA
ATOM     24  H13 UNL     1     -12.376  -4.001   9.419  1.00  0.00     0.209 HD
ENDBRANCH  22  23
ENDBRANCH  18  22
BRANCH  19  25
HETATM   25  O14 UNL     1     -11.665  -1.747   6.172  1.00  0.00    -0.390 OA
ATOM     26  H14 UNL     1     -11.700  -0.860   5.834  1.00  0.00     0.210 HD
ENDBRANCH  19  25
BRANCH  20  27
HETATM   27  O15 UNL     1      -9.574  -0.189   5.494  1.00  0.00    -0.390 OA
ATOM     28  H15 UNL     1     -10.456   0.108   5.304  1.00  0.00     0.210 HD
ENDBRANCH  20  27
BRANCH  21  29
HETATM   29  O16 UNL     1      -7.374  -0.330   7.582  1.00  0.00    -0.390 OA
ATOM     30  H16 UNL     1      -6.596  -0.120   7.077  1.00  0.00     0.210 HD
ENDBRANCH  21  29
ENDBRANCH  13  16
ENDBRANCH  12  13
ENDBRANCH  11  12
ENDBRANCH   6  11
BRANCH   1  31
HETATM   31  O7  UNL     1      -6.573  -2.872  14.124  1.00  0.00    -0.348 OA
BRANCH  31  32
HETATM   32  C10 UNL     1      -7.172  -2.099  15.072  1.00  0.00     0.184 C 
HETATM   33  C2  UNL     1      -6.530  -2.233  16.442  1.00  0.00     0.152 C 
HETATM   34  C1  UNL     1      -5.061  -1.846  16.368  1.00  0.00     0.042 C 
HETATM   35  O1  UNL     1      -7.150  -1.531  17.403  1.00  0.00    -0.351 OA
HETATM   36  C3  UNL     1      -8.089  -0.612  17.058  1.00  0.00     0.298 C 
HETATM   37  C8  UNL     1      -7.925   0.085  15.756  1.00  0.00     0.205 C 
HETATM   38  C9  UNL     1      -7.035  -0.599  14.774  1.00  0.00     0.183 C 
BRANCH  36  39
HETATM   39  O2  UNL     1      -8.148   0.366  18.074  1.00  0.00    -0.316 OA
BRANCH  39  40
HETATM   40  C4  UNL     1      -7.139   0.599  18.992  1.00  0.00     0.099 A 
HETATM   41  C5  UNL     1      -7.279   0.770  20.350  1.00  0.00     0.181 A 
HETATM   42  O3  UNL     1      -6.077   0.972  20.892  1.00  0.00    -0.298 OA
HETATM   43  C6  UNL     1      -5.149   0.944  19.967  1.00  0.00     0.185 A 
HETATM   44  C7  UNL     1      -5.778   0.713  18.762  1.00  0.00     0.102 A 
BRANCH  43  45
HETATM   45  O4  UNL     1      -3.773   1.120  20.193  1.00  0.00    -0.341 OA
ATOM     46  H4  UNL     1      -3.225   0.545  20.715  1.00  0.00     0.220 HD
ENDBRANCH  43  45
ENDBRANCH  39  40
ENDBRANCH  36  39
BRANCH  37  47
HETATM   47  O5  UNL     1      -7.393   1.379  15.961  1.00  0.00    -0.388 OA
ATOM     48  H5  UNL     1      -7.410   1.872  15.148  1.00  0.00     0.210 HD
ENDBRANCH  37  47
BRANCH  38  49
HETATM   49  O6  UNL     1      -7.402  -0.313  13.467  1.00  0.00    -0.390 OA
ATOM     50  H6  UNL     1      -6.733  -0.583  12.848  1.00  0.00     0.210 HD
ENDBRANCH  38  49
ENDBRANCH  31  32
ENDBRANCH   1  31
BRANCH   8  51
HETATM   51  C24 UNL     1      -5.917  -6.291  14.330  1.00  0.00     0.201 C 
BRANCH  51  52
HETATM   52  O18 UNL     1      -6.950  -6.562  15.254  1.00  0.00    -0.398 OA
ATOM     53  H18 UNL     1      -7.622  -5.893  15.204  1.00  0.00     0.209 HD
ENDBRANCH  51  52
ENDBRANCH   8  51
TORSDOF 20
ENDMDL
MODEL 3
REMARK VINA RESULT: -7.897837720      2.524      6.480
REMARK  20 active torsions:
REMARK  status: ('A' for Active; 'I' for Inactive)
REMARK    1  A    between atoms: C3_4  and  O2_5 
REMARK    2  A    between atoms: O2_5  and  C4_6 
REMARK    3  A    between atoms: C6_9  and  O4_10 
REMARK    4  A    between atoms: C8_13  and  O5_14 
REMARK    5  A    between atoms: C9_16  and  O6_17 
REMARK    6  A    between atoms: C10_19  and  O7_20 
REMARK    7  A    between atoms: O7_20  and  C11_21 
REMARK    8  A    between atoms: C12_23  and  O9_24 
REMARK    9  A    between atoms: C14_28  and  O10_29 
REMARK   10  A    between atoms: O10_29  and  C15_30 
REMARK   11  A    between atoms: C15_30  and  C16_31 
REMARK   12  A    between atoms: C16_31  and  O11_32 
REMARK   13  A    between atoms: C16_31  and  C17_34 
REMARK   14  A    between atoms: C18_36  and  C19_37 
REMARK   15  A    between atoms: C19_37  and  O13_38 
REMARK   16  A    between atoms: C20_40  and  O14_41 
REMARK   17  A    between atoms: C21_43  and  O15_44 
REMARK   18  A    between atoms: C22_46  and  O16_47 
REMARK   19  A    between atoms: C23_50  and  C24_51 
REMARK   20  A    between atoms: C24_51  and  O18_52 
ROOT
HETATM    1  C11 UNL     1     -10.317  -1.684  11.075  1.00  0.00     0.296 C 
HETATM    2  O8  UNL     1      -9.997  -1.636   9.740  1.00  0.00    -0.306 OA
HETATM    3  C12 UNL     1      -8.718  -2.032   9.429  1.00  0.00     0.309 C 
HETATM    4  C13 UNL     1      -8.681  -2.234   7.981  1.00  0.00     0.134 C 
HETATM    5  N1  UNL     1      -8.645  -2.408   6.829  1.00  0.00    -0.191 NA
HETATM    6  C14 UNL     1      -8.212  -3.212  10.159  1.00  0.00     0.339 C 
HETATM    7  O17 UNL     1      -9.148  -3.796  11.013  1.00  0.00    -0.342 OA
HETATM    8  C23 UNL     1      -9.877  -2.940  11.766  1.00  0.00     0.203 C 
ENDROOT
BRANCH   3   9
HETATM    9  O9  UNL     1      -7.897  -0.939   9.715  1.00  0.00    -0.350 OA
ATOM     10  H9  UNL     1      -7.804  -0.462   8.899  1.00  0.00     0.214 HD
ENDBRANCH   3   9
BRANCH   6  11
HETATM   11  O10 UNL     1      -7.101  -2.961  10.936  1.00  0.00    -0.352 OA
BRANCH  11  12
HETATM   12  C15 UNL     1      -6.295  -4.039  11.167  1.00  0.00     0.205 C 
BRANCH  12  13
HETATM   13  C16 UNL     1      -6.899  -5.184  11.936  1.00  0.00     0.173 C 
BRANCH  13  14
HETATM   14  O11 UNL     1      -7.259  -6.241  11.114  1.00  0.00    -0.391 OA
ATOM     15  H11 UNL     1      -8.053  -6.673  11.406  1.00  0.00     0.210 HD
ENDBRANCH  13  14
BRANCH  13  16
HETATM   16  C17 UNL     1      -5.967  -5.644  13.049  1.00  0.00     0.184 C 
HETATM   17  O12 UNL     1      -5.745  -4.574  13.913  1.00  0.00    -0.370 OA
HETATM   18  C18 UNL     1      -4.540  -4.860  14.583  1.00  0.00     0.177 C 
HETATM   19  C20 UNL     1      -4.440  -6.300  14.974  1.00  0.00     0.180 C 
HETATM   20  C21 UNL     1      -5.859  -6.837  15.164  1.00  0.00     0.180 C 
HETATM   21  C22 UNL     1      -6.512  -6.828  13.788  1.00  0.00     0.181 C 
BRANCH  18  22
HETATM   22  C19 UNL     1      -4.364  -3.912  15.756  1.00  0.00     0.198 C 
BRANCH  22  23
HETATM   23  O13 UNL     1      -3.006  -3.756  15.990  1.00  0.00    -0.398 OA
ATOM     24  H13 UNL     1      -2.843  -2.845  16.204  1.00  0.00     0.209 HD
ENDBRANCH  22  23
ENDBRANCH  18  22
BRANCH  19  25
HETATM   25  O14 UNL     1      -3.731  -6.521  16.141  1.00  0.00    -0.390 OA
ATOM     26  H14 UNL     1      -4.276  -6.716  16.894  1.00  0.00     0.210 HD
ENDBRANCH  19  25
BRANCH  20  27
HETATM   27  O15 UNL     1      -5.815  -8.158  15.656  1.00  0.00    -0.390 OA
ATOM     28  H15 UNL     1      -6.215  -8.199  16.517  1.00  0.00     0.210 HD
ENDBRANCH  20  27
BRANCH  21  29
HETATM   29  O16 UNL     1      -7.897  -6.802  13.909  1.00  0.00    -0.390 OA
ATOM     30  H16 UNL     1      -8.287  -7.668  13.888  1.00  0.00     0.210 HD
ENDBRANCH  21  29
ENDBRANCH  13  16
ENDBRANCH  12  13
ENDBRANCH  11  12
ENDBRANCH   6  11
BRANCH   1  31
HETATM   31  O7  UNL     1      -9.807  -0.536  11.667  1.00  0.00    -0.348 OA
BRANCH  31  32
HETATM   32  C10 UNL     1      -9.513  -0.782  12.974  1.00  0.00     0.184 C 
HETATM   33  C2  UNL     1      -8.196  -0.168  13.414  1.00  0.00     0.152 C 
HETATM   34  C1  UNL     1      -8.230   1.339  13.208  1.00  0.00     0.042 C 
HETATM   35  O1  UNL     1      -7.857  -0.459  14.679  1.00  0.00    -0.351 OA
HETATM   36  C3  UNL     1      -8.774  -1.030  15.501  1.00  0.00     0.298 C 
HETATM   37  C8  UNL     1     -10.203  -0.692  15.280  1.00  0.00     0.205 C 
HETATM   38  C9  UNL     1     -10.528  -0.143  13.931  1.00  0.00     0.183 C 
BRANCH  36  39
HETATM   39  O2  UNL     1      -8.447  -0.697  16.834  1.00  0.00    -0.316 OA
BRANCH  39  40
HETATM   40  C4  UNL     1      -7.154  -0.535  17.301  1.00  0.00     0.099 A 
HETATM   41  C5  UNL     1      -6.715   0.397  18.213  1.00  0.00     0.181 A 
HETATM   42  O3  UNL     1      -5.405   0.237  18.408  1.00  0.00    -0.298 OA
HETATM   43  C6  UNL     1      -4.953  -0.751  17.675  1.00  0.00     0.185 A 
HETATM   44  C7  UNL     1      -6.022  -1.259  16.967  1.00  0.00     0.102 A 
BRANCH  43  45
HETATM   45  O4  UNL     1      -3.618  -1.189  17.638  1.00  0.00    -0.341 OA
ATOM     46  H4  UNL     1      -3.184  -1.682  18.324  1.00  0.00     0.220 HD
ENDBRANCH  43  45
ENDBRANCH  39  40
ENDBRANCH  36  39
BRANCH  37  47
HETATM   47  O5  UNL     1     -10.628   0.269  16.227  1.00  0.00    -0.388 OA
ATOM     48  H5  UNL     1     -11.391   0.734  15.901  1.00  0.00     0.210 HD
ENDBRANCH  37  47
BRANCH  38  49
HETATM   49  O6  UNL     1     -11.829  -0.444  13.556  1.00  0.00    -0.390 OA
ATOM     50  H6  UNL     1     -11.932  -1.368  13.360  1.00  0.00     0.210 HD
ENDBRANCH  38  49
ENDBRANCH  31  32
ENDBRANCH   1  31
BRANCH   8  51
HETATM   51  C24 UNL     1     -11.069  -3.719  12.329  1.00  0.00     0.201 C 
BRANCH  51  52
HETATM   52  O18 UNL     1     -12.265  -2.991  12.141  1.00  0.00    -0.398 OA
ATOM     53  H18 UNL     1     -12.835  -3.444  11.531  1.00  0.00     0.209 HD
ENDBRANCH  51  52
ENDBRANCH   8  51
TORSDOF 20
ENDMDL
MODEL 4
REMARK VINA RESULT: -7.854476848      2.461      7.520
REMARK  20 active torsions:
REMARK  status: ('A' for Active; 'I' for Inactive)
REMARK    1  A    between atoms: C3_4  and  O2_5 
REMARK    2  A    between atoms: O2_5  and  C4_6 
REMARK    3  A    between atoms: C6_9  and  O4_10 
REMARK    4  A    between atoms: C8_13  and  O5_14 
REMARK    5  A    between atoms: C9_16  and  O6_17 
REMARK    6  A    between atoms: C10_19  and  O7_20 
REMARK    7  A    between atoms: O7_20  and  C11_21 
REMARK    8  A    between atoms: C12_23  and  O9_24 
REMARK    9  A    between atoms: C14_28  and  O10_29 
REMARK   10  A    between atoms: O10_29  and  C15_30 
REMARK   11  A    between atoms: C15_30  and  C16_31 
REMARK   12  A    between atoms: C16_31  and  O11_32 
REMARK   13  A    between atoms: C16_31  and  C17_34 
REMARK   14  A    between atoms: C18_36  and  C19_37 
REMARK   15  A    between atoms: C19_37  and  O13_38 
REMARK   16  A    between atoms: C20_40  and  O14_41 
REMARK   17  A    between atoms: C21_43  and  O15_44 
REMARK   18  A    between atoms: C22_46  and  O16_47 
REMARK   19  A    between atoms: C23_50  and  C24_51 
REMARK   20  A    between atoms: C24_51  and  O18_52 
ROOT
HETATM    1  C11 UNL     1      -8.231  -3.813  10.179  1.00  0.00     0.296 C 
HETATM    2  O8  UNL     1      -9.353  -3.120   9.794  1.00  0.00    -0.306 OA
HETATM    3  C12 UNL     1      -9.684  -2.051  10.592  1.00  0.00     0.309 C 
HETATM    4  C13 UNL     1     -10.667  -1.262   9.849  1.00  0.00     0.134 C 
HETATM    5  N1  UNL     1     -11.443  -0.621   9.262  1.00  0.00    -0.191 NA
HETATM    6  C14 UNL     1      -8.557  -1.220  11.059  1.00  0.00     0.339 C 
HETATM    7  O17 UNL     1      -7.315  -1.611  10.555  1.00  0.00    -0.342 OA
HETATM    8  C23 UNL     1      -7.069  -2.942  10.553  1.00  0.00     0.203 C 
ENDROOT
BRANCH   3   9
HETATM    9  O9  UNL     1     -10.338  -2.589  11.702  1.00  0.00    -0.350 OA
ATOM     10  H9  UNL     1     -10.827  -1.873  12.089  1.00  0.00     0.214 HD
ENDBRANCH   3   9
BRANCH   6  11
HETATM   11  O10 UNL     1      -8.410  -1.188  12.430  1.00  0.00    -0.352 OA
BRANCH  11  12
HETATM   12  C15 UNL     1      -8.254   0.057  12.971  1.00  0.00     0.205 C 
BRANCH  12  13
HETATM   13  C16 UNL     1      -7.317   0.174  14.143  1.00  0.00     0.173 C 
BRANCH  13  14
HETATM   14  O11 UNL     1      -6.634   1.380  14.156  1.00  0.00    -0.391 OA
ATOM     15  H11 UNL     1      -7.209   2.124  14.017  1.00  0.00     0.210 HD
ENDBRANCH  13  14
BRANCH  13  16
HETATM   16  C17 UNL     1      -8.055  -0.055  15.455  1.00  0.00     0.184 C 
HETATM   17  O12 UNL     1      -8.693  -1.292  15.396  1.00  0.00    -0.370 OA
HETATM   18  C18 UNL     1      -9.732  -1.239  16.346  1.00  0.00     0.177 C 
HETATM   19  C20 UNL     1      -9.305  -0.564  17.611  1.00  0.00     0.180 C 
HETATM   20  C21 UNL     1      -7.797  -0.764  17.766  1.00  0.00     0.180 C 
HETATM   21  C22 UNL     1      -7.140   0.021  16.639  1.00  0.00     0.181 C 
BRANCH  18  22
HETATM   22  C19 UNL     1     -10.294  -2.630  16.574  1.00  0.00     0.198 C 
BRANCH  22  23
HETATM   23  O13 UNL     1     -11.647  -2.512  16.860  1.00  0.00    -0.398 OA
ATOM     24  H13 UNL     1     -12.030  -3.382  16.856  1.00  0.00     0.209 HD
ENDBRANCH  22  23
ENDBRANCH  18  22
BRANCH  19  25
HETATM   25  O14 UNL     1      -9.928  -1.049  18.747  1.00  0.00    -0.390 OA
ATOM     26  H14 UNL     1      -9.398  -1.658  19.249  1.00  0.00     0.210 HD
ENDBRANCH  19  25
BRANCH  20  27
HETATM   27  O15 UNL     1      -7.367  -0.254  19.008  1.00  0.00    -0.390 OA
ATOM     28  H15 UNL     1      -7.074   0.645  18.909  1.00  0.00     0.210 HD
ENDBRANCH  20  27
BRANCH  21  29
HETATM   29  O16 UNL     1      -5.870  -0.480  16.376  1.00  0.00    -0.390 OA
ATOM     30  H16 UNL     1      -5.637  -1.211  16.936  1.00  0.00     0.210 HD
ENDBRANCH  21  29
ENDBRANCH  13  16
ENDBRANCH  12  13
ENDBRANCH  11  12
ENDBRANCH   6  11
BRANCH   1  31
HETATM   31  O7  UNL     1      -8.606  -4.678  11.199  1.00  0.00    -0.348 OA
BRANCH  31  32
HETATM   32  C10 UNL     1      -7.611  -4.756  12.127  1.00  0.00     0.184 C 
HETATM   33  C2  UNL     1      -8.022  -4.221  13.487  1.00  0.00     0.152 C 
HETATM   34  C1  UNL     1      -9.223  -4.995  14.009  1.00  0.00     0.042 C 
HETATM   35  O1  UNL     1      -7.033  -4.228  14.394  1.00  0.00    -0.351 OA
HETATM   36  C3  UNL     1      -5.885  -4.901  14.125  1.00  0.00     0.298 C 
HETATM   37  C8  UNL     1      -5.981  -6.112  13.270  1.00  0.00     0.205 C 
HETATM   38  C9  UNL     1      -7.212  -6.207  12.433  1.00  0.00     0.183 C 
BRANCH  36  39
HETATM   39  O2  UNL     1      -5.292  -5.276  15.350  1.00  0.00    -0.316 OA
BRANCH  39  40
HETATM   40  C4  UNL     1      -4.007  -4.929  15.733  1.00  0.00     0.099 A 
HETATM   41  C5  UNL     1      -3.001  -5.782  16.123  1.00  0.00     0.181 A 
HETATM   42  O3  UNL     1      -1.911  -5.070  16.414  1.00  0.00    -0.298 OA
HETATM   43  C6  UNL     1      -2.141  -3.792  16.238  1.00  0.00     0.185 A 
HETATM   44  C7  UNL     1      -3.446  -3.665  15.812  1.00  0.00     0.102 A 
BRANCH  43  45
HETATM   45  O4  UNL     1      -1.208  -2.763  16.453  1.00  0.00    -0.341 OA
ATOM     46  H4  UNL     1      -1.423  -1.872  16.704  1.00  0.00     0.220 HD
ENDBRANCH  43  45
ENDBRANCH  39  40
ENDBRANCH  36  39
BRANCH  37  47
HETATM   47  O5  UNL     1      -5.939  -7.278  14.071  1.00  0.00    -0.388 OA
ATOM     48  H5  UNL     1      -5.520  -7.986  13.595  1.00  0.00     0.210 HD
ENDBRANCH  37  47
BRANCH  38  49
HETATM   49  O6  UNL     1      -6.983  -6.921  11.266  1.00  0.00    -0.390 OA
ATOM     50  H6  UNL     1      -6.682  -7.803  11.449  1.00  0.00     0.210 HD
ENDBRANCH  38  49
ENDBRANCH  31  32
ENDBRANCH   1  31
BRANCH   8  51
HETATM   51  C24 UNL     1      -5.864  -3.189   9.641  1.00  0.00     0.201 C 
BRANCH  51  52
HETATM   52  O18 UNL     1      -4.736  -3.557  10.406  1.00  0.00    -0.398 OA
ATOM     53  H18 UNL     1      -4.025  -3.829   9.837  1.00  0.00     0.209 HD
ENDBRANCH  51  52
ENDBRANCH   8  51
TORSDOF 20
ENDMDL
MODEL 5
REMARK VINA RESULT: -7.765537382      2.756      5.900
REMARK  20 active torsions:
REMARK  status: ('A' for Active; 'I' for Inactive)
REMARK    1  A    between atoms: C3_4  and  O2_5 
REMARK    2  A    between atoms: O2_5  and  C4_6 
REMARK    3  A    between atoms: C6_9  and  O4_10 
REMARK    4  A    between atoms: C8_13  and  O5_14 
REMARK    5  A    between atoms: C9_16  and  O6_17 
REMARK    6  A    between atoms: C10_19  and  O7_20 
REMARK    7  A    between atoms: O7_20  and  C11_21 
REMARK    8  A    between atoms: C12_23  and  O9_24 
REMARK    9  A    between atoms: C14_28  and  O10_29 
REMARK   10  A    between atoms: O10_29  and  C15_30 
REMARK   11  A    between atoms: C15_30  and  C16_31 
REMARK   12  A    between atoms: C16_31  and  O11_32 
REMARK   13  A    between atoms: C16_31  and  C17_34 
REMARK   14  A    between atoms: C18_36  and  C19_37 
REMARK   15  A    between atoms: C19_37  and  O13_38 
REMARK   16  A    between atoms: C20_40  and  O14_41 
REMARK   17  A    between atoms: C21_43  and  O15_44 
REMARK   18  A    between atoms: C22_46  and  O16_47 
REMARK   19  A    between atoms: C23_50  and  C24_51 
REMARK   20  A    between atoms: C24_51  and  O18_52 
ROOT
HETATM    1  C11 UNL     1     -11.435  -1.132  13.071  1.00  0.00     0.296 C 
HETATM    2  O8  UNL     1     -12.281  -0.211  12.504  1.00  0.00    -0.306 OA
HETATM    3  C12 UNL     1     -12.138  -0.042  11.147  1.00  0.00     0.309 C 
HETATM    4  C13 UNL     1     -13.315   0.696  10.689  1.00  0.00     0.134 C 
HETATM    5  N1  UNL     1     -14.255   1.274  10.313  1.00  0.00    -0.191 NA
HETATM    6  C14 UNL     1     -11.925  -1.273  10.361  1.00  0.00     0.339 C 
HETATM    7  O17 UNL     1     -11.973  -2.445  11.118  1.00  0.00    -0.342 OA
HETATM    8  C23 UNL     1     -11.316  -2.413  12.301  1.00  0.00     0.203 C 
ENDROOT
BRANCH   3   9
HETATM    9  O9  UNL     1     -11.034   0.797  10.979  1.00  0.00    -0.350 OA
ATOM     10  H9  UNL     1     -10.407   0.304  10.463  1.00  0.00     0.214 HD
ENDBRANCH   3   9
BRANCH   6  11
HETATM   11  O10 UNL     1     -10.722  -1.311   9.688  1.00  0.00    -0.352 OA
BRANCH  11  12
HETATM   12  C15 UNL     1     -10.657  -2.210   8.660  1.00  0.00     0.205 C 
BRANCH  12  13
HETATM   13  C16 UNL     1      -9.310  -2.409   8.018  1.00  0.00     0.173 C 
BRANCH  13  14
HETATM   14  O11 UNL     1      -8.929  -1.325   7.243  1.00  0.00    -0.391 OA
ATOM     15  H11 UNL     1      -9.222  -1.403   6.342  1.00  0.00     0.210 HD
ENDBRANCH  13  14
BRANCH  13  16
HETATM   16  C17 UNL     1      -8.253  -2.739   9.063  1.00  0.00     0.184 C 
HETATM   17  O12 UNL     1      -8.657  -3.874   9.762  1.00  0.00    -0.370 OA
HETATM   18  C18 UNL     1      -7.968  -3.840  10.989  1.00  0.00     0.177 C 
HETATM   19  C20 UNL     1      -6.545  -3.407  10.825  1.00  0.00     0.180 C 
HETATM   20  C21 UNL     1      -6.093  -3.796   9.418  1.00  0.00     0.180 C 
HETATM   21  C22 UNL     1      -6.898  -2.937   8.453  1.00  0.00     0.181 C 
BRANCH  18  22
HETATM   22  C19 UNL     1      -8.104  -5.177  11.695  1.00  0.00     0.198 C 
BRANCH  22  23
HETATM   23  O13 UNL     1      -7.380  -6.122  10.983  1.00  0.00    -0.398 OA
ATOM     24  H13 UNL     1      -6.802  -6.572  11.588  1.00  0.00     0.209 HD
ENDBRANCH  22  23
ENDBRANCH  18  22
BRANCH  19  25
HETATM   25  O14 UNL     1      -5.673  -3.976  11.736  1.00  0.00    -0.390 OA
ATOM     26  H14 UNL     1      -5.312  -4.809  11.458  1.00  0.00     0.210 HD
ENDBRANCH  19  25
BRANCH  20  27
HETATM   27  O15 UNL     1      -4.719  -3.522   9.258  1.00  0.00    -0.390 OA
ATOM     28  H15 UNL     1      -4.414  -2.959   9.960  1.00  0.00     0.210 HD
ENDBRANCH  20  27
BRANCH  21  29
HETATM   29  O16 UNL     1      -6.951  -3.536   7.199  1.00  0.00    -0.390 OA
ATOM     30  H16 UNL     1      -6.096  -3.626   6.795  1.00  0.00     0.210 HD
ENDBRANCH  21  29
ENDBRANCH  13  16
ENDBRANCH  12  13
ENDBRANCH  11  12
ENDBRANCH   6  11
BRANCH   1  31
HETATM   31  O7  UNL     1     -10.211  -0.507  13.268  1.00  0.00    -0.348 OA
BRANCH  31  32
HETATM   32  C10 UNL     1      -9.305  -1.405  13.746  1.00  0.00     0.184 C 
HETATM   33  C2  UNL     1      -7.873  -1.061  13.375  1.00  0.00     0.152 C 
HETATM   34  C1  UNL     1      -7.512   0.314  13.916  1.00  0.00     0.042 C 
HETATM   35  O1  UNL     1      -6.974  -1.972  13.779  1.00  0.00    -0.351 OA
HETATM   36  C3  UNL     1      -7.352  -2.942  14.651  1.00  0.00     0.298 C 
HETATM   37  C8  UNL     1      -8.415  -2.609  15.633  1.00  0.00     0.205 C 
HETATM   38  C9  UNL     1      -9.266  -1.435  15.280  1.00  0.00     0.183 C 
BRANCH  36  39
HETATM   39  O2  UNL     1      -6.211  -3.365  15.367  1.00  0.00    -0.316 OA
BRANCH  39  40
HETATM   40  C4  UNL     1      -5.555  -4.564  15.148  1.00  0.00     0.099 A 
HETATM   41  C5  UNL     1      -4.216  -4.820  15.336  1.00  0.00     0.181 A 
HETATM   42  O3  UNL     1      -3.964  -6.090  15.016  1.00  0.00    -0.298 OA
HETATM   43  C6  UNL     1      -5.062  -6.689  14.627  1.00  0.00     0.185 A 
HETATM   44  C7  UNL     1      -6.081  -5.763  14.696  1.00  0.00     0.102 A 
BRANCH  43  45
HETATM   45  O4  UNL     1      -5.154  -8.032  14.220  1.00  0.00    -0.341 OA
ATOM     46  H4  UNL     1      -4.691  -8.414  13.484  1.00  0.00     0.220 HD
ENDBRANCH  43  45
ENDBRANCH  39  40
ENDBRANCH  36  39
BRANCH  37  47
HETATM   47  O5  UNL     1      -7.842  -2.334  16.897  1.00  0.00    -0.388 OA
ATOM     48  H5  UNL     1      -7.404  -1.490  16.881  1.00  0.00     0.210 HD
ENDBRANCH  37  47
BRANCH  38  49
HETATM   49  O6  UNL     1     -10.542  -1.550  15.812  1.00  0.00    -0.390 OA
ATOM     50  H6  UNL     1     -11.168  -1.844  15.160  1.00  0.00     0.210 HD
ENDBRANCH  38  49
ENDBRANCH  31  32
ENDBRANCH   1  31
BRANCH   8  51
HETATM   51  C24 UNL     1     -11.791  -3.612  13.126  1.00  0.00     0.201 C 
BRANCH  51  52
HETATM   52  O18 UNL     1     -12.271  -4.634  12.278  1.00  0.00    -0.398 OA
ATOM     53  H18 UNL     1     -12.156  -5.483  12.686  1.00  0.00     0.209 HD
ENDBRANCH  51  52
ENDBRANCH   8  51
TORSDOF 20
ENDMDL
