MODEL 1
REMARK VINA RESULT: -6.077322081      0.000      0.000
REMARK  4 active torsions:
REMARK  status: ('A' for Active; 'I' for Inactive)
REMARK    1  A    between atoms: O1_2  and  C2_3 
REMARK    2  A    between atoms: C5_6  and  O2_7 
REMARK    3  A    between atoms: C7_10  and  O3_11 
REMARK    4  A    between atoms: O3_11  and  C8_12 
ROOT
HETATM    1  C2  UNL     1      30.351  -0.838  15.176  1.00  0.00     0.172 C 
HETATM    2  C3  UNL     1      28.859  -0.865  14.924  1.00  0.00     0.071 C 
HETATM    3  C4  UNL     1      28.574   0.370  14.102  1.00  0.00     0.037 C 
HETATM    4  C5  UNL     1      29.475   1.393  14.782  1.00  0.00     0.130 C 
HETATM    5  C6  UNL     1      30.671   0.607  15.256  1.00  0.00     0.108 C 
HETATM    6  C7  UNL     1      31.772   0.792  14.241  1.00  0.00     0.167 C 
HETATM    7  C10 UNL     1      31.608  -0.398  13.363  1.00  0.00     0.204 C 
HETATM    8  O5  UNL     1      30.948  -1.375  14.041  1.00  0.00    -0.352 OA
ENDROOT
BRANCH   6   9
HETATM    9  O3  UNL     1      33.059   0.743  14.835  1.00  0.00    -0.314 OA
BRANCH   9  10
HETATM   10  C8  UNL     1      33.687   1.893  15.324  1.00  0.00     0.255 C 
HETATM   11  C9  UNL     1      33.136   3.256  15.107  1.00  0.00     0.126 C 
HETATM   12  O4  UNL     1      34.754   1.710  15.964  1.00  0.00    -0.266 OA
ENDBRANCH   9  10
ENDBRANCH   6   9
BRANCH   1  13
HETATM   13  O1  UNL     1      30.742  -1.584  16.251  1.00  0.00    -0.359 OA
HETATM   14  C1  UNL     1      30.610  -2.935  16.134  1.00  0.00     0.205 C 
ENDBRANCH   1  13
BRANCH   4  15
HETATM   15  O2  UNL     1      28.824   2.062  15.806  1.00  0.00    -0.395 OA
ATOM     16  H2  UNL     1      29.198   2.921  15.967  1.00  0.00     0.210 HD
ENDBRANCH   4  15
TORSDOF 4
ENDMDL
MODEL 2
REMARK VINA RESULT: -5.996976114      5.682      7.723
REMARK  4 active torsions:
REMARK  status: ('A' for Active; 'I' for Inactive)
REMARK    1  A    between atoms: O1_2  and  C2_3 
REMARK    2  A    between atoms: C5_6  and  O2_7 
REMARK    3  A    between atoms: C7_10  and  O3_11 
REMARK    4  A    between atoms: O3_11  and  C8_12 
ROOT
HETATM    1  C2  UNL     1      26.733  -6.645  14.274  1.00  0.00     0.172 C 
HETATM    2  C3  UNL     1      27.007  -7.581  13.115  1.00  0.00     0.071 C 
HETATM    3  C4  UNL     1      27.153  -6.683  11.909  1.00  0.00     0.037 C 
HETATM    4  C5  UNL     1      26.045  -5.668  12.159  1.00  0.00     0.130 C 
HETATM    5  C6  UNL     1      25.970  -5.533  13.659  1.00  0.00     0.108 C 
HETATM    6  C7  UNL     1      26.746  -4.300  14.049  1.00  0.00     0.167 C 
HETATM    7  C10 UNL     1      28.087  -4.852  14.381  1.00  0.00     0.204 C 
HETATM    8  O5  UNL     1      27.971  -6.171  14.693  1.00  0.00    -0.352 OA
ENDROOT
BRANCH   6   9
HETATM    9  O3  UNL     1      26.212  -3.677  15.206  1.00  0.00    -0.314 OA
BRANCH   9  10
HETATM   10  C8  UNL     1      26.477  -2.338  15.508  1.00  0.00     0.255 C 
HETATM   11  C9  UNL     1      26.954  -1.369  14.486  1.00  0.00     0.126 C 
HETATM   12  O4  UNL     1      26.288  -1.993  16.703  1.00  0.00    -0.266 OA
ENDBRANCH   9  10
ENDBRANCH   6   9
BRANCH   1  13
HETATM   13  O1  UNL     1      26.130  -7.251  15.339  1.00  0.00    -0.359 OA
HETATM   14  C1  UNL     1      24.784  -7.438  15.251  1.00  0.00     0.205 C 
ENDBRANCH   1  13
BRANCH   4  15
HETATM   15  O2  UNL     1      24.844  -6.053  11.586  1.00  0.00    -0.395 OA
ATOM     16  H2  UNL     1      24.936  -6.251  10.661  1.00  0.00     0.210 HD
ENDBRANCH   4  15
TORSDOF 4
ENDMDL
MODEL 3
REMARK VINA RESULT: -5.986529067      5.292      7.164
REMARK  4 active torsions:
REMARK  status: ('A' for Active; 'I' for Inactive)
REMARK    1  A    between atoms: O1_2  and  C2_3 
REMARK    2  A    between atoms: C5_6  and  O2_7 
REMARK    3  A    between atoms: C7_10  and  O3_11 
REMARK    4  A    between atoms: O3_11  and  C8_12 
ROOT
HETATM    1  C2  UNL     1      27.114  -6.346  14.061  1.00  0.00     0.172 C 
HETATM    2  C3  UNL     1      26.424  -7.298  13.107  1.00  0.00     0.071 C 
HETATM    3  C4  UNL     1      25.646  -6.414  12.161  1.00  0.00     0.037 C 
HETATM    4  C5  UNL     1      25.105  -5.360  13.117  1.00  0.00     0.130 C 
HETATM    5  C6  UNL     1      26.166  -5.213  14.179  1.00  0.00     0.108 C 
HETATM    6  C7  UNL     1      26.998  -4.005  13.831  1.00  0.00     0.167 C 
HETATM    7  C10 UNL     1      28.137  -4.600  13.079  1.00  0.00     0.204 C 
HETATM    8  O5  UNL     1      28.265  -5.912  13.414  1.00  0.00    -0.352 OA
ENDROOT
BRANCH   6   9
HETATM    9  O3  UNL     1      27.507  -3.356  14.985  1.00  0.00    -0.314 OA
BRANCH   9  10
HETATM   10  C8  UNL     1      27.105  -2.065  15.339  1.00  0.00     0.255 C 
HETATM   11  C9  UNL     1      27.257  -0.903  14.424  1.00  0.00     0.126 C 
HETATM   12  O4  UNL     1      26.605  -1.936  16.486  1.00  0.00    -0.266 OA
ENDBRANCH   9  10
ENDBRANCH   6   9
BRANCH   1  13
HETATM   13  O1  UNL     1      27.486  -6.924  15.241  1.00  0.00    -0.359 OA
HETATM   14  C1  UNL     1      28.781  -7.337  15.335  1.00  0.00     0.205 C 
ENDBRANCH   1  13
BRANCH   4  15
HETATM   15  O2  UNL     1      23.866  -5.709  13.631  1.00  0.00    -0.395 OA
ATOM     16  H2  UNL     1      23.940  -6.247  14.410  1.00  0.00     0.210 HD
ENDBRANCH   4  15
TORSDOF 4
ENDMDL
MODEL 4
REMARK VINA RESULT: -5.933580601      1.070      1.265
REMARK  4 active torsions:
REMARK  status: ('A' for Active; 'I' for Inactive)
REMARK    1  A    between atoms: O1_2  and  C2_3 
REMARK    2  A    between atoms: C5_6  and  O2_7 
REMARK    3  A    between atoms: C7_10  and  O3_11 
REMARK    4  A    between atoms: O3_11  and  C8_12 
ROOT
HETATM    1  C2  UNL     1      30.248  -1.025  15.208  1.00  0.00     0.172 C 
HETATM    2  C3  UNL     1      28.738  -0.920  15.151  1.00  0.00     0.071 C 
HETATM    3  C4  UNL     1      28.459   0.285  14.284  1.00  0.00     0.037 C 
HETATM    4  C5  UNL     1      29.530   1.253  14.769  1.00  0.00     0.130 C 
HETATM    5  C6  UNL     1      30.704   0.383  15.142  1.00  0.00     0.108 C 
HETATM    6  C7  UNL     1      31.672   0.398  13.985  1.00  0.00     0.167 C 
HETATM    7  C10 UNL     1      31.286  -0.821  13.223  1.00  0.00     0.204 C 
HETATM    8  O5  UNL     1      30.637  -1.686  14.048  1.00  0.00    -0.352 OA
ENDROOT
BRANCH   6   9
HETATM    9  O3  UNL     1      33.017   0.259  14.412  1.00  0.00    -0.314 OA
BRANCH   9  10
HETATM   10  C8  UNL     1      34.038   1.063  13.898  1.00  0.00     0.255 C 
HETATM   11  C9  UNL     1      35.112   0.525  13.022  1.00  0.00     0.126 C 
HETATM   12  O4  UNL     1      34.000   2.278  14.221  1.00  0.00    -0.266 OA
ENDBRANCH   9  10
ENDBRANCH   6   9
BRANCH   1  13
HETATM   13  O1  UNL     1      30.709  -1.740  16.276  1.00  0.00    -0.359 OA
HETATM   14  C1  UNL     1      30.619  -3.097  16.185  1.00  0.00     0.205 C 
ENDBRANCH   1  13
BRANCH   4  15
HETATM   15  O2  UNL     1      29.084   2.044  15.815  1.00  0.00    -0.395 OA
ATOM     16  H2  UNL     1      29.341   2.952  15.713  1.00  0.00     0.210 HD
ENDBRANCH   4  15
TORSDOF 4
ENDMDL
MODEL 5
REMARK VINA RESULT: -5.849818414      2.214      3.299
REMARK  4 active torsions:
REMARK  status: ('A' for Active; 'I' for Inactive)
REMARK    1  A    between atoms: O1_2  and  C2_3 
REMARK    2  A    between atoms: C5_6  and  O2_7 
REMARK    3  A    between atoms: C7_10  and  O3_11 
REMARK    4  A    between atoms: O3_11  and  C8_12 
ROOT
HETATM    1  C2  UNL     1      28.818  -2.565  14.761  1.00  0.00     0.172 C 
HETATM    2  C3  UNL     1      27.632  -3.398  14.323  1.00  0.00     0.071 C 
HETATM    3  C4  UNL     1      26.467  -2.438  14.284  1.00  0.00     0.037 C 
HETATM    4  C5  UNL     1      26.724  -1.609  15.535  1.00  0.00     0.130 C 
HETATM    5  C6  UNL     1      28.225  -1.552  15.666  1.00  0.00     0.108 C 
HETATM    6  C7  UNL     1      28.686  -0.236  15.092  1.00  0.00     0.167 C 
HETATM    7  C10 UNL     1      29.037  -0.598  13.692  1.00  0.00     0.204 C 
HETATM    8  O5  UNL     1      29.293  -1.931  13.618  1.00  0.00    -0.352 OA
ENDROOT
BRANCH   6   9
HETATM    9  O3  UNL     1      29.850   0.251  15.739  1.00  0.00    -0.314 OA
BRANCH   9  10
HETATM   10  C8  UNL     1      30.480   1.430  15.330  1.00  0.00     0.255 C 
HETATM   11  C9  UNL     1      31.929   1.487  15.000  1.00  0.00     0.126 C 
HETATM   12  O4  UNL     1      29.749   2.451  15.257  1.00  0.00    -0.266 OA
ENDBRANCH   9  10
ENDBRANCH   6   9
BRANCH   1  13
HETATM   13  O1  UNL     1      29.840  -3.298  15.292  1.00  0.00    -0.359 OA
HETATM   14  C1  UNL     1      29.953  -4.585  14.861  1.00  0.00     0.205 C 
ENDBRANCH   1  13
BRANCH   4  15
HETATM   15  O2  UNL     1      26.100  -2.142  16.652  1.00  0.00    -0.395 OA
ATOM     16  H2  UNL     1      26.142  -1.557  17.399  1.00  0.00     0.210 HD
ENDBRANCH   4  15
TORSDOF 4
ENDMDL
