MODEL 1
REMARK VINA RESULT: -9.062570847      0.000      0.000
REMARK  6 active torsions:
REMARK  status: ('A' for Active; 'I' for Inactive)
REMARK    1  A    between atoms: C2_2  and  C3_3 
REMARK    2  A    between atoms: C5_5  and  N1_6 
REMARK    3  A    between atoms: N2_9  and  C6_10 
REMARK    4  A    between atoms: C6_10  and  C7_11 
REMARK    5  A    between atoms: C7_11  and  C8_12 
REMARK    6  A    between atoms: C11_15  and  C12_16 
REMARK       I    between atoms: C12_16  and  N3_18 
ROOT
HETATM    1  C8  UNL     1      24.560   8.603  16.579  1.00  0.00    -0.013 C 
HETATM    2  C9  UNL     1      23.703   9.337  15.615  1.00  0.00     0.005 C 
HETATM    3  C10 UNL     1      23.130   8.551  14.488  1.00  0.00     0.014 C 
HETATM    4  C11 UNL     1      24.002   7.506  13.894  1.00  0.00     0.078 C 
HETATM    5  C21 UNL     1      25.196   7.153  14.749  1.00  0.00     0.014 C 
HETATM    6  C22 UNL     1      24.743   7.162  16.189  1.00  0.00     0.005 C 
ENDROOT
BRANCH   1   7
HETATM    7  C7  UNL     1      24.078   8.638  18.008  1.00  0.00     0.026 C 
BRANCH   7   8
HETATM    8  C6  UNL     1      23.975   7.245  18.604  1.00  0.00     0.151 C 
BRANCH   8   9
HETATM    9  N2  UNL     1      25.224   7.052  19.357  1.00  0.00    -0.277 N 
HETATM   10  C5  UNL     1      25.834   5.882  19.595  1.00  0.00     0.117 A 
HETATM   11  C4  UNL     1      26.963   6.122  20.323  1.00  0.00     0.075 A 
HETATM   12  C3  UNL     1      27.037   7.482  20.529  1.00  0.00     0.029 A 
HETATM   13  N4  UNL     1      25.958   7.996  19.923  1.00  0.00    -0.301 N 
ATOM     14  H4  UNL     1      25.731   8.991  19.900  1.00  0.00     0.187 HD
BRANCH  10  15
HETATM   15  N1  UNL     1      25.427   4.726  19.204  1.00  0.00    -0.384 N 
ATOM     16  H12 UNL     1      25.198   4.466  18.245  1.00  0.00     0.157 HD
ATOM     17  H11 UNL     1      25.280   3.915  19.805  1.00  0.00     0.157 HD
ENDBRANCH  10  15
BRANCH  12  18
HETATM   18  C2  UNL     1      28.093   8.244  21.273  1.00  0.00     0.054 C 
HETATM   19  C1  UNL     1      28.967   7.265  21.989  1.00  0.00     0.011 C 
ENDBRANCH  12  18
ENDBRANCH   8   9
ENDBRANCH   7   8
ENDBRANCH   1   7
BRANCH   4  20
HETATM   20  C12 UNL     1      23.199   6.267  13.651  1.00  0.00     0.226 C 
HETATM   21  O1  UNL     1      23.000   5.465  14.643  1.00  0.00    -0.273 OA
HETATM   22  N3  UNL     1      22.632   5.893  12.423  1.00  0.00    -0.325 N 
HETATM   23  C13 UNL     1      21.865   4.661  12.345  1.00  0.00     0.128 C 
HETATM   24  C20 UNL     1      22.798   6.677  11.246  1.00  0.00     0.230 C 
HETATM   25  C14 UNL     1      22.375   3.797  11.212  1.00  0.00     0.020 C 
HETATM   26  C15 UNL     1      22.387   4.548   9.929  1.00  0.00     0.010 C 
HETATM   27  C16 UNL     1      22.261   6.020  10.002  1.00  0.00     0.037 C 
HETATM   28  C17 UNL     1      23.127   6.612   8.898  1.00  0.00     0.040 C 
HETATM   29  C18 UNL     1      23.972   7.604   9.682  1.00  0.00     0.120 C 
HETATM   30  C19 UNL     1      25.308   7.790   8.994  1.00  0.00     0.039 C 
HETATM   31  O2  UNL     1      24.112   6.952  10.905  1.00  0.00    -0.361 OA
ENDBRANCH   4  20
TORSDOF 6
ENDMDL
MODEL 2
REMARK VINA RESULT: -8.853088131      1.609      2.517
REMARK  6 active torsions:
REMARK  status: ('A' for Active; 'I' for Inactive)
REMARK    1  A    between atoms: C2_2  and  C3_3 
REMARK    2  A    between atoms: C5_5  and  N1_6 
REMARK    3  A    between atoms: N2_9  and  C6_10 
REMARK    4  A    between atoms: C6_10  and  C7_11 
REMARK    5  A    between atoms: C7_11  and  C8_12 
REMARK    6  A    between atoms: C11_15  and  C12_16 
REMARK       I    between atoms: C12_16  and  N3_18 
ROOT
HETATM    1  C8  UNL     1      24.719   8.681  16.109  1.00  0.00    -0.013 C 
HETATM    2  C9  UNL     1      23.436   9.347  15.768  1.00  0.00     0.005 C 
HETATM    3  C10 UNL     1      22.538   8.634  14.819  1.00  0.00     0.014 C 
HETATM    4  C11 UNL     1      23.192   7.907  13.701  1.00  0.00     0.078 C 
HETATM    5  C21 UNL     1      24.675   7.698  13.898  1.00  0.00     0.014 C 
HETATM    6  C22 UNL     1      24.902   7.391  15.358  1.00  0.00     0.005 C 
ENDROOT
BRANCH   1   7
HETATM    7  C7  UNL     1      24.912   8.394  17.576  1.00  0.00     0.026 C 
BRANCH   7   8
HETATM    8  C6  UNL     1      25.559   7.040  17.807  1.00  0.00     0.151 C 
BRANCH   8   9
HETATM    9  N2  UNL     1      24.715   6.374  18.811  1.00  0.00    -0.277 N 
HETATM   10  C5  UNL     1      25.120   5.467  19.712  1.00  0.00     0.117 A 
HETATM   11  C4  UNL     1      24.044   5.091  20.463  1.00  0.00     0.075 A 
HETATM   12  C3  UNL     1      22.954   5.795  20.000  1.00  0.00     0.029 A 
HETATM   13  N4  UNL     1      23.418   6.557  18.999  1.00  0.00    -0.301 N 
ATOM     14  H4  UNL     1      22.844   7.198  18.451  1.00  0.00     0.187 HD
BRANCH  10  15
HETATM   15  N1  UNL     1      26.319   5.024  19.850  1.00  0.00    -0.384 N 
ATOM     16  H12 UNL     1      26.625   4.329  20.531  1.00  0.00     0.157 HD
ATOM     17  H11 UNL     1      27.125   5.310  19.293  1.00  0.00     0.157 HD
ENDBRANCH  10  15
BRANCH  12  18
HETATM   18  C2  UNL     1      21.541   5.737  20.498  1.00  0.00     0.054 C 
HETATM   19  C1  UNL     1      20.671   6.486  19.539  1.00  0.00     0.011 C 
ENDBRANCH  12  18
ENDBRANCH   8   9
ENDBRANCH   7   8
ENDBRANCH   1   7
BRANCH   4  20
HETATM   20  C12 UNL     1      22.537   6.572  13.525  1.00  0.00     0.226 C 
HETATM   21  O1  UNL     1      22.304   5.862  14.578  1.00  0.00    -0.273 OA
HETATM   22  N3  UNL     1      22.144   6.016  12.297  1.00  0.00    -0.325 N 
HETATM   23  C13 UNL     1      21.506   4.710  12.286  1.00  0.00     0.128 C 
HETATM   24  C20 UNL     1      22.365   6.686  11.060  1.00  0.00     0.230 C 
HETATM   25  C14 UNL     1      22.213   3.790  11.316  1.00  0.00     0.020 C 
HETATM   26  C15 UNL     1      22.297   4.400   9.963  1.00  0.00     0.010 C 
HETATM   27  C16 UNL     1      22.030   5.850   9.853  1.00  0.00     0.037 C 
HETATM   28  C17 UNL     1      22.953   6.409   8.780  1.00  0.00     0.040 C 
HETATM   29  C18 UNL     1      23.614   7.559   9.524  1.00  0.00     0.120 C 
HETATM   30  C19 UNL     1      24.994   7.809   8.953  1.00  0.00     0.039 C 
HETATM   31  O2  UNL     1      23.678   7.057  10.821  1.00  0.00    -0.361 OA
ENDBRANCH   4  20
TORSDOF 6
ENDMDL
MODEL 3
REMARK VINA RESULT: -8.834122817      0.973      1.182
REMARK  6 active torsions:
REMARK  status: ('A' for Active; 'I' for Inactive)
REMARK    1  A    between atoms: C2_2  and  C3_3 
REMARK    2  A    between atoms: C5_5  and  N1_6 
REMARK    3  A    between atoms: N2_9  and  C6_10 
REMARK    4  A    between atoms: C6_10  and  C7_11 
REMARK    5  A    between atoms: C7_11  and  C8_12 
REMARK    6  A    between atoms: C11_15  and  C12_16 
REMARK       I    between atoms: C12_16  and  N3_18 
ROOT
HETATM    1  C8  UNL     1      24.083   9.201  15.687  1.00  0.00    -0.013 C 
HETATM    2  C9  UNL     1      22.735   9.671  15.283  1.00  0.00     0.005 C 
HETATM    3  C10 UNL     1      21.948   8.775  14.392  1.00  0.00     0.014 C 
HETATM    4  C11 UNL     1      22.706   8.045  13.344  1.00  0.00     0.078 C 
HETATM    5  C21 UNL     1      24.200   8.040  13.568  1.00  0.00     0.014 C 
HETATM    6  C22 UNL     1      24.437   7.885  15.050  1.00  0.00     0.005 C 
ENDROOT
BRANCH   1   7
HETATM    7  C7  UNL     1      24.286   9.063  17.175  1.00  0.00     0.026 C 
BRANCH   7   8
HETATM    8  C6  UNL     1      23.621   7.812  17.723  1.00  0.00     0.151 C 
BRANCH   8   9
HETATM    9  N2  UNL     1      24.670   7.122  18.490  1.00  0.00    -0.277 N 
HETATM   10  C5  UNL     1      25.091   5.862  18.301  1.00  0.00     0.117 A 
HETATM   11  C4  UNL     1      26.075   5.594  19.208  1.00  0.00     0.075 A 
HETATM   12  C3  UNL     1      26.254   6.728  19.968  1.00  0.00     0.029 A 
HETATM   13  N4  UNL     1      25.376   7.623  19.489  1.00  0.00    -0.301 N 
ATOM     14  H4  UNL     1      25.267   8.571  19.851  1.00  0.00     0.187 HD
BRANCH  10  15
HETATM   15  N1  UNL     1      24.647   5.043  17.415  1.00  0.00    -0.384 N 
ATOM     16  H12 UNL     1      25.047   4.133  17.188  1.00  0.00     0.157 HD
ATOM     17  H11 UNL     1      23.833   5.197  16.820  1.00  0.00     0.157 HD
ENDBRANCH  10  15
BRANCH  12  18
HETATM   18  C2  UNL     1      27.219   6.939  21.096  1.00  0.00     0.054 C 
HETATM   19  C1  UNL     1      27.830   8.297  20.948  1.00  0.00     0.011 C 
ENDBRANCH  12  18
ENDBRANCH   8   9
ENDBRANCH   7   8
ENDBRANCH   1   7
BRANCH   4  20
HETATM   20  C12 UNL     1      22.224   6.629  13.277  1.00  0.00     0.226 C 
HETATM   21  O1  UNL     1      22.090   5.976  14.383  1.00  0.00    -0.273 OA
HETATM   22  N3  UNL     1      21.896   5.937  12.100  1.00  0.00    -0.325 N 
HETATM   23  C13 UNL     1      21.428   4.564  12.195  1.00  0.00     0.128 C 
HETATM   24  C20 UNL     1      22.022   6.535  10.814  1.00  0.00     0.230 C 
HETATM   25  C14 UNL     1      22.239   3.670  11.284  1.00  0.00     0.020 C 
HETATM   26  C15 UNL     1      22.236   4.183   9.889  1.00  0.00     0.010 C 
HETATM   27  C16 UNL     1      21.787   5.575   9.677  1.00  0.00     0.037 C 
HETATM   28  C17 UNL     1      22.624   6.164   8.550  1.00  0.00     0.040 C 
HETATM   29  C18 UNL     1      23.139   7.441   9.197  1.00  0.00     0.120 C 
HETATM   30  C19 UNL     1      24.473   7.819   8.587  1.00  0.00     0.039 C 
HETATM   31  O2  UNL     1      23.275   7.050  10.527  1.00  0.00    -0.361 OA
ENDBRANCH   4  20
TORSDOF 6
ENDMDL
MODEL 4
REMARK VINA RESULT: -8.384491394      1.742      2.401
REMARK  6 active torsions:
REMARK  status: ('A' for Active; 'I' for Inactive)
REMARK    1  A    between atoms: C2_2  and  C3_3 
REMARK    2  A    between atoms: C5_5  and  N1_6 
REMARK    3  A    between atoms: N2_9  and  C6_10 
REMARK    4  A    between atoms: C6_10  and  C7_11 
REMARK    5  A    between atoms: C7_11  and  C8_12 
REMARK    6  A    between atoms: C11_15  and  C12_16 
REMARK       I    between atoms: C12_16  and  N3_18 
ROOT
HETATM    1  C8  UNL     1      24.080   9.050  15.775  1.00  0.00    -0.013 C 
HETATM    2  C9  UNL     1      22.659   8.627  15.844  1.00  0.00     0.005 C 
HETATM    3  C10 UNL     1      22.205   7.622  14.844  1.00  0.00     0.014 C 
HETATM    4  C11 UNL     1      22.764   7.747  13.474  1.00  0.00     0.078 C 
HETATM    5  C21 UNL     1      23.975   8.645  13.391  1.00  0.00     0.014 C 
HETATM    6  C22 UNL     1      24.806   8.403  14.627  1.00  0.00     0.005 C 
ENDROOT
BRANCH   1   7
HETATM    7  C7  UNL     1      24.878   8.798  17.029  1.00  0.00     0.026 C 
BRANCH   7   8
HETATM    8  C6  UNL     1      24.091   7.990  18.047  1.00  0.00     0.151 C 
BRANCH   8   9
HETATM    9  N2  UNL     1      25.099   7.231  18.801  1.00  0.00    -0.277 N 
HETATM   10  C5  UNL     1      25.372   5.924  18.668  1.00  0.00     0.117 A 
HETATM   11  C4  UNL     1      26.369   5.599  19.541  1.00  0.00     0.075 A 
HETATM   12  C3  UNL     1      26.711   6.746  20.221  1.00  0.00     0.029 A 
HETATM   13  N4  UNL     1      25.910   7.705  19.733  1.00  0.00    -0.301 N 
ATOM     14  H4  UNL     1      25.924   8.677  20.042  1.00  0.00     0.187 HD
BRANCH  10  15
HETATM   15  N1  UNL     1      24.793   5.112  17.856  1.00  0.00    -0.384 N 
ATOM     16  H12 UNL     1      24.825   4.094  17.905  1.00  0.00     0.157 HD
ATOM     17  H11 UNL     1      24.224   5.381  17.054  1.00  0.00     0.157 HD
ENDBRANCH  10  15
BRANCH  12  18
HETATM   18  C2  UNL     1      27.754   6.910  21.286  1.00  0.00     0.054 C 
HETATM   19  C1  UNL     1      28.230   8.328  21.267  1.00  0.00     0.011 C 
ENDBRANCH  12  18
ENDBRANCH   8   9
ENDBRANCH   7   8
ENDBRANCH   1   7
BRANCH   4  20
HETATM   20  C12 UNL     1      23.134   6.389  12.962  1.00  0.00     0.226 C 
HETATM   21  O1  UNL     1      24.372   6.028  13.031  1.00  0.00    -0.273 OA
HETATM   22  N3  UNL     1      22.242   5.458  12.407  1.00  0.00    -0.325 N 
HETATM   23  C13 UNL     1      22.751   4.171  11.964  1.00  0.00     0.128 C 
HETATM   24  C20 UNL     1      20.856   5.742  12.253  1.00  0.00     0.230 C 
HETATM   25  C14 UNL     1      22.321   3.901  10.539  1.00  0.00     0.020 C 
HETATM   26  C15 UNL     1      20.846   4.018  10.392  1.00  0.00     0.010 C 
HETATM   27  C16 UNL     1      20.105   4.686  11.484  1.00  0.00     0.037 C 
HETATM   28  C17 UNL     1      18.961   5.468  10.853  1.00  0.00     0.040 C 
HETATM   29  C18 UNL     1      19.181   6.850  11.447  1.00  0.00     0.120 C 
HETATM   30  C19 UNL     1      18.653   7.903  10.494  1.00  0.00     0.039 C 
HETATM   31  O2  UNL     1      20.569   6.899  11.546  1.00  0.00    -0.361 OA
ENDBRANCH   4  20
TORSDOF 6
ENDMDL
MODEL 5
REMARK VINA RESULT: -8.369124398      3.168      8.959
REMARK  6 active torsions:
REMARK  status: ('A' for Active; 'I' for Inactive)
REMARK    1  A    between atoms: C2_2  and  C3_3 
REMARK    2  A    between atoms: C5_5  and  N1_6 
REMARK    3  A    between atoms: N2_9  and  C6_10 
REMARK    4  A    between atoms: C6_10  and  C7_11 
REMARK    5  A    between atoms: C7_11  and  C8_12 
REMARK    6  A    between atoms: C11_15  and  C12_16 
REMARK       I    between atoms: C12_16  and  N3_18 
ROOT
HETATM    1  C8  UNL     1      21.752   4.852  10.398  1.00  0.00    -0.013 C 
HETATM    2  C9  UNL     1      21.139   6.090  10.938  1.00  0.00     0.005 C 
HETATM    3  C10 UNL     1      21.823   6.733  12.094  1.00  0.00     0.014 C 
HETATM    4  C11 UNL     1      22.414   5.823  13.107  1.00  0.00     0.078 C 
HETATM    5  C21 UNL     1      22.548   4.394  12.636  1.00  0.00     0.014 C 
HETATM    6  C22 UNL     1      22.962   4.431  11.185  1.00  0.00     0.005 C 
ENDROOT
BRANCH   1   7
HETATM    7  C7  UNL     1      22.148   4.924   8.944  1.00  0.00     0.026 C 
BRANCH   7   8
HETATM    8  C6  UNL     1      21.670   6.209   8.291  1.00  0.00     0.151 C 
BRANCH   8   9
HETATM    9  N2  UNL     1      22.895   6.906   7.869  1.00  0.00    -0.277 N 
HETATM   10  C5  UNL     1      23.101   7.499   6.684  1.00  0.00     0.117 A 
HETATM   11  C4  UNL     1      24.357   8.035   6.680  1.00  0.00     0.075 A 
HETATM   12  C3  UNL     1      24.925   7.757   7.903  1.00  0.00     0.029 A 
HETATM   13  N4  UNL     1      23.995   7.072   8.584  1.00  0.00    -0.301 N 
ATOM     14  H4  UNL     1      24.120   6.722   9.535  1.00  0.00     0.187 HD
BRANCH  10  15
HETATM   15  N1  UNL     1      22.261   7.555   5.712  1.00  0.00    -0.384 N 
ATOM     16  H12 UNL     1      22.274   6.972   4.876  1.00  0.00     0.157 HD
ATOM     17  H11 UNL     1      21.468   8.194   5.650  1.00  0.00     0.157 HD
ENDBRANCH  10  15
BRANCH  12  18
HETATM   18  C2  UNL     1      26.293   8.134   8.390  1.00  0.00     0.054 C 
HETATM   19  C1  UNL     1      27.290   7.742   7.347  1.00  0.00     0.011 C 
ENDBRANCH  12  18
ENDBRANCH   8   9
ENDBRANCH   7   8
ENDBRANCH   1   7
BRANCH   4  20
HETATM   20  C12 UNL     1      23.766   6.329  13.503  1.00  0.00     0.226 C 
HETATM   21  O1  UNL     1      24.806   5.721  13.038  1.00  0.00    -0.273 OA
HETATM   22  N3  UNL     1      24.009   7.426  14.346  1.00  0.00    -0.325 N 
HETATM   23  C13 UNL     1      25.382   7.807  14.630  1.00  0.00     0.128 C 
HETATM   24  C20 UNL     1      22.950   8.166  14.943  1.00  0.00     0.230 C 
HETATM   25  C14 UNL     1      25.598   7.911  16.124  1.00  0.00     0.020 C 
HETATM   26  C15 UNL     1      24.607   8.827  16.746  1.00  0.00     0.010 C 
HETATM   27  C16 UNL     1      23.419   9.189  15.945  1.00  0.00     0.037 C 
HETATM   28  C17 UNL     1      22.237   9.305  16.898  1.00  0.00     0.040 C 
HETATM   29  C18 UNL     1      21.223   8.390  16.229  1.00  0.00     0.120 C 
HETATM   30  C19 UNL     1      20.294   7.809  17.274  1.00  0.00     0.039 C 
HETATM   31  O2  UNL     1      22.047   7.413  15.674  1.00  0.00    -0.361 OA
ENDBRANCH   4  20
TORSDOF 6
ENDMDL
