MODEL 1
REMARK VINA RESULT: -7.946059536      0.000      0.000
REMARK  7 active torsions:
REMARK  status: ('A' for Active; 'I' for Inactive)
REMARK    1  A    between atoms: C2_2  and  N1_4 
REMARK       I    between atoms: N1_4  and  C4_6 
REMARK       I    between atoms: C4_6  and  N2_8 
REMARK    2  A    between atoms: N2_8  and  C5_10 
REMARK    3  A    between atoms: C5_10  and  C7_12 
REMARK    4  A    between atoms: C13_18  and  O2_19 
REMARK    5  A    between atoms: O2_19  and  C14_20 
REMARK    6  A    between atoms: C14_20  and  C15_22 
REMARK    7  A    between atoms: C15_22  and  N3_23 
ROOT
HETATM    1  C7  UNL     1      21.411   5.709   9.378  1.00  0.00     0.012 C 
HETATM    2  C8  UNL     1      22.831   6.028   9.835  1.00  0.00     0.012 C 
HETATM    3  C9  UNL     1      23.057   5.256  11.110  1.00  0.00    -0.009 C 
HETATM    4  C10 UNL     1      24.253   5.721  11.905  1.00  0.00     0.010 C 
HETATM    5  C11 UNL     1      23.862   5.151  13.279  1.00  0.00    -0.007 C 
HETATM    6  C12 UNL     1      24.652   5.868  14.315  1.00  0.00     0.037 C 
HETATM    7  C13 UNL     1      23.686   6.818  14.991  1.00  0.00     0.132 C 
HETATM    8  C18 UNL     1      22.489   6.901  14.041  1.00  0.00     0.038 C 
HETATM    9  C19 UNL     1      22.422   5.533  13.401  1.00  0.00    -0.004 C 
HETATM   10  C20 UNL     1      21.872   5.512  12.021  1.00  0.00    -0.006 C 
HETATM   11  C21 UNL     1      21.128   6.757  11.614  1.00  0.00     0.010 C 
HETATM   12  C22 UNL     1      20.481   6.452  10.252  1.00  0.00    -0.012 C 
HETATM   13  C23 UNL     1      19.941   7.738   9.737  1.00  0.00     0.010 C 
ENDROOT
BRANCH   1  14
HETATM   14  C5  UNL     1      21.238   5.768   7.920  1.00  0.00     0.086 C 
HETATM   15  C6  UNL     1      20.328   4.583   7.538  1.00  0.00     0.032 C 
BRANCH  14  16
HETATM   16  N2  UNL     1      22.366   5.683   7.076  1.00  0.00    -0.339 N 
HETATM   17  C4  UNL     1      22.828   6.838   6.397  1.00  0.00     0.316 C 
HETATM   18  N1  UNL     1      23.966   6.805   5.526  1.00  0.00    -0.339 N 
HETATM   19  O1  UNL     1      22.250   7.935   6.539  1.00  0.00    -0.247 OA
ATOM     20  H1  UNL     1      24.457   5.920   5.392  1.00  0.00     0.164 HD
ATOM     21  H2  UNL     1      22.847   4.792   6.955  1.00  0.00     0.164 HD
BRANCH  18  22
HETATM   22  C2  UNL     1      24.443   7.973   4.832  1.00  0.00     0.078 C 
HETATM   23  C1  UNL     1      23.839   7.938   3.447  1.00  0.00     0.032 C 
HETATM   24  C3  UNL     1      25.948   7.972   4.684  1.00  0.00     0.032 C 
ENDBRANCH  18  22
ENDBRANCH  14  16
ENDBRANCH   1  14
BRANCH   7  25
HETATM   25  O2  UNL     1      23.337   6.223  16.222  1.00  0.00    -0.315 OA
BRANCH  25  26
HETATM   26  C14 UNL     1      24.279   5.641  17.052  1.00  0.00     0.287 C 
HETATM   27  O3  UNL     1      24.660   4.461  16.854  1.00  0.00    -0.263 OA
BRANCH  26  28
HETATM   28  C15 UNL     1      24.838   6.406  18.169  1.00  0.00     0.381 C 
BRANCH  28  29
HETATM   29  N3  UNL     1      25.366   5.564  19.207  1.00  0.00     0.089 N 
HETATM   30  C16 UNL     1      26.629   6.069  19.714  1.00  0.00     0.310 C 
HETATM   31  C17 UNL     1      24.436   5.265  20.254  1.00  0.00     0.310 C 
ENDBRANCH  28  29
ENDBRANCH  26  28
ENDBRANCH  25  26
ENDBRANCH   7  25
TORSDOF 7
ENDMDL
MODEL 2
REMARK VINA RESULT: -7.942559641      2.934      4.771
REMARK  7 active torsions:
REMARK  status: ('A' for Active; 'I' for Inactive)
REMARK    1  A    between atoms: C2_2  and  N1_4 
REMARK       I    between atoms: N1_4  and  C4_6 
REMARK       I    between atoms: C4_6  and  N2_8 
REMARK    2  A    between atoms: N2_8  and  C5_10 
REMARK    3  A    between atoms: C5_10  and  C7_12 
REMARK    4  A    between atoms: C13_18  and  O2_19 
REMARK    5  A    between atoms: O2_19  and  C14_20 
REMARK    6  A    between atoms: C14_20  and  C15_22 
REMARK    7  A    between atoms: C15_22  and  N3_23 
ROOT
HETATM    1  C7  UNL     1      23.901   6.515  11.824  1.00  0.00     0.012 C 
HETATM    2  C8  UNL     1      23.114   7.411  12.776  1.00  0.00     0.012 C 
HETATM    3  C9  UNL     1      24.120   8.043  13.704  1.00  0.00    -0.009 C 
HETATM    4  C10 UNL     1      23.513   8.665  14.938  1.00  0.00     0.010 C 
HETATM    5  C11 UNL     1      24.762   8.689  15.833  1.00  0.00    -0.007 C 
HETATM    6  C12 UNL     1      24.314   8.832  17.244  1.00  0.00     0.037 C 
HETATM    7  C13 UNL     1      24.497   7.469  17.878  1.00  0.00     0.132 C 
HETATM    8  C18 UNL     1      24.652   6.505  16.699  1.00  0.00     0.038 C 
HETATM    9  C19 UNL     1      25.342   7.325  15.633  1.00  0.00    -0.004 C 
HETATM   10  C20 UNL     1      25.016   6.941  14.236  1.00  0.00    -0.006 C 
HETATM   11  C21 UNL     1      24.368   5.589  14.083  1.00  0.00     0.010 C 
HETATM   12  C22 UNL     1      24.300   5.307  12.572  1.00  0.00    -0.012 C 
HETATM   13  C23 UNL     1      23.461   4.091  12.402  1.00  0.00     0.010 C 
ENDROOT
BRANCH   1  14
HETATM   14  C5  UNL     1      23.276   6.375  10.502  1.00  0.00     0.086 C 
HETATM   15  C6  UNL     1      23.748   7.580   9.663  1.00  0.00     0.032 C 
BRANCH  14  16
HETATM   16  N2  UNL     1      21.869   6.350  10.391  1.00  0.00    -0.339 N 
HETATM   17  C4  UNL     1      21.238   5.327   9.639  1.00  0.00     0.316 C 
HETATM   18  N1  UNL     1      19.814   5.258   9.492  1.00  0.00    -0.339 N 
HETATM   19  O1  UNL     1      21.914   4.443   9.074  1.00  0.00    -0.247 OA
ATOM     20  H1  UNL     1      19.238   5.969   9.943  1.00  0.00     0.164 HD
ATOM     21  H2  UNL     1      21.308   7.067  10.850  1.00  0.00     0.164 HD
BRANCH  18  22
HETATM   22  C2  UNL     1      19.165   4.223   8.730  1.00  0.00     0.078 C 
HETATM   23  C1  UNL     1      18.089   4.893   7.906  1.00  0.00     0.032 C 
HETATM   24  C3  UNL     1      18.501   3.195   9.618  1.00  0.00     0.032 C 
ENDBRANCH  18  22
ENDBRANCH  14  16
ENDBRANCH   1  14
BRANCH   7  25
HETATM   25  O2  UNL     1      25.675   7.543  18.652  1.00  0.00    -0.315 OA
BRANCH  25  26
HETATM   26  C14 UNL     1      25.828   6.829  19.828  1.00  0.00     0.287 C 
HETATM   27  O3  UNL     1      24.830   6.537  20.532  1.00  0.00    -0.263 OA
BRANCH  26  28
HETATM   28  C15 UNL     1      27.165   6.410  20.256  1.00  0.00     0.381 C 
BRANCH  28  29
HETATM   29  N3  UNL     1      27.714   7.264  21.272  1.00  0.00     0.089 N 
HETATM   30  C16 UNL     1      28.895   6.679  21.882  1.00  0.00     0.310 C 
HETATM   31  C17 UNL     1      27.927   8.617  20.854  1.00  0.00     0.310 C 
ENDBRANCH  28  29
ENDBRANCH  26  28
ENDBRANCH  25  26
ENDBRANCH   7  25
TORSDOF 7
ENDMDL
MODEL 3
REMARK VINA RESULT: -7.913798116      2.522      4.291
REMARK  7 active torsions:
REMARK  status: ('A' for Active; 'I' for Inactive)
REMARK    1  A    between atoms: C2_2  and  N1_4 
REMARK       I    between atoms: N1_4  and  C4_6 
REMARK       I    between atoms: C4_6  and  N2_8 
REMARK    2  A    between atoms: N2_8  and  C5_10 
REMARK    3  A    between atoms: C5_10  and  C7_12 
REMARK    4  A    between atoms: C13_18  and  O2_19 
REMARK    5  A    between atoms: O2_19  and  C14_20 
REMARK    6  A    between atoms: C14_20  and  C15_22 
REMARK    7  A    between atoms: C15_22  and  N3_23 
ROOT
HETATM    1  C7  UNL     1      23.435   6.260  10.971  1.00  0.00     0.012 C 
HETATM    2  C8  UNL     1      22.761   7.323  11.835  1.00  0.00     0.012 C 
HETATM    3  C9  UNL     1      23.839   7.921  12.702  1.00  0.00    -0.009 C 
HETATM    4  C10 UNL     1      23.315   8.718  13.872  1.00  0.00     0.010 C 
HETATM    5  C11 UNL     1      24.566   8.683  14.764  1.00  0.00    -0.007 C 
HETATM    6  C12 UNL     1      24.148   9.005  16.154  1.00  0.00     0.037 C 
HETATM    7  C13 UNL     1      24.182   7.694  16.912  1.00  0.00     0.132 C 
HETATM    8  C18 UNL     1      24.219   6.615  15.828  1.00  0.00     0.038 C 
HETATM    9  C19 UNL     1      24.988   7.250  14.692  1.00  0.00    -0.004 C 
HETATM   10  C20 UNL     1      24.609   6.778  13.336  1.00  0.00    -0.006 C 
HETATM   11  C21 UNL     1      23.813   5.499  13.307  1.00  0.00     0.010 C 
HETATM   12  C22 UNL     1      23.702   5.088  11.829  1.00  0.00    -0.012 C 
HETATM   13  C23 UNL     1      22.730   3.964  11.770  1.00  0.00     0.010 C 
ENDROOT
BRANCH   1  14
HETATM   14  C5  UNL     1      22.787   6.070   9.667  1.00  0.00     0.086 C 
HETATM   15  C6  UNL     1      23.417   7.103   8.709  1.00  0.00     0.032 C 
BRANCH  14  16
HETATM   16  N2  UNL     1      21.390   6.228   9.547  1.00  0.00    -0.339 N 
HETATM   17  C4  UNL     1      20.612   5.208   8.944  1.00  0.00     0.316 C 
HETATM   18  N1  UNL     1      19.191   5.321   8.795  1.00  0.00    -0.339 N 
HETATM   19  O1  UNL     1      21.150   4.165   8.518  1.00  0.00    -0.247 OA
ATOM     20  H1  UNL     1      18.727   6.163   9.135  1.00  0.00     0.164 HD
ATOM     21  H2  UNL     1      20.941   7.075   9.894  1.00  0.00     0.164 HD
BRANCH  18  22
HETATM   22  C2  UNL     1      18.394   4.289   8.184  1.00  0.00     0.078 C 
HETATM   23  C1  UNL     1      17.154   4.960   7.636  1.00  0.00     0.032 C 
HETATM   24  C3  UNL     1      17.954   3.243   9.183  1.00  0.00     0.032 C 
ENDBRANCH  18  22
ENDBRANCH  14  16
ENDBRANCH   1  14
BRANCH   7  25
HETATM   25  O2  UNL     1      25.367   7.707  17.679  1.00  0.00    -0.315 OA
BRANCH  25  26
HETATM   26  C14 UNL     1      25.608   6.778  18.676  1.00  0.00     0.287 C 
HETATM   27  O3  UNL     1      26.548   5.953  18.567  1.00  0.00    -0.263 OA
BRANCH  26  28
HETATM   28  C15 UNL     1      24.760   6.756  19.871  1.00  0.00     0.381 C 
BRANCH  28  29
HETATM   29  N3  UNL     1      23.675   5.820  19.763  1.00  0.00     0.089 N 
HETATM   30  C16 UNL     1      23.909   4.635  20.568  1.00  0.00     0.310 C 
HETATM   31  C17 UNL     1      22.380   6.389  19.988  1.00  0.00     0.310 C 
ENDBRANCH  28  29
ENDBRANCH  26  28
ENDBRANCH  25  26
ENDBRANCH   7  25
TORSDOF 7
ENDMDL
MODEL 4
REMARK VINA RESULT: -7.868831429      0.869      1.119
REMARK  7 active torsions:
REMARK  status: ('A' for Active; 'I' for Inactive)
REMARK    1  A    between atoms: C2_2  and  N1_4 
REMARK       I    between atoms: N1_4  and  C4_6 
REMARK       I    between atoms: C4_6  and  N2_8 
REMARK    2  A    between atoms: N2_8  and  C5_10 
REMARK    3  A    between atoms: C5_10  and  C7_12 
REMARK    4  A    between atoms: C13_18  and  O2_19 
REMARK    5  A    between atoms: O2_19  and  C14_20 
REMARK    6  A    between atoms: C14_20  and  C15_22 
REMARK    7  A    between atoms: C15_22  and  N3_23 
ROOT
HETATM    1  C7  UNL     1      21.378   5.777   9.200  1.00  0.00     0.012 C 
HETATM    2  C8  UNL     1      22.792   6.116   9.661  1.00  0.00     0.012 C 
HETATM    3  C9  UNL     1      23.053   5.291  10.896  1.00  0.00    -0.009 C 
HETATM    4  C10 UNL     1      24.241   5.753  11.704  1.00  0.00     0.010 C 
HETATM    5  C11 UNL     1      23.880   5.106  13.051  1.00  0.00    -0.007 C 
HETATM    6  C12 UNL     1      24.658   5.795  14.114  1.00  0.00     0.037 C 
HETATM    7  C13 UNL     1      23.670   6.683  14.843  1.00  0.00     0.132 C 
HETATM    8  C18 UNL     1      22.463   6.776  13.907  1.00  0.00     0.038 C 
HETATM    9  C19 UNL     1      22.430   5.439  13.203  1.00  0.00    -0.004 C 
HETATM   10  C20 UNL     1      21.869   5.467  11.828  1.00  0.00    -0.006 C 
HETATM   11  C21 UNL     1      21.084   6.707  11.487  1.00  0.00     0.010 C 
HETATM   12  C22 UNL     1      20.434   6.449  10.116  1.00  0.00    -0.012 C 
HETATM   13  C23 UNL     1      19.852   7.741   9.668  1.00  0.00     0.010 C 
ENDROOT
BRANCH   1  14
HETATM   14  C5  UNL     1      21.190   5.901   7.749  1.00  0.00     0.086 C 
HETATM   15  C6  UNL     1      20.186   4.803   7.341  1.00  0.00     0.032 C 
BRANCH  14  16
HETATM   16  N2  UNL     1      22.296   5.758   6.884  1.00  0.00    -0.339 N 
HETATM   17  C4  UNL     1      22.880   6.905   6.290  1.00  0.00     0.316 C 
HETATM   18  N1  UNL     1      24.002   6.815   5.402  1.00  0.00    -0.339 N 
HETATM   19  O1  UNL     1      22.428   8.045   6.525  1.00  0.00    -0.247 OA
ATOM     20  H1  UNL     1      24.391   5.896   5.192  1.00  0.00     0.164 HD
ATOM     21  H2  UNL     1      22.674   4.832   6.687  1.00  0.00     0.164 HD
BRANCH  18  22
HETATM   22  C2  UNL     1      24.601   7.975   4.794  1.00  0.00     0.078 C 
HETATM   23  C1  UNL     1      24.130   8.011   3.358  1.00  0.00     0.032 C 
HETATM   24  C3  UNL     1      26.111   7.897   4.787  1.00  0.00     0.032 C 
ENDBRANCH  18  22
ENDBRANCH  14  16
ENDBRANCH   1  14
BRANCH   7  25
HETATM   25  O2  UNL     1      23.350   6.020  16.047  1.00  0.00    -0.315 OA
BRANCH  25  26
HETATM   26  C14 UNL     1      24.274   5.852  17.063  1.00  0.00     0.287 C 
HETATM   27  O3  UNL     1      24.678   4.705  17.376  1.00  0.00    -0.263 OA
BRANCH  26  28
HETATM   28  C15 UNL     1      24.788   7.022  17.780  1.00  0.00     0.381 C 
BRANCH  28  29
HETATM   29  N3  UNL     1      23.808   7.615  18.647  1.00  0.00     0.089 N 
HETATM   30  C16 UNL     1      23.009   8.607  17.951  1.00  0.00     0.310 C 
HETATM   31  C17 UNL     1      23.006   6.669  19.364  1.00  0.00     0.310 C 
ENDBRANCH  28  29
ENDBRANCH  26  28
ENDBRANCH  25  26
ENDBRANCH   7  25
TORSDOF 7
ENDMDL
MODEL 5
REMARK VINA RESULT: -7.809893696      4.185      6.680
REMARK  7 active torsions:
REMARK  status: ('A' for Active; 'I' for Inactive)
REMARK    1  A    between atoms: C2_2  and  N1_4 
REMARK       I    between atoms: N1_4  and  C4_6 
REMARK       I    between atoms: C4_6  and  N2_8 
REMARK    2  A    between atoms: N2_8  and  C5_10 
REMARK    3  A    between atoms: C5_10  and  C7_12 
REMARK    4  A    between atoms: C13_18  and  O2_19 
REMARK    5  A    between atoms: O2_19  and  C14_20 
REMARK    6  A    between atoms: C14_20  and  C15_22 
REMARK    7  A    between atoms: C15_22  and  N3_23 
ROOT
HETATM    1  C7  UNL     1      22.760   8.122  15.435  1.00  0.00     0.012 C 
HETATM    2  C8  UNL     1      22.899   6.739  16.064  1.00  0.00     0.012 C 
HETATM    3  C9  UNL     1      23.033   6.953  17.550  1.00  0.00    -0.009 C 
HETATM    4  C10 UNL     1      23.546   5.748  18.301  1.00  0.00     0.010 C 
HETATM    5  C11 UNL     1      24.053   6.454  19.569  1.00  0.00    -0.007 C 
HETATM    6  C12 UNL     1      25.009   5.542  20.251  1.00  0.00     0.037 C 
HETATM    7  C13 UNL     1      26.387   6.110  19.985  1.00  0.00     0.132 C 
HETATM    8  C18 UNL     1      26.193   7.084  18.822  1.00  0.00     0.038 C 
HETATM    9  C19 UNL     1      24.797   7.630  19.020  1.00  0.00    -0.004 C 
HETATM   10  C20 UNL     1      24.091   8.016  17.771  1.00  0.00    -0.006 C 
HETATM   11  C21 UNL     1      24.976   8.167  16.561  1.00  0.00     0.010 C 
HETATM   12  C22 UNL     1      24.094   8.755  15.447  1.00  0.00    -0.012 C 
HETATM   13  C23 UNL     1      24.890   8.692  14.193  1.00  0.00     0.010 C 
ENDROOT
BRANCH   1  14
HETATM   14  C5  UNL     1      21.968   8.125  14.198  1.00  0.00     0.086 C 
HETATM   15  C6  UNL     1      20.880   9.203  14.376  1.00  0.00     0.032 C 
BRANCH  14  16
HETATM   16  N2  UNL     1      21.293   6.953  13.795  1.00  0.00    -0.339 N 
HETATM   17  C4  UNL     1      21.603   6.352  12.549  1.00  0.00     0.316 C 
HETATM   18  N1  UNL     1      20.945   5.164  12.091  1.00  0.00    -0.339 N 
HETATM   19  O1  UNL     1      22.472   6.847  11.802  1.00  0.00    -0.247 OA
ATOM     20  H1  UNL     1      20.230   4.739  12.682  1.00  0.00     0.164 HD
ATOM     21  H2  UNL     1      20.583   6.539  14.398  1.00  0.00     0.164 HD
BRANCH  18  22
HETATM   22  C2  UNL     1      21.254   4.547  10.827  1.00  0.00     0.078 C 
HETATM   23  C1  UNL     1      19.993   3.861  10.353  1.00  0.00     0.032 C 
HETATM   24  C3  UNL     1      22.335   3.498  10.955  1.00  0.00     0.032 C 
ENDBRANCH  18  22
ENDBRANCH  14  16
ENDBRANCH   1  14
BRANCH   7  25
HETATM   25  O2  UNL     1      26.780   6.775  21.167  1.00  0.00    -0.315 OA
BRANCH  25  26
HETATM   26  C14 UNL     1      27.993   7.433  21.271  1.00  0.00     0.287 C 
HETATM   27  O3  UNL     1      28.168   8.541  20.707  1.00  0.00    -0.263 OA
BRANCH  26  28
HETATM   28  C15 UNL     1      29.082   6.835  22.047  1.00  0.00     0.381 C 
BRANCH  28  29
HETATM   29  N3  UNL     1      29.192   7.391  23.368  1.00  0.00     0.089 N 
HETATM   30  C16 UNL     1      29.170   6.357  24.387  1.00  0.00     0.310 C 
HETATM   31  C17 UNL     1      30.283   8.302  23.535  1.00  0.00     0.310 C 
ENDBRANCH  28  29
ENDBRANCH  26  28
ENDBRANCH  25  26
ENDBRANCH   7  25
TORSDOF 7
ENDMDL
