MODEL 1
REMARK VINA RESULT: -5.457057306      0.000      0.000
REMARK  3 active torsions:
REMARK  status: ('A' for Active; 'I' for Inactive)
REMARK    1  A    between atoms: N1_1  and  N2_4 
REMARK    2  A    between atoms: N3_6  and  C1_8 
REMARK    3  A    between atoms: C5_12  and  N4_13 
ROOT
HETATM    1  C1  UNL     1      24.831  38.171  41.139  1.00  0.00     0.131 C 
HETATM    2  C2  UNL     1      25.328  36.810  41.631  1.00  0.00     0.029 C 
HETATM    3  C3  UNL     1      26.760  37.178  42.014  1.00  0.00     0.004 C 
HETATM    4  C4  UNL     1      26.456  38.371  42.931  1.00  0.00     0.035 C 
HETATM    5  C5  UNL     1      25.358  39.099  42.185  1.00  0.00     0.207 C 
ENDROOT
BRANCH   1   6
HETATM    6  N3  UNL     1      23.421  38.211  40.956  1.00  0.00    -0.316 N 
HETATM    7  N2  UNL     1      22.648  38.151  41.914  1.00  0.00    -0.253 N 
ATOM      8  H2  UNL     1      22.981  37.313  42.392  1.00  0.00     0.207 HD
ATOM      9  H3  UNL     1      23.041  38.290  40.013  1.00  0.00     0.182 HD
BRANCH   7  10
HETATM   10  N1  UNL     1      21.711  38.496  42.645  1.00  0.00    -0.331 N 
ATOM     11  H12 UNL     1      22.063  38.133  43.530  1.00  0.00     0.178 HD
ATOM     12  H11 UNL     1      20.814  38.918  42.885  1.00  0.00     0.178 HD
ENDBRANCH   7  10
ENDBRANCH   1   6
BRANCH   5  13
HETATM   13  N4  UNL     1      25.911  40.299  41.562  1.00  0.00    -0.073 N 
ATOM     14  H43 UNL     1      26.779  40.105  41.063  1.00  0.00     0.274 HD
ATOM     15  H42 UNL     1      25.348  40.611  40.769  1.00  0.00     0.274 HD
ATOM     16  H41 UNL     1      26.028  41.036  42.258  1.00  0.00     0.274 HD
ENDBRANCH   5  13
TORSDOF 3
ENDMDL
MODEL 2
REMARK VINA RESULT: -4.781752760      2.289      2.885
REMARK  3 active torsions:
REMARK  status: ('A' for Active; 'I' for Inactive)
REMARK    1  A    between atoms: N1_1  and  N2_4 
REMARK    2  A    between atoms: N3_6  and  C1_8 
REMARK    3  A    between atoms: C5_12  and  N4_13 
ROOT
HETATM    1  C1  UNL     1      24.618  38.091  43.085  1.00  0.00     0.131 C 
HETATM    2  C2  UNL     1      26.141  37.943  43.034  1.00  0.00     0.029 C 
HETATM    3  C3  UNL     1      26.296  37.342  41.638  1.00  0.00     0.004 C 
HETATM    4  C4  UNL     1      25.502  38.388  40.844  1.00  0.00     0.035 C 
HETATM    5  C5  UNL     1      24.308  38.653  41.737  1.00  0.00     0.207 C 
ENDROOT
BRANCH   1   6
HETATM    6  N3  UNL     1      24.178  38.883  44.182  1.00  0.00    -0.316 N 
HETATM    7  N2  UNL     1      24.081  38.410  45.316  1.00  0.00    -0.253 N 
ATOM      8  H2  UNL     1      23.507  37.586  45.144  1.00  0.00     0.207 HD
ATOM      9  H3  UNL     1      23.939  39.862  44.027  1.00  0.00     0.182 HD
BRANCH   7  10
HETATM   10  N1  UNL     1      24.262  38.336  46.538  1.00  0.00    -0.331 N 
ATOM     11  H12 UNL     1      24.077  39.309  46.781  1.00  0.00     0.178 HD
ATOM     12  H11 UNL     1      24.481  37.891  47.429  1.00  0.00     0.178 HD
ENDBRANCH   7  10
ENDBRANCH   1   6
BRANCH   5  13
HETATM   13  N4  UNL     1      23.130  37.995  41.175  1.00  0.00    -0.073 N 
ATOM     14  H43 UNL     1      23.004  38.217  40.188  1.00  0.00     0.274 HD
ATOM     15  H42 UNL     1      23.261  36.987  41.087  1.00  0.00     0.274 HD
ATOM     16  H41 UNL     1      22.302  38.225  41.726  1.00  0.00     0.274 HD
ENDBRANCH   5  13
TORSDOF 3
ENDMDL
MODEL 3
REMARK VINA RESULT: -4.687482219      1.887      2.245
REMARK  3 active torsions:
REMARK  status: ('A' for Active; 'I' for Inactive)
REMARK    1  A    between atoms: N1_1  and  N2_4 
REMARK    2  A    between atoms: N3_6  and  C1_8 
REMARK    3  A    between atoms: C5_12  and  N4_13 
ROOT
HETATM    1  C1  UNL     1      23.971  38.915  42.302  1.00  0.00     0.131 C 
HETATM    2  C2  UNL     1      23.690  37.568  41.632  1.00  0.00     0.029 C 
HETATM    3  C3  UNL     1      24.794  37.567  40.577  1.00  0.00     0.004 C 
HETATM    4  C4  UNL     1      25.993  37.843  41.495  1.00  0.00     0.035 C 
HETATM    5  C5  UNL     1      25.458  38.897  42.440  1.00  0.00     0.207 C 
ENDROOT
BRANCH   1   6
HETATM    6  N3  UNL     1      23.256  39.084  43.521  1.00  0.00    -0.316 N 
HETATM    7  N2  UNL     1      23.642  38.563  44.568  1.00  0.00    -0.253 N 
ATOM      8  H2  UNL     1      23.750  37.590  44.283  1.00  0.00     0.207 HD
ATOM      9  H3  UNL     1      22.407  39.649  43.527  1.00  0.00     0.182 HD
BRANCH   7  10
HETATM   10  N1  UNL     1      23.977  38.511  45.759  1.00  0.00    -0.331 N 
ATOM     11  H12 UNL     1      23.112  38.852  46.178  1.00  0.00     0.178 HD
ATOM     12  H11 UNL     1      24.590  38.335  46.555  1.00  0.00     0.178 HD
ENDBRANCH   7  10
ENDBRANCH   1   6
BRANCH   5  13
HETATM   13  N4  UNL     1      26.014  40.198  42.078  1.00  0.00    -0.073 N 
ATOM     14  H43 UNL     1      27.031  40.214  42.158  1.00  0.00     0.274 HD
ATOM     15  H42 UNL     1      25.939  40.380  41.077  1.00  0.00     0.274 HD
ATOM     16  H41 UNL     1      25.577  40.935  42.633  1.00  0.00     0.274 HD
ENDBRANCH   5  13
TORSDOF 3
ENDMDL
MODEL 4
REMARK VINA RESULT: -4.656991877      9.046      9.803
REMARK  3 active torsions:
REMARK  status: ('A' for Active; 'I' for Inactive)
REMARK    1  A    between atoms: N1_1  and  N2_4 
REMARK    2  A    between atoms: N3_6  and  C1_8 
REMARK    3  A    between atoms: C5_12  and  N4_13 
ROOT
HETATM    1  C1  UNL     1      17.046  33.698  40.000  1.00  0.00     0.131 C 
HETATM    2  C2  UNL     1      15.583  33.375  39.691  1.00  0.00     0.029 C 
HETATM    3  C3  UNL     1      15.772  32.378  38.549  1.00  0.00     0.004 C 
HETATM    4  C4  UNL     1      16.743  31.413  39.241  1.00  0.00     0.035 C 
HETATM    5  C5  UNL     1      17.682  32.347  39.973  1.00  0.00     0.207 C 
ENDROOT
BRANCH   1   6
HETATM    6  N3  UNL     1      17.208  34.415  41.218  1.00  0.00    -0.316 N 
HETATM    7  N2  UNL     1      16.642  35.493  41.408  1.00  0.00    -0.253 N 
ATOM      8  H2  UNL     1      16.920  36.017  40.579  1.00  0.00     0.207 HD
ATOM      9  H3  UNL     1      17.803  34.028  41.950  1.00  0.00     0.182 HD
BRANCH   7  10
HETATM   10  N1  UNL     1      15.939  36.321  42.000  1.00  0.00    -0.331 N 
ATOM     11  H12 UNL     1      16.667  36.776  42.551  1.00  0.00     0.178 HD
ATOM     12  H11 UNL     1      15.083  36.811  42.261  1.00  0.00     0.178 HD
ENDBRANCH   7  10
ENDBRANCH   1   6
BRANCH   5  13
HETATM   13  N4  UNL     1      18.958  32.404  39.264  1.00  0.00    -0.073 N 
ATOM     14  H43 UNL     1      18.891  32.945  38.401  1.00  0.00     0.274 HD
ATOM     15  H42 UNL     1      19.641  32.984  39.752  1.00  0.00     0.274 HD
ATOM     16  H41 UNL     1      19.311  31.461  39.096  1.00  0.00     0.274 HD
ENDBRANCH   5  13
TORSDOF 3
ENDMDL
MODEL 5
REMARK VINA RESULT: -4.624962280      2.295      3.838
REMARK  3 active torsions:
REMARK  status: ('A' for Active; 'I' for Inactive)
REMARK    1  A    between atoms: N1_1  and  N2_4 
REMARK    2  A    between atoms: N3_6  and  C1_8 
REMARK    3  A    between atoms: C5_12  and  N4_13 
ROOT
HETATM    1  C1  UNL     1      24.518  39.121  42.293  1.00  0.00     0.131 C 
HETATM    2  C2  UNL     1      24.062  39.568  43.684  1.00  0.00     0.029 C 
HETATM    3  C3  UNL     1      22.568  39.271  43.576  1.00  0.00     0.004 C 
HETATM    4  C4  UNL     1      22.654  37.806  43.124  1.00  0.00     0.035 C 
HETATM    5  C5  UNL     1      23.786  37.831  42.119  1.00  0.00     0.207 C 
ENDROOT
BRANCH   1   6
HETATM    6  N3  UNL     1      25.933  39.029  42.180  1.00  0.00    -0.316 N 
HETATM    7  N2  UNL     1      26.595  38.338  42.956  1.00  0.00    -0.253 N 
ATOM      8  H2  UNL     1      26.273  38.682  43.860  1.00  0.00     0.207 HD
ATOM      9  H3  UNL     1      26.410  39.546  41.441  1.00  0.00     0.182 HD
BRANCH   7  10
HETATM   10  N1  UNL     1      27.416  37.476  43.296  1.00  0.00    -0.331 N 
ATOM     11  H12 UNL     1      28.240  38.072  43.377  1.00  0.00     0.178 HD
ATOM     12  H11 UNL     1      27.754  36.545  43.540  1.00  0.00     0.178 HD
ENDBRANCH   7  10
ENDBRANCH   1   6
BRANCH   5  13
HETATM   13  N4  UNL     1      23.235  37.742  40.769  1.00  0.00    -0.073 N 
ATOM     14  H43 UNL     1      23.442  36.844  40.331  1.00  0.00     0.274 HD
ATOM     15  H42 UNL     1      22.217  37.675  40.776  1.00  0.00     0.274 HD
ATOM     16  H41 UNL     1      23.562  38.525  40.203  1.00  0.00     0.274 HD
ENDBRANCH   5  13
TORSDOF 3
ENDMDL
