MODEL 1
REMARK VINA RESULT: -7.330185757      0.000      0.000
REMARK  2 active torsions:
REMARK  status: ('A' for Active; 'I' for Inactive)
REMARK       I    between atoms: N1_3  and  C3_5 
REMARK       I    between atoms: C3_5  and  N3_9 
REMARK    1  A    between atoms: C7_13  and  C8_14 
REMARK       I    between atoms: C8_14  and  N4_16 
REMARK    2  A    between atoms: N4_16  and  C9_18 
ROOT
HETATM    1  C1  UNL     1      16.782  67.175   8.883  1.00  0.00     0.037 C 
HETATM    2  C2  UNL     1      17.836  67.703   9.172  1.00  0.00     0.015 C 
HETATM    3  N1  UNL     1      19.057  68.313   9.488  1.00  0.00    -0.150 N 
ATOM      4  H1  UNL     1      19.340  68.362  10.467  1.00  0.00     0.195 HD
HETATM    5  C3  UNL     1      19.916  68.867   8.504  1.00  0.00     0.682 C 
HETATM    6  N2  UNL     1      20.884  69.636   8.902  1.00  0.00    -0.234 N 
ATOM      7  H21 UNL     1      21.502  70.034   8.194  1.00  0.00     0.174 HD
ATOM      8  H22 UNL     1      20.975  69.796   9.905  1.00  0.00     0.174 HD
HETATM    9  N3  UNL     1      19.792  68.647   7.126  1.00  0.00    -0.204 N 
HETATM   10  C4  UNL     1      18.966  69.393   6.211  1.00  0.00     0.142 C 
HETATM   11  C5  UNL     1      18.451  68.311   5.288  1.00  0.00     0.023 C 
HETATM   12  C6  UNL     1      19.281  67.076   5.564  1.00  0.00     0.037 C 
HETATM   13  C7  UNL     1      20.446  67.655   6.336  1.00  0.00     0.194 C 
ENDROOT
BRANCH  13  14
HETATM   14  C8  UNL     1      21.237  66.666   7.046  1.00  0.00     0.241 C 
HETATM   15  O1  UNL     1      20.671  65.632   7.476  1.00  0.00    -0.271 OA
HETATM   16  N4  UNL     1      22.627  66.768   7.305  1.00  0.00    -0.355 N 
ATOM     17  H4  UNL     1      23.111  67.599   6.967  1.00  0.00     0.162 HD
BRANCH  16  18
HETATM   18  C9  UNL     1      23.396  65.793   8.003  1.00  0.00     0.084 C 
HETATM   19  C10 UNL     1      24.245  66.373   9.112  1.00  0.00     0.025 C 
HETATM   20  C11 UNL     1      25.489  65.512   9.198  1.00  0.00     0.002 C 
HETATM   21  C12 UNL     1      25.273  64.388   8.184  1.00  0.00     0.002 C 
HETATM   22  C13 UNL     1      24.421  65.097   7.151  1.00  0.00     0.025 C 
ENDBRANCH  16  18
ENDBRANCH  13  14
TORSDOF 2
ENDMDL
MODEL 2
REMARK VINA RESULT: -7.170168171      4.068      6.699
REMARK  2 active torsions:
REMARK  status: ('A' for Active; 'I' for Inactive)
REMARK       I    between atoms: N1_3  and  C3_5 
REMARK       I    between atoms: C3_5  and  N3_9 
REMARK    1  A    between atoms: C7_13  and  C8_14 
REMARK       I    between atoms: C8_14  and  N4_16 
REMARK    2  A    between atoms: N4_16  and  C9_18 
ROOT
HETATM    1  C1  UNL     1      22.282  62.593   9.634  1.00  0.00     0.037 C 
HETATM    2  C2  UNL     1      22.891  62.211   8.655  1.00  0.00     0.015 C 
HETATM    3  N1  UNL     1      23.600  61.788   7.523  1.00  0.00    -0.150 N 
ATOM      4  H1  UNL     1      23.423  60.852   7.157  1.00  0.00     0.195 HD
HETATM    5  C3  UNL     1      24.554  62.606   6.864  1.00  0.00     0.682 C 
HETATM    6  N2  UNL     1      25.344  62.046   5.998  1.00  0.00    -0.234 N 
ATOM      7  H21 UNL     1      26.029  62.635   5.524  1.00  0.00     0.174 HD
ATOM      8  H22 UNL     1      25.230  61.046   5.837  1.00  0.00     0.174 HD
HETATM    9  N3  UNL     1      24.710  63.980   7.085  1.00  0.00    -0.204 N 
HETATM   10  C4  UNL     1      25.519  64.597   8.106  1.00  0.00     0.142 C 
HETATM   11  C5  UNL     1      24.664  65.771   8.528  1.00  0.00     0.023 C 
HETATM   12  C6  UNL     1      23.574  65.909   7.488  1.00  0.00     0.037 C 
HETATM   13  C7  UNL     1      24.116  65.057   6.361  1.00  0.00     0.194 C 
ENDROOT
BRANCH  13  14
HETATM   14  C8  UNL     1      23.128  64.705   5.356  1.00  0.00     0.241 C 
HETATM   15  O1  UNL     1      23.456  64.745   4.145  1.00  0.00    -0.271 OA
HETATM   16  N4  UNL     1      21.794  64.312   5.627  1.00  0.00    -0.355 N 
ATOM     17  H4  UNL     1      21.502  64.271   6.603  1.00  0.00     0.162 HD
BRANCH  16  18
HETATM   18  C9  UNL     1      20.831  63.968   4.635  1.00  0.00     0.084 C 
HETATM   19  C10 UNL     1      19.401  64.137   5.095  1.00  0.00     0.025 C 
HETATM   20  C11 UNL     1      18.590  63.077   4.379  1.00  0.00     0.002 C 
HETATM   21  C12 UNL     1      19.575  62.379   3.441  1.00  0.00     0.002 C 
HETATM   22  C13 UNL     1      20.864  62.521   4.225  1.00  0.00     0.025 C 
ENDBRANCH  16  18
ENDBRANCH  13  14
TORSDOF 2
ENDMDL
MODEL 3
REMARK VINA RESULT: -7.167823544      1.870      3.230
REMARK  2 active torsions:
REMARK  status: ('A' for Active; 'I' for Inactive)
REMARK       I    between atoms: N1_3  and  C3_5 
REMARK       I    between atoms: C3_5  and  N3_9 
REMARK    1  A    between atoms: C7_13  and  C8_14 
REMARK       I    between atoms: C8_14  and  N4_16 
REMARK    2  A    between atoms: N4_16  and  C9_18 
ROOT
HETATM    1  C1  UNL     1      21.184  67.548   5.020  1.00  0.00     0.037 C 
HETATM    2  C2  UNL     1      20.735  66.709   5.775  1.00  0.00     0.015 C 
HETATM    3  N1  UNL     1      20.216  65.754   6.658  1.00  0.00    -0.150 N 
ATOM      4  H1  UNL     1      20.260  64.770   6.395  1.00  0.00     0.195 HD
HETATM    5  C3  UNL     1      19.629  66.099   7.904  1.00  0.00     0.682 C 
HETATM    6  N2  UNL     1      18.945  65.189   8.529  1.00  0.00    -0.234 N 
ATOM      7  H21 UNL     1      18.524  65.437   9.424  1.00  0.00     0.174 HD
ATOM      8  H22 UNL     1      18.871  64.272   8.089  1.00  0.00     0.174 HD
HETATM    9  N3  UNL     1      19.731  67.358   8.508  1.00  0.00    -0.204 N 
HETATM   10  C4  UNL     1      18.873  68.492   8.275  1.00  0.00     0.142 C 
HETATM   11  C5  UNL     1      19.850  69.647   8.308  1.00  0.00     0.023 C 
HETATM   12  C6  UNL     1      21.144  69.103   8.873  1.00  0.00     0.037 C 
HETATM   13  C7  UNL     1      20.688  67.792   9.474  1.00  0.00     0.194 C 
ENDROOT
BRANCH  13  14
HETATM   14  C8  UNL     1      21.771  66.873   9.782  1.00  0.00     0.241 C 
HETATM   15  O1  UNL     1      21.542  65.899  10.541  1.00  0.00    -0.271 OA
HETATM   16  N4  UNL     1      23.095  66.982   9.292  1.00  0.00    -0.355 N 
ATOM     17  H4  UNL     1      23.308  67.764   8.674  1.00  0.00     0.162 HD
BRANCH  16  18
HETATM   18  C9  UNL     1      24.152  66.076   9.599  1.00  0.00     0.084 C 
HETATM   19  C10 UNL     1      25.196  66.656  10.526  1.00  0.00     0.025 C 
HETATM   20  C11 UNL     1      26.514  66.016  10.146  1.00  0.00     0.002 C 
HETATM   21  C12 UNL     1      26.171  65.000   9.056  1.00  0.00     0.002 C 
HETATM   22  C13 UNL     1      24.976  65.670   8.408  1.00  0.00     0.025 C 
ENDBRANCH  16  18
ENDBRANCH  13  14
TORSDOF 2
ENDMDL
MODEL 4
REMARK VINA RESULT: -7.150985113      2.696      3.525
REMARK  2 active torsions:
REMARK  status: ('A' for Active; 'I' for Inactive)
REMARK       I    between atoms: N1_3  and  C3_5 
REMARK       I    between atoms: C3_5  and  N3_9 
REMARK    1  A    between atoms: C7_13  and  C8_14 
REMARK       I    between atoms: C8_14  and  N4_16 
REMARK    2  A    between atoms: N4_16  and  C9_18 
ROOT
HETATM    1  C1  UNL     1      18.847  66.586   5.673  1.00  0.00     0.037 C 
HETATM    2  C2  UNL     1      18.392  66.644   6.798  1.00  0.00     0.015 C 
HETATM    3  N1  UNL     1      17.881  66.721   8.099  1.00  0.00    -0.150 N 
ATOM      4  H1  UNL     1      17.096  66.122   8.353  1.00  0.00     0.195 HD
HETATM    5  C3  UNL     1      18.410  67.600   9.081  1.00  0.00     0.682 C 
HETATM    6  N2  UNL     1      17.717  67.795  10.162  1.00  0.00    -0.234 N 
ATOM      7  H21 UNL     1      18.097  68.426  10.867  1.00  0.00     0.174 HD
ATOM      8  H22 UNL     1      16.829  67.300  10.247  1.00  0.00     0.174 HD
HETATM    9  N3  UNL     1      19.629  68.279   8.965  1.00  0.00    -0.204 N 
HETATM   10  C4  UNL     1      19.843  69.553   8.326  1.00  0.00     0.142 C 
HETATM   11  C5  UNL     1      21.180  69.352   7.648  1.00  0.00     0.023 C 
HETATM   12  C6  UNL     1      21.769  68.081   8.221  1.00  0.00     0.037 C 
HETATM   13  C7  UNL     1      20.909  67.870   9.447  1.00  0.00     0.194 C 
ENDROOT
BRANCH  13  14
HETATM   14  C8  UNL     1      21.001  66.536  10.014  1.00  0.00     0.241 C 
HETATM   15  O1  UNL     1      20.595  66.346  11.186  1.00  0.00    -0.271 OA
HETATM   16  N4  UNL     1      21.522  65.401   9.344  1.00  0.00    -0.355 N 
ATOM     17  H4  UNL     1      21.859  65.528   8.390  1.00  0.00     0.162 HD
BRANCH  16  18
HETATM   18  C9  UNL     1      21.609  64.095   9.907  1.00  0.00     0.084 C 
HETATM   19  C10 UNL     1      22.771  63.284   9.379  1.00  0.00     0.025 C 
HETATM   20  C11 UNL     1      22.325  61.837   9.386  1.00  0.00     0.002 C 
HETATM   21  C12 UNL     1      20.932  61.845  10.016  1.00  0.00     0.002 C 
HETATM   22  C13 UNL     1      20.435  63.212   9.587  1.00  0.00     0.025 C 
ENDBRANCH  16  18
ENDBRANCH  13  14
TORSDOF 2
ENDMDL
MODEL 5
REMARK VINA RESULT: -7.129016363      4.614      5.574
REMARK  2 active torsions:
REMARK  status: ('A' for Active; 'I' for Inactive)
REMARK       I    between atoms: N1_3  and  C3_5 
REMARK       I    between atoms: C3_5  and  N3_9 
REMARK    1  A    between atoms: C7_13  and  C8_14 
REMARK       I    between atoms: C8_14  and  N4_16 
REMARK    2  A    between atoms: N4_16  and  C9_18 
ROOT
HETATM    1  C1  UNL     1      17.940  61.389   9.214  1.00  0.00     0.037 C 
HETATM    2  C2  UNL     1      18.739  61.246  10.118  1.00  0.00     0.015 C 
HETATM    3  N1  UNL     1      19.661  61.101  11.161  1.00  0.00    -0.150 N 
ATOM      4  H1  UNL     1      19.991  60.164  11.394  1.00  0.00     0.195 HD
HETATM    5  C3  UNL     1      20.156  62.201  11.909  1.00  0.00     0.682 C 
HETATM    6  N2  UNL     1      20.793  61.952  13.012  1.00  0.00    -0.234 N 
ATOM      7  H21 UNL     1      21.149  62.743  13.550  1.00  0.00     0.174 HD
ATOM      8  H22 UNL     1      20.907  60.974  13.279  1.00  0.00     0.174 HD
HETATM    9  N3  UNL     1      20.001  63.544  11.543  1.00  0.00    -0.204 N 
HETATM   10  C4  UNL     1      18.876  64.391  11.849  1.00  0.00     0.142 C 
HETATM   11  C5  UNL     1      18.727  65.199  10.579  1.00  0.00     0.023 C 
HETATM   12  C6  UNL     1      19.983  64.965   9.767  1.00  0.00     0.037 C 
HETATM   13  C7  UNL     1      20.907  64.360  10.800  1.00  0.00     0.194 C 
ENDROOT
BRANCH  13  14
HETATM   14  C8  UNL     1      22.074  63.701  10.239  1.00  0.00     0.241 C 
HETATM   15  O1  UNL     1      22.911  63.183  11.018  1.00  0.00    -0.271 OA
HETATM   16  N4  UNL     1      22.358  63.589   8.856  1.00  0.00    -0.355 N 
ATOM     17  H4  UNL     1      21.694  64.001   8.201  1.00  0.00     0.162 HD
BRANCH  16  18
HETATM   18  C9  UNL     1      23.505  62.941   8.313  1.00  0.00     0.084 C 
HETATM   19  C10 UNL     1      24.658  63.879   8.040  1.00  0.00     0.025 C 
HETATM   20  C11 UNL     1      25.393  63.323   6.838  1.00  0.00     0.002 C 
HETATM   21  C12 UNL     1      24.687  62.008   6.506  1.00  0.00     0.002 C 
HETATM   22  C13 UNL     1      23.276  62.320   6.962  1.00  0.00     0.025 C 
ENDBRANCH  16  18
ENDBRANCH  13  14
TORSDOF 2
ENDMDL
