MODEL 1
REMARK VINA RESULT: -7.657243604      0.000      0.000
REMARK  2 active torsions:
REMARK  status: ('A' for Active; 'I' for Inactive)
REMARK       I    between atoms: C3_3  and  N1_5 
REMARK    1  A    between atoms: N1_5  and  C4_7 
REMARK    2  A    between atoms: C12_18  and  C13_19 
ROOT
HETATM    1  C1  UNL     1      20.645  69.504   8.425  1.00  0.00     0.022 C 
HETATM    2  C2  UNL     1      21.132  68.545   8.963  1.00  0.00    -0.017 C 
HETATM    3  C3  UNL     1      21.730  67.384   9.603  1.00  0.00     0.296 C 
HETATM    4  O1  UNL     1      21.349  67.162  10.778  1.00  0.00    -0.258 OA
HETATM    5  N1  UNL     1      22.673  66.575   8.935  1.00  0.00    -0.339 N 
ATOM      6  H1  UNL     1      22.940  66.809   7.979  1.00  0.00     0.164 HD
ENDROOT
BRANCH   5   7
HETATM    7  C4  UNL     1      23.257  65.445   9.560  1.00  0.00     0.159 C 
HETATM    8  C5  UNL     1      24.637  65.125   9.139  1.00  0.00    -0.011 C 
HETATM    9  C6  UNL     1      25.799  65.581   9.524  1.00  0.00    -0.003 C 
HETATM   10  C10 UNL     1      24.464  64.084   8.093  1.00  0.00     0.215 C 
HETATM   11  C7  UNL     1      27.084  65.106   8.952  1.00  0.00     0.059 C 
HETATM   12  C8  UNL     1      25.818  66.589  10.551  1.00  0.00    -0.082 C 
HETATM   13  C9  UNL     1      25.857  67.442  11.421  1.00  0.00     0.017 C 
HETATM   14  C11 UNL     1      23.981  64.617   6.783  1.00  0.00     0.045 C 
HETATM   15  N2  UNL     1      23.490  63.222   8.753  1.00  0.00    -0.051 N 
HETATM   16  C12 UNL     1      22.525  64.151   9.306  1.00  0.00     0.313 C 
ATOM     17  H22 UNL     1      23.086  62.505   8.150  1.00  0.00     0.279 HD
ATOM     18  H21 UNL     1      23.891  62.578   9.434  1.00  0.00     0.279 HD
BRANCH  16  19
HETATM   19  C13 UNL     1      21.979  63.566  10.552  1.00  0.00     0.207 C 
HETATM   20  O2  UNL     1      20.803  63.819  10.915  1.00  0.00    -0.646 OA
HETATM   21  O3  UNL     1      22.716  62.722  11.376  1.00  0.00    -0.646 OA
ENDBRANCH  16  19
ENDBRANCH   5   7
TORSDOF 2
ENDMDL
MODEL 2
REMARK VINA RESULT: -7.297413629      3.233      4.306
REMARK  2 active torsions:
REMARK  status: ('A' for Active; 'I' for Inactive)
REMARK       I    between atoms: C3_3  and  N1_5 
REMARK    1  A    between atoms: N1_5  and  C4_7 
REMARK    2  A    between atoms: C12_18  and  C13_19 
ROOT
HETATM    1  C1  UNL     1      17.346  67.873   7.161  1.00  0.00     0.022 C 
HETATM    2  C2  UNL     1      17.935  67.425   8.110  1.00  0.00    -0.017 C 
HETATM    3  C3  UNL     1      18.646  66.872   9.252  1.00  0.00     0.296 C 
HETATM    4  O1  UNL     1      19.132  67.715  10.043  1.00  0.00    -0.258 OA
HETATM    5  N1  UNL     1      18.773  65.480   9.440  1.00  0.00    -0.339 N 
ATOM      6  H1  UNL     1      18.354  64.845   8.759  1.00  0.00     0.164 HD
ENDROOT
BRANCH   5   7
HETATM    7  C4  UNL     1      19.467  64.940  10.551  1.00  0.00     0.159 C 
HETATM    8  C5  UNL     1      20.573  64.015  10.225  1.00  0.00    -0.011 C 
HETATM    9  C6  UNL     1      21.823  64.221   9.907  1.00  0.00    -0.003 C 
HETATM   10  C10 UNL     1      19.959  62.666  10.333  1.00  0.00     0.215 C 
HETATM   11  C7  UNL     1      22.775  63.119   9.614  1.00  0.00     0.059 C 
HETATM   12  C8  UNL     1      22.285  65.582   9.842  1.00  0.00    -0.082 C 
HETATM   13  C9  UNL     1      22.696  66.728   9.782  1.00  0.00     0.017 C 
HETATM   14  C11 UNL     1      19.067  62.313   9.187  1.00  0.00     0.045 C 
HETATM   15  N2  UNL     1      19.238  62.817  11.592  1.00  0.00    -0.051 N 
HETATM   16  C12 UNL     1      18.608  64.116  11.476  1.00  0.00     0.313 C 
ATOM     17  H22 UNL     1      18.595  62.054  11.802  1.00  0.00     0.279 HD
ATOM     18  H21 UNL     1      19.816  62.703  12.424  1.00  0.00     0.279 HD
BRANCH  16  19
HETATM   19  C13 UNL     1      18.518  64.710  12.829  1.00  0.00     0.207 C 
HETATM   20  O2  UNL     1      19.166  65.748  13.116  1.00  0.00    -0.646 OA
HETATM   21  O3  UNL     1      17.730  64.170  13.840  1.00  0.00    -0.646 OA
ENDBRANCH  16  19
ENDBRANCH   5   7
TORSDOF 2
ENDMDL
MODEL 3
REMARK VINA RESULT: -7.168807576      1.755      2.746
REMARK  2 active torsions:
REMARK  status: ('A' for Active; 'I' for Inactive)
REMARK       I    between atoms: C3_3  and  N1_5 
REMARK    1  A    between atoms: N1_5  and  C4_7 
REMARK    2  A    between atoms: C12_18  and  C13_19 
ROOT
HETATM    1  C1  UNL     1      20.187  69.578   8.368  1.00  0.00     0.022 C 
HETATM    2  C2  UNL     1      20.491  68.586   8.977  1.00  0.00    -0.017 C 
HETATM    3  C3  UNL     1      20.860  67.381   9.703  1.00  0.00     0.296 C 
HETATM    4  O1  UNL     1      21.060  67.534  10.932  1.00  0.00    -0.258 OA
HETATM    5  N1  UNL     1      20.981  66.135   9.053  1.00  0.00    -0.339 N 
ATOM      6  H1  UNL     1      20.804  66.077   8.050  1.00  0.00     0.164 HD
ENDROOT
BRANCH   5   7
HETATM    7  C4  UNL     1      21.342  64.961   9.760  1.00  0.00     0.159 C 
HETATM    8  C5  UNL     1      22.030  63.923   8.963  1.00  0.00    -0.011 C 
HETATM    9  C6  UNL     1      23.281  63.762   8.627  1.00  0.00    -0.003 C 
HETATM   10  C10 UNL     1      20.942  62.991   8.569  1.00  0.00     0.215 C 
HETATM   11  C7  UNL     1      23.757  62.621   7.803  1.00  0.00     0.059 C 
HETATM   12  C8  UNL     1      24.231  64.742   9.082  1.00  0.00    -0.082 C 
HETATM   13  C9  UNL     1      25.052  65.561   9.459  1.00  0.00     0.017 C 
HETATM   14  C11 UNL     1      20.060  63.516   7.482  1.00  0.00     0.045 C 
HETATM   15  N2  UNL     1      20.252  62.852   9.846  1.00  0.00    -0.051 N 
HETATM   16  C12 UNL     1      20.175  64.209  10.347  1.00  0.00     0.313 C 
ATOM     17  H22 UNL     1      19.354  62.372   9.789  1.00  0.00     0.279 HD
ATOM     18  H21 UNL     1      20.687  62.191  10.489  1.00  0.00     0.279 HD
BRANCH  16  19
HETATM   19  C13 UNL     1      20.230  64.161  11.826  1.00  0.00     0.207 C 
HETATM   20  O2  UNL     1      20.783  63.198  12.414  1.00  0.00    -0.646 OA
HETATM   21  O3  UNL     1      19.687  65.154  12.635  1.00  0.00    -0.646 OA
ENDBRANCH  16  19
ENDBRANCH   5   7
TORSDOF 2
ENDMDL
MODEL 4
REMARK VINA RESULT: -7.163705590      3.750      5.530
REMARK  2 active torsions:
REMARK  status: ('A' for Active; 'I' for Inactive)
REMARK       I    between atoms: C3_3  and  N1_5 
REMARK    1  A    between atoms: N1_5  and  C4_7 
REMARK    2  A    between atoms: C12_18  and  C13_19 
ROOT
HETATM    1  C1  UNL     1      18.828  63.377   4.460  1.00  0.00     0.022 C 
HETATM    2  C2  UNL     1      18.898  64.312   5.215  1.00  0.00    -0.017 C 
HETATM    3  C3  UNL     1      18.989  65.434   6.135  1.00  0.00     0.296 C 
HETATM    4  O1  UNL     1      18.809  66.565   5.624  1.00  0.00    -0.258 OA
HETATM    5  N1  UNL     1      19.260  65.245   7.506  1.00  0.00    -0.339 N 
ATOM      6  H1  UNL     1      19.396  64.298   7.861  1.00  0.00     0.164 HD
ENDROOT
BRANCH   5   7
HETATM    7  C4  UNL     1      19.350  66.338   8.404  1.00  0.00     0.159 C 
HETATM    8  C5  UNL     1      20.679  66.556   9.013  1.00  0.00    -0.011 C 
HETATM    9  C6  UNL     1      21.744  67.183   8.593  1.00  0.00    -0.003 C 
HETATM   10  C10 UNL     1      20.589  65.870  10.329  1.00  0.00     0.215 C 
HETATM   11  C7  UNL     1      22.994  67.278   9.389  1.00  0.00     0.059 C 
HETATM   12  C8  UNL     1      21.689  67.807   7.297  1.00  0.00    -0.082 C 
HETATM   13  C9  UNL     1      21.662  68.343   6.202  1.00  0.00     0.017 C 
HETATM   14  C11 UNL     1      20.660  64.380  10.240  1.00  0.00     0.045 C 
HETATM   15  N2  UNL     1      19.289  66.354  10.779  1.00  0.00    -0.051 N 
HETATM   16  C12 UNL     1      18.447  66.225   9.606  1.00  0.00     0.313 C 
ATOM     17  H22 UNL     1      18.930  65.883  11.609  1.00  0.00     0.279 HD
ATOM     18  H21 UNL     1      19.306  67.290  11.184  1.00  0.00     0.279 HD
BRANCH  16  19
HETATM   19  C13 UNL     1      17.433  67.303   9.644  1.00  0.00     0.207 C 
HETATM   20  O2  UNL     1      17.341  68.059  10.644  1.00  0.00    -0.646 OA
HETATM   21  O3  UNL     1      16.542  67.539   8.602  1.00  0.00    -0.646 OA
ENDBRANCH  16  19
ENDBRANCH   5   7
TORSDOF 2
ENDMDL
MODEL 5
REMARK VINA RESULT: -7.096082357      2.049      3.095
REMARK  2 active torsions:
REMARK  status: ('A' for Active; 'I' for Inactive)
REMARK       I    between atoms: C3_3  and  N1_5 
REMARK    1  A    between atoms: N1_5  and  C4_7 
REMARK    2  A    between atoms: C12_18  and  C13_19 
ROOT
HETATM    1  C1  UNL     1      21.122  69.847   6.279  1.00  0.00     0.022 C 
HETATM    2  C2  UNL     1      21.245  69.043   7.165  1.00  0.00    -0.017 C 
HETATM    3  C3  UNL     1      21.393  68.061   8.228  1.00  0.00     0.296 C 
HETATM    4  O1  UNL     1      21.737  68.524   9.343  1.00  0.00    -0.258 OA
HETATM    5  N1  UNL     1      21.163  66.688   8.004  1.00  0.00    -0.339 N 
ATOM      6  H1  UNL     1      20.884  66.376   7.073  1.00  0.00     0.164 HD
ENDROOT
BRANCH   5   7
HETATM    7  C4  UNL     1      21.309  65.731   9.039  1.00  0.00     0.159 C 
HETATM    8  C5  UNL     1      21.870  64.427   8.628  1.00  0.00    -0.011 C 
HETATM    9  C6  UNL     1      23.098  64.014   8.463  1.00  0.00    -0.003 C 
HETATM   10  C10 UNL     1      20.675  63.571   8.413  1.00  0.00     0.215 C 
HETATM   11  C7  UNL     1      23.436  62.632   8.037  1.00  0.00     0.059 C 
HETATM   12  C8  UNL     1      24.161  64.951   8.710  1.00  0.00    -0.082 C 
HETATM   13  C9  UNL     1      25.077  65.730   8.916  1.00  0.00     0.017 C 
HETATM   14  C11 UNL     1      19.935  63.870   7.149  1.00  0.00     0.045 C 
HETATM   15  N2  UNL     1      19.911  63.898   9.612  1.00  0.00    -0.051 N 
HETATM   16  C12 UNL     1      20.014  65.340   9.705  1.00  0.00     0.313 C 
ATOM     17  H22 UNL     1      18.954  63.543   9.611  1.00  0.00     0.279 HD
ATOM     18  H21 UNL     1      20.209  63.400  10.450  1.00  0.00     0.279 HD
BRANCH  16  19
HETATM   19  C13 UNL     1      19.990  65.714  11.138  1.00  0.00     0.207 C 
HETATM   20  O2  UNL     1      20.057  64.832  12.030  1.00  0.00    -0.646 OA
HETATM   21  O3  UNL     1      19.893  67.032  11.573  1.00  0.00    -0.646 OA
ENDBRANCH  16  19
ENDBRANCH   5   7
TORSDOF 2
ENDMDL
