MODEL 1
REMARK VINA RESULT: -7.647197199      0.000      0.000
REMARK  15 active torsions:
REMARK  status: ('A' for Active; 'I' for Inactive)
REMARK    1  A    between atoms: C2_2  and  C3_3 
REMARK    2  A    between atoms: C3_3  and  C4_4 
REMARK    3  A    between atoms: C4_4  and  C5_5 
REMARK    4  A    between atoms: C5_5  and  C6_6 
REMARK    5  A    between atoms: C6_6  and  C7_7 
REMARK    6  A    between atoms: C7_7  and  C8_8 
REMARK    7  A    between atoms: C8_8  and  C9_9 
REMARK    8  A    between atoms: C9_9  and  C10_10 
REMARK    9  A    between atoms: C9_9  and  C15_17 
REMARK   10  A    between atoms: C10_10  and  C11_11 
REMARK   11  A    between atoms: C11_11  and  C12_12 
REMARK   12  A    between atoms: C13_13  and  C14_14 
REMARK   13  A    between atoms: C14_14  and  O1_15 
REMARK   14  A    between atoms: C15_17  and  O2_18 
REMARK   15  A    between atoms: C15_17  and  C16_20 
ROOT
HETATM    1  C9  UNL     1      29.862   6.636  14.305  1.00  0.00     0.019 C 
ENDROOT
BRANCH   1   2
HETATM    2  C8  UNL     1      30.101   5.256  13.936  1.00  0.00     0.007 C 
BRANCH   2   3
HETATM    3  C7  UNL     1      31.382   4.686  13.530  1.00  0.00     0.000 C 
BRANCH   3   4
HETATM    4  C6  UNL     1      31.400   3.846  12.296  1.00  0.00     0.000 C 
BRANCH   4   5
HETATM    5  C5  UNL     1      32.851   3.444  11.955  1.00  0.00     0.000 C 
BRANCH   5   6
HETATM    6  C4  UNL     1      33.809   4.399  12.555  1.00  0.00     0.004 C 
BRANCH   6   7
HETATM    7  C3  UNL     1      35.037   4.637  11.715  1.00  0.00     0.026 C 
BRANCH   7   8
HETATM    8  C2  UNL     1      35.671   3.301  11.478  1.00  0.00    -0.037 C 
HETATM    9  C1  UNL     1      36.991   3.229  11.467  1.00  0.00     0.007 C 
ENDBRANCH   7   8
ENDBRANCH   6   7
ENDBRANCH   5   6
ENDBRANCH   4   5
ENDBRANCH   3   4
ENDBRANCH   2   3
ENDBRANCH   1   2
BRANCH   1  10
HETATM   10  C10 UNL     1      31.233   7.337  14.338  1.00  0.00     0.011 C 
BRANCH  10  11
HETATM   11  C11 UNL     1      31.825   7.360  15.704  1.00  0.00     0.027 C 
BRANCH  11  12
HETATM   12  C12 UNL     1      32.228   8.715  16.122  1.00  0.00    -0.029 C 
HETATM   13  C13 UNL     1      31.781   9.310  17.187  1.00  0.00    -0.005 C 
BRANCH  13  14
HETATM   14  C14 UNL     1      30.819   8.803  18.178  1.00  0.00     0.191 C 
BRANCH  14  15
HETATM   15  O1  UNL     1      31.465   8.414  19.372  1.00  0.00    -0.397 OA
ATOM     16  H1  UNL     1      31.159   7.566  19.672  1.00  0.00     0.209 HD
ENDBRANCH  14  15
ENDBRANCH  13  14
ENDBRANCH  11  12
ENDBRANCH  10  11
ENDBRANCH   1  10
BRANCH   1  17
HETATM   17  C15 UNL     1      28.922   7.501  13.561  1.00  0.00     0.158 C 
BRANCH  17  18
HETATM   18  O2  UNL     1      29.563   8.439  12.753  1.00  0.00    -0.390 OA
ATOM     19  H2  UNL     1      29.802   9.231  13.219  1.00  0.00     0.210 HD
ENDBRANCH  17  18
BRANCH  17  20
HETATM   20  C16 UNL     1      28.021   8.246  14.527  1.00  0.00     0.005 A 
HETATM   21  C17 UNL     1      28.220   8.518  15.859  1.00  0.00     0.118 A 
HETATM   22  N1  UNL     1      27.146   9.207  16.297  1.00  0.00    -0.310 N 
HETATM   23  N2  UNL     1      26.271   9.395  15.327  1.00  0.00    -0.307 N 
ATOM     24  H1  UNL     1      27.025   9.540  17.253  1.00  0.00     0.186 HD
HETATM   25  C18 UNL     1      24.984  10.094  15.403  1.00  0.00     0.177 C 
HETATM   26  C19 UNL     1      26.796   8.810  14.236  1.00  0.00     0.120 A 
ENDBRANCH  17  20
ENDBRANCH   1  17
TORSDOF 15
ENDMDL
MODEL 2
REMARK VINA RESULT: -7.583115129      2.762      7.108
REMARK  15 active torsions:
REMARK  status: ('A' for Active; 'I' for Inactive)
REMARK    1  A    between atoms: C2_2  and  C3_3 
REMARK    2  A    between atoms: C3_3  and  C4_4 
REMARK    3  A    between atoms: C4_4  and  C5_5 
REMARK    4  A    between atoms: C5_5  and  C6_6 
REMARK    5  A    between atoms: C6_6  and  C7_7 
REMARK    6  A    between atoms: C7_7  and  C8_8 
REMARK    7  A    between atoms: C8_8  and  C9_9 
REMARK    8  A    between atoms: C9_9  and  C10_10 
REMARK    9  A    between atoms: C9_9  and  C15_17 
REMARK   10  A    between atoms: C10_10  and  C11_11 
REMARK   11  A    between atoms: C11_11  and  C12_12 
REMARK   12  A    between atoms: C13_13  and  C14_14 
REMARK   13  A    between atoms: C14_14  and  O1_15 
REMARK   14  A    between atoms: C15_17  and  O2_18 
REMARK   15  A    between atoms: C15_17  and  C16_20 
ROOT
HETATM    1  C9  UNL     1      29.538   7.340  13.828  1.00  0.00     0.019 C 
ENDROOT
BRANCH   1   2
HETATM    2  C8  UNL     1      28.953   8.193  12.815  1.00  0.00     0.007 C 
BRANCH   2   3
HETATM    3  C7  UNL     1      27.657   8.861  12.900  1.00  0.00     0.000 C 
BRANCH   3   4
HETATM    4  C6  UNL     1      26.999   9.249  11.616  1.00  0.00     0.000 C 
BRANCH   4   5
HETATM    5  C5  UNL     1      25.512   9.579  11.868  1.00  0.00     0.000 C 
BRANCH   5   6
HETATM    6  C4  UNL     1      25.033   8.911  13.098  1.00  0.00     0.004 C 
BRANCH   6   7
HETATM    7  C3  UNL     1      24.540   9.866  14.154  1.00  0.00     0.026 C 
BRANCH   7   8
HETATM    8  C2  UNL     1      24.317   9.066  15.400  1.00  0.00    -0.037 C 
HETATM    9  C1  UNL     1      25.374   8.668  16.085  1.00  0.00     0.007 C 
ENDBRANCH   7   8
ENDBRANCH   6   7
ENDBRANCH   5   6
ENDBRANCH   4   5
ENDBRANCH   3   4
ENDBRANCH   2   3
ENDBRANCH   1   2
BRANCH   1  10
HETATM   10  C10 UNL     1      28.890   7.724  15.170  1.00  0.00     0.011 C 
BRANCH  10  11
HETATM   11  C11 UNL     1      29.608   8.837  15.850  1.00  0.00     0.027 C 
BRANCH  11  12
HETATM   12  C12 UNL     1      31.047   8.563  16.013  1.00  0.00    -0.029 C 
HETATM   13  C13 UNL     1      31.700   8.751  17.121  1.00  0.00    -0.005 C 
BRANCH  13  14
HETATM   14  C14 UNL     1      31.190   9.251  18.407  1.00  0.00     0.191 C 
BRANCH  14  15
HETATM   15  O1  UNL     1      31.429   8.332  19.451  1.00  0.00    -0.397 OA
ATOM     16  H1  UNL     1      31.816   8.757  20.207  1.00  0.00     0.209 HD
ENDBRANCH  14  15
ENDBRANCH  13  14
ENDBRANCH  11  12
ENDBRANCH  10  11
ENDBRANCH   1  10
BRANCH   1  17
HETATM   17  C15 UNL     1      29.531   5.865  13.720  1.00  0.00     0.158 C 
BRANCH  17  18
HETATM   18  O2  UNL     1      28.711   5.251  14.665  1.00  0.00    -0.390 OA
ATOM     19  H2  UNL     1      29.095   4.465  15.036  1.00  0.00     0.210 HD
ENDBRANCH  17  18
BRANCH  17  20
HETATM   20  C16 UNL     1      30.937   5.321  13.888  1.00  0.00     0.005 A 
HETATM   21  C17 UNL     1      31.633   5.070  15.046  1.00  0.00     0.118 A 
HETATM   22  N1  UNL     1      32.844   4.590  14.693  1.00  0.00    -0.310 N 
HETATM   23  N2  UNL     1      32.967   4.519  13.382  1.00  0.00    -0.307 N 
ATOM     24  H1  UNL     1      33.571   4.319  15.355  1.00  0.00     0.186 HD
HETATM   25  C18 UNL     1      34.126   4.052  12.614  1.00  0.00     0.177 C 
HETATM   26  C19 UNL     1      31.804   4.964  12.876  1.00  0.00     0.120 A 
ENDBRANCH  17  20
ENDBRANCH   1  17
TORSDOF 15
ENDMDL
MODEL 3
REMARK VINA RESULT: -7.347587295      0.919      1.463
REMARK  15 active torsions:
REMARK  status: ('A' for Active; 'I' for Inactive)
REMARK    1  A    between atoms: C2_2  and  C3_3 
REMARK    2  A    between atoms: C3_3  and  C4_4 
REMARK    3  A    between atoms: C4_4  and  C5_5 
REMARK    4  A    between atoms: C5_5  and  C6_6 
REMARK    5  A    between atoms: C6_6  and  C7_7 
REMARK    6  A    between atoms: C7_7  and  C8_8 
REMARK    7  A    between atoms: C8_8  and  C9_9 
REMARK    8  A    between atoms: C9_9  and  C10_10 
REMARK    9  A    between atoms: C9_9  and  C15_17 
REMARK   10  A    between atoms: C10_10  and  C11_11 
REMARK   11  A    between atoms: C11_11  and  C12_12 
REMARK   12  A    between atoms: C13_13  and  C14_14 
REMARK   13  A    between atoms: C14_14  and  O1_15 
REMARK   14  A    between atoms: C15_17  and  O2_18 
REMARK   15  A    between atoms: C15_17  and  C16_20 
ROOT
HETATM    1  C9  UNL     1      29.130   7.412  14.285  1.00  0.00     0.019 C 
ENDROOT
BRANCH   1   2
HETATM    2  C8  UNL     1      29.630   6.057  14.379  1.00  0.00     0.007 C 
BRANCH   2   3
HETATM    3  C7  UNL     1      30.071   5.226  13.261  1.00  0.00     0.000 C 
BRANCH   3   4
HETATM    4  C6  UNL     1      31.485   4.744  13.281  1.00  0.00     0.000 C 
BRANCH   4   5
HETATM    5  C5  UNL     1      31.726   3.778  12.101  1.00  0.00     0.000 C 
BRANCH   5   6
HETATM    6  C4  UNL     1      33.171   3.493  11.951  1.00  0.00     0.004 C 
BRANCH   6   7
HETATM    7  C3  UNL     1      34.058   4.658  12.307  1.00  0.00     0.026 C 
BRANCH   7   8
HETATM    8  C2  UNL     1      35.293   4.541  11.468  1.00  0.00    -0.037 C 
HETATM    9  C1  UNL     1      36.104   3.522  11.687  1.00  0.00     0.007 C 
ENDBRANCH   7   8
ENDBRANCH   6   7
ENDBRANCH   5   6
ENDBRANCH   4   5
ENDBRANCH   3   4
ENDBRANCH   2   3
ENDBRANCH   1   2
BRANCH   1  10
HETATM   10  C10 UNL     1      30.283   8.348  14.691  1.00  0.00     0.011 C 
BRANCH  10  11
HETATM   11  C11 UNL     1      31.317   7.653  15.507  1.00  0.00     0.027 C 
BRANCH  11  12
HETATM   12  C12 UNL     1      32.264   8.590  16.136  1.00  0.00    -0.029 C 
HETATM   13  C13 UNL     1      32.086   9.127  17.306  1.00  0.00    -0.005 C 
BRANCH  13  14
HETATM   14  C14 UNL     1      30.959   8.938  18.234  1.00  0.00     0.191 C 
BRANCH  14  15
HETATM   15  O1  UNL     1      31.389   8.396  19.465  1.00  0.00    -0.397 OA
ATOM     16  H1  UNL     1      31.382   9.051  20.153  1.00  0.00     0.209 HD
ENDBRANCH  14  15
ENDBRANCH  13  14
ENDBRANCH  11  12
ENDBRANCH  10  11
ENDBRANCH   1  10
BRANCH   1  17
HETATM   17  C15 UNL     1      28.520   7.946  13.048  1.00  0.00     0.158 C 
BRANCH  17  18
HETATM   18  O2  UNL     1      29.326   8.879  12.398  1.00  0.00    -0.390 OA
ATOM     19  H2  UNL     1      29.902   9.349  12.989  1.00  0.00     0.210 HD
ENDBRANCH  17  18
BRANCH  17  20
HETATM   20  C16 UNL     1      27.191   8.606  13.362  1.00  0.00     0.005 A 
HETATM   21  C17 UNL     1      26.243   9.094  12.495  1.00  0.00     0.118 A 
HETATM   22  N1  UNL     1      25.231   9.587  13.239  1.00  0.00    -0.310 N 
HETATM   23  N2  UNL     1      25.471   9.444  14.529  1.00  0.00    -0.307 N 
ATOM     24  H1  UNL     1      24.389  10.015  12.855  1.00  0.00     0.186 HD
HETATM   25  C18 UNL     1      24.618   9.850  15.650  1.00  0.00     0.177 C 
HETATM   26  C19 UNL     1      26.671   8.843  14.617  1.00  0.00     0.120 A 
ENDBRANCH  17  20
ENDBRANCH   1  17
TORSDOF 15
ENDMDL
MODEL 4
REMARK VINA RESULT: -7.343891597      3.431      7.290
REMARK  15 active torsions:
REMARK  status: ('A' for Active; 'I' for Inactive)
REMARK    1  A    between atoms: C2_2  and  C3_3 
REMARK    2  A    between atoms: C3_3  and  C4_4 
REMARK    3  A    between atoms: C4_4  and  C5_5 
REMARK    4  A    between atoms: C5_5  and  C6_6 
REMARK    5  A    between atoms: C6_6  and  C7_7 
REMARK    6  A    between atoms: C7_7  and  C8_8 
REMARK    7  A    between atoms: C8_8  and  C9_9 
REMARK    8  A    between atoms: C9_9  and  C10_10 
REMARK    9  A    between atoms: C9_9  and  C15_17 
REMARK   10  A    between atoms: C10_10  and  C11_11 
REMARK   11  A    between atoms: C11_11  and  C12_12 
REMARK   12  A    between atoms: C13_13  and  C14_14 
REMARK   13  A    between atoms: C14_14  and  O1_15 
REMARK   14  A    between atoms: C15_17  and  O2_18 
REMARK   15  A    between atoms: C15_17  and  C16_20 
ROOT
HETATM    1  C9  UNL     1      28.804   7.894  14.430  1.00  0.00     0.019 C 
ENDROOT
BRANCH   1   2
HETATM    2  C8  UNL     1      28.317   8.851  13.458  1.00  0.00     0.007 C 
BRANCH   2   3
HETATM    3  C7  UNL     1      28.582   8.824  12.022  1.00  0.00     0.000 C 
BRANCH   3   4
HETATM    4  C6  UNL     1      27.656   9.595  11.139  1.00  0.00     0.000 C 
BRANCH   4   5
HETATM    5  C5  UNL     1      26.260   8.934  11.137  1.00  0.00     0.000 C 
BRANCH   5   6
HETATM    6  C4  UNL     1      25.314   9.716  11.964  1.00  0.00     0.004 C 
BRANCH   6   7
HETATM    7  C3  UNL     1      24.782   8.961  13.155  1.00  0.00     0.026 C 
BRANCH   7   8
HETATM    8  C2  UNL     1      24.728   9.926  14.298  1.00  0.00    -0.037 C 
HETATM    9  C1  UNL     1      23.920   9.655  15.308  1.00  0.00     0.007 C 
ENDBRANCH   7   8
ENDBRANCH   6   7
ENDBRANCH   5   6
ENDBRANCH   4   5
ENDBRANCH   3   4
ENDBRANCH   2   3
ENDBRANCH   1   2
BRANCH   1  10
HETATM   10  C10 UNL     1      27.721   7.767  15.518  1.00  0.00     0.011 C 
BRANCH  10  11
HETATM   11  C11 UNL     1      27.537   9.028  16.286  1.00  0.00     0.027 C 
BRANCH  11  12
HETATM   12  C12 UNL     1      26.838   8.813  17.566  1.00  0.00    -0.029 C 
HETATM   13  C13 UNL     1      26.292   9.763  18.263  1.00  0.00    -0.005 C 
BRANCH  13  14
HETATM   14  C14 UNL     1      26.239  11.202  17.961  1.00  0.00     0.191 C 
BRANCH  14  15
HETATM   15  O1  UNL     1      27.372  11.878  18.464  1.00  0.00    -0.397 OA
ATOM     16  H1  UNL     1      27.289  12.050  19.395  1.00  0.00     0.209 HD
ENDBRANCH  14  15
ENDBRANCH  13  14
ENDBRANCH  11  12
ENDBRANCH  10  11
ENDBRANCH   1  10
BRANCH   1  17
HETATM   17  C15 UNL     1      29.237   6.533  14.051  1.00  0.00     0.158 C 
BRANCH  17  18
HETATM   18  O2  UNL     1      28.362   5.539  14.486  1.00  0.00    -0.390 OA
ATOM     19  H2  UNL     1      27.870   5.140  13.778  1.00  0.00     0.210 HD
ENDBRANCH  17  18
BRANCH  17  20
HETATM   20  C16 UNL     1      30.609   6.241  14.626  1.00  0.00     0.005 A 
HETATM   21  C17 UNL     1      31.542   7.120  15.122  1.00  0.00     0.118 A 
HETATM   22  N1  UNL     1      32.608   6.394  15.523  1.00  0.00    -0.310 N 
HETATM   23  N2  UNL     1      32.414   5.106  15.316  1.00  0.00    -0.307 N 
ATOM     24  H1  UNL     1      33.453   6.791  15.933  1.00  0.00     0.186 HD
HETATM   25  C18 UNL     1      33.332   4.002  15.616  1.00  0.00     0.177 C 
HETATM   26  C19 UNL     1      31.192   4.999  14.766  1.00  0.00     0.120 A 
ENDBRANCH  17  20
ENDBRANCH   1  17
TORSDOF 15
ENDMDL
MODEL 5
REMARK VINA RESULT: -7.221779987      3.073      6.843
REMARK  15 active torsions:
REMARK  status: ('A' for Active; 'I' for Inactive)
REMARK    1  A    between atoms: C2_2  and  C3_3 
REMARK    2  A    between atoms: C3_3  and  C4_4 
REMARK    3  A    between atoms: C4_4  and  C5_5 
REMARK    4  A    between atoms: C5_5  and  C6_6 
REMARK    5  A    between atoms: C6_6  and  C7_7 
REMARK    6  A    between atoms: C7_7  and  C8_8 
REMARK    7  A    between atoms: C8_8  and  C9_9 
REMARK    8  A    between atoms: C9_9  and  C10_10 
REMARK    9  A    between atoms: C9_9  and  C15_17 
REMARK   10  A    between atoms: C10_10  and  C11_11 
REMARK   11  A    between atoms: C11_11  and  C12_12 
REMARK   12  A    between atoms: C13_13  and  C14_14 
REMARK   13  A    between atoms: C14_14  and  O1_15 
REMARK   14  A    between atoms: C15_17  and  O2_18 
REMARK   15  A    between atoms: C15_17  and  C16_20 
ROOT
HETATM    1  C9  UNL     1      30.535   6.832  14.068  1.00  0.00     0.019 C 
ENDROOT
BRANCH   1   2
HETATM    2  C8  UNL     1      29.537   7.809  13.686  1.00  0.00     0.007 C 
BRANCH   2   3
HETATM    3  C7  UNL     1      28.759   8.641  14.600  1.00  0.00     0.000 C 
BRANCH   3   4
HETATM    4  C6  UNL     1      27.394   8.160  14.971  1.00  0.00     0.000 C 
BRANCH   4   5
HETATM    5  C5  UNL     1      26.355   9.271  14.704  1.00  0.00     0.000 C 
BRANCH   5   6
HETATM    6  C4  UNL     1      25.456   8.885  13.594  1.00  0.00     0.004 C 
BRANCH   6   7
HETATM    7  C3  UNL     1      25.527   9.809  12.407  1.00  0.00     0.026 C 
BRANCH   7   8
HETATM    8  C2  UNL     1      26.200   9.054  11.302  1.00  0.00    -0.037 C 
HETATM    9  C1  UNL     1      27.493   9.246  11.112  1.00  0.00     0.007 C 
ENDBRANCH   7   8
ENDBRANCH   6   7
ENDBRANCH   5   6
ENDBRANCH   4   5
ENDBRANCH   3   4
ENDBRANCH   2   3
ENDBRANCH   1   2
BRANCH   1  10
HETATM   10  C10 UNL     1      30.927   7.132  15.526  1.00  0.00     0.011 C 
BRANCH  10  11
HETATM   11  C11 UNL     1      32.267   7.772  15.633  1.00  0.00     0.027 C 
BRANCH  11  12
HETATM   12  C12 UNL     1      32.194   9.154  16.140  1.00  0.00    -0.029 C 
HETATM   13  C13 UNL     1      31.573   9.497  17.229  1.00  0.00    -0.005 C 
BRANCH  13  14
HETATM   14  C14 UNL     1      30.836   8.636  18.167  1.00  0.00     0.191 C 
BRANCH  14  15
HETATM   15  O1  UNL     1      31.508   8.527  19.404  1.00  0.00    -0.397 OA
ATOM     16  H1  UNL     1      30.952   8.797  20.126  1.00  0.00     0.209 HD
ENDBRANCH  14  15
ENDBRANCH  13  14
ENDBRANCH  11  12
ENDBRANCH  10  11
ENDBRANCH   1  10
BRANCH   1  17
HETATM   17  C15 UNL     1      30.303   5.377  13.945  1.00  0.00     0.158 C 
BRANCH  17  18
HETATM   18  O2  UNL     1      30.249   4.725  15.175  1.00  0.00    -0.390 OA
ATOM     19  H2  UNL     1      30.579   5.254  15.892  1.00  0.00     0.210 HD
ENDBRANCH  17  18
BRANCH  17  20
HETATM   20  C16 UNL     1      31.405   4.739  13.120  1.00  0.00     0.005 A 
HETATM   21  C17 UNL     1      31.316   3.721  12.201  1.00  0.00     0.118 A 
HETATM   22  N1  UNL     1      32.558   3.497  11.724  1.00  0.00    -0.310 N 
HETATM   23  N2  UNL     1      33.437   4.309  12.280  1.00  0.00    -0.307 N 
ATOM     24  H1  UNL     1      32.788   2.792  11.024  1.00  0.00     0.186 HD
HETATM   25  C18 UNL     1      34.880   4.377  12.027  1.00  0.00     0.177 C 
HETATM   26  C19 UNL     1      32.742   5.076  13.138  1.00  0.00     0.120 A 
ENDBRANCH  17  20
ENDBRANCH   1  17
TORSDOF 15
ENDMDL
