MODEL 1
REMARK VINA RESULT: -7.777325074      0.000      0.000
REMARK  13 active torsions:
REMARK  status: ('A' for Active; 'I' for Inactive)
REMARK    1  A    between atoms: C2_2  and  C3_3 
REMARK    2  A    between atoms: C3_3  and  C4_4 
REMARK    3  A    between atoms: C4_4  and  C5_5 
REMARK    4  A    between atoms: C5_5  and  C6_6 
REMARK    5  A    between atoms: C6_6  and  C7_7 
REMARK    6  A    between atoms: C7_7  and  C8_8 
REMARK    7  A    between atoms: C8_8  and  C9_9 
REMARK    8  A    between atoms: C9_9  and  N1_11 
REMARK    9  A    between atoms: N1_11  and  C11_13 
REMARK   10  A    between atoms: C11_13  and  C12_14 
REMARK   11  A    between atoms: C12_14  and  N2_15 
REMARK   12  A    between atoms: N2_15  and  C13_17 
REMARK   13  A    between atoms: C16_20  and  N3_21 
ROOT
HETATM    1  C11 UNL     1      32.270   7.894  15.589  1.00  0.00     0.075 C 
ENDROOT
BRANCH   1   2
HETATM    2  N1  UNL     1      31.809   6.597  15.784  1.00  0.00    -0.396 N 
ATOM      3  H1  UNL     1      31.228   6.399  16.599  1.00  0.00     0.159 HD
BRANCH   2   4
HETATM    4  C9  UNL     1      32.114   5.552  14.899  1.00  0.00     0.076 C 
HETATM    5  C10 UNL     1      32.803   4.363  15.488  1.00  0.00     0.032 C 
BRANCH   4   6
HETATM    6  C8  UNL     1      30.882   5.052  14.157  1.00  0.00     0.024 C 
BRANCH   6   7
HETATM    7  C7  UNL     1      31.211   4.285  12.915  1.00  0.00     0.002 C 
BRANCH   7   8
HETATM    8  C6  UNL     1      32.490   4.748  12.259  1.00  0.00     0.000 C 
BRANCH   8   9
HETATM    9  C5  UNL     1      33.399   3.600  11.881  1.00  0.00     0.000 C 
BRANCH   9  10
HETATM   10  C4  UNL     1      34.859   3.938  12.027  1.00  0.00     0.004 C 
BRANCH  10  11
HETATM   11  C3  UNL     1      35.660   3.008  11.166  1.00  0.00     0.026 C 
BRANCH  11  12
HETATM   12  C2  UNL     1      37.082   3.008  11.561  1.00  0.00    -0.037 C 
HETATM   13  C1  UNL     1      37.976   3.591  10.783  1.00  0.00     0.007 C 
ENDBRANCH  11  12
ENDBRANCH  10  11
ENDBRANCH   9  10
ENDBRANCH   8   9
ENDBRANCH   7   8
ENDBRANCH   6   7
ENDBRANCH   4   6
ENDBRANCH   2   4
ENDBRANCH   1   2
BRANCH   1  14
HETATM   14  C12 UNL     1      31.300   9.031  15.684  1.00  0.00     0.164 C 
BRANCH  14  15
HETATM   15  N2  UNL     1      29.986   8.531  16.127  1.00  0.00    -0.385 N 
ATOM     16  H2  UNL     1      29.865   8.123  17.053  1.00  0.00     0.160 HD
BRANCH  15  17
HETATM   17  C13 UNL     1      28.898   8.634  15.230  1.00  0.00     0.028 A 
HETATM   18  C14 UNL     1      29.064   8.520  13.870  1.00  0.00     0.031 A 
HETATM   19  C15 UNL     1      28.013   8.618  12.986  1.00  0.00     0.038 A 
HETATM   20  C16 UNL     1      26.715   8.840  13.454  1.00  0.00     0.103 A 
HETATM   21  C17 UNL     1      26.526   8.956  14.820  1.00  0.00     0.038 A 
HETATM   22  C18 UNL     1      27.596   8.855  15.680  1.00  0.00     0.031 A 
BRANCH  20  23
HETATM   23  N3  UNL     1      25.651   8.937  12.536  1.00  0.00    -0.116 N 
HETATM   24  O1  UNL     1      24.555   8.418  12.782  1.00  0.00    -0.532 OA
HETATM   25  O2  UNL     1      25.831   9.610  11.362  1.00  0.00    -0.532 OA
ENDBRANCH  20  23
ENDBRANCH  15  17
ENDBRANCH  14  15
ENDBRANCH   1  14
TORSDOF 13
ENDMDL
MODEL 2
REMARK VINA RESULT: -7.771384610      0.563      1.154
REMARK  13 active torsions:
REMARK  status: ('A' for Active; 'I' for Inactive)
REMARK    1  A    between atoms: C2_2  and  C3_3 
REMARK    2  A    between atoms: C3_3  and  C4_4 
REMARK    3  A    between atoms: C4_4  and  C5_5 
REMARK    4  A    between atoms: C5_5  and  C6_6 
REMARK    5  A    between atoms: C6_6  and  C7_7 
REMARK    6  A    between atoms: C7_7  and  C8_8 
REMARK    7  A    between atoms: C8_8  and  C9_9 
REMARK    8  A    between atoms: C9_9  and  N1_11 
REMARK    9  A    between atoms: N1_11  and  C11_13 
REMARK   10  A    between atoms: C11_13  and  C12_14 
REMARK   11  A    between atoms: C12_14  and  N2_15 
REMARK   12  A    between atoms: N2_15  and  C13_17 
REMARK   13  A    between atoms: C16_20  and  N3_21 
ROOT
HETATM    1  C11 UNL     1      32.216   7.506  15.239  1.00  0.00     0.075 C 
ENDROOT
BRANCH   1   2
HETATM    2  N1  UNL     1      31.784   6.257  15.669  1.00  0.00    -0.396 N 
ATOM      3  H1  UNL     1      31.655   6.098  16.668  1.00  0.00     0.159 HD
BRANCH   2   4
HETATM    4  C9  UNL     1      31.520   5.207  14.777  1.00  0.00     0.076 C 
HETATM    5  C10 UNL     1      30.107   5.075  14.304  1.00  0.00     0.032 C 
BRANCH   4   6
HETATM    6  C8  UNL     1      32.416   5.261  13.547  1.00  0.00     0.024 C 
BRANCH   6   7
HETATM    7  C7  UNL     1      32.063   4.237  12.514  1.00  0.00     0.002 C 
BRANCH   7   8
HETATM    8  C6  UNL     1      33.271   3.519  11.961  1.00  0.00     0.000 C 
BRANCH   8   9
HETATM    9  C5  UNL     1      34.558   4.279  12.196  1.00  0.00     0.000 C 
BRANCH   9  10
HETATM   10  C4  UNL     1      35.536   4.137  11.062  1.00  0.00     0.004 C 
BRANCH  10  11
HETATM   11  C3  UNL     1      36.152   2.771  11.121  1.00  0.00     0.026 C 
BRANCH  11  12
HETATM   12  C2  UNL     1      37.592   2.849  11.437  1.00  0.00    -0.037 C 
HETATM   13  C1  UNL     1      38.424   3.390  10.566  1.00  0.00     0.007 C 
ENDBRANCH  11  12
ENDBRANCH  10  11
ENDBRANCH   9  10
ENDBRANCH   8   9
ENDBRANCH   7   8
ENDBRANCH   6   7
ENDBRANCH   4   6
ENDBRANCH   2   4
ENDBRANCH   1   2
BRANCH   1  14
HETATM   14  C12 UNL     1      31.402   8.714  15.588  1.00  0.00     0.164 C 
BRANCH  14  15
HETATM   15  N2  UNL     1      30.065   8.300  16.050  1.00  0.00    -0.385 N 
ATOM     16  H2  UNL     1      29.933   7.891  16.975  1.00  0.00     0.160 HD
BRANCH  15  17
HETATM   17  C13 UNL     1      28.971   8.485  15.174  1.00  0.00     0.028 A 
HETATM   18  C14 UNL     1      29.128   8.503  13.808  1.00  0.00     0.031 A 
HETATM   19  C15 UNL     1      28.072   8.682  12.944  1.00  0.00     0.038 A 
HETATM   20  C16 UNL     1      26.776   8.854  13.440  1.00  0.00     0.103 A 
HETATM   21  C17 UNL     1      26.596   8.837  14.812  1.00  0.00     0.038 A 
HETATM   22  C18 UNL     1      27.671   8.657  15.651  1.00  0.00     0.031 A 
BRANCH  20  23
HETATM   23  N3  UNL     1      25.705   9.035  12.542  1.00  0.00    -0.116 N 
HETATM   24  O1  UNL     1      25.835   9.749  11.541  1.00  0.00    -0.532 OA
HETATM   25  O2  UNL     1      24.512   8.416  12.781  1.00  0.00    -0.532 OA
ENDBRANCH  20  23
ENDBRANCH  15  17
ENDBRANCH  14  15
ENDBRANCH   1  14
TORSDOF 13
ENDMDL
MODEL 3
REMARK VINA RESULT: -7.670650364      1.150      1.559
REMARK  13 active torsions:
REMARK  status: ('A' for Active; 'I' for Inactive)
REMARK    1  A    between atoms: C2_2  and  C3_3 
REMARK    2  A    between atoms: C3_3  and  C4_4 
REMARK    3  A    between atoms: C4_4  and  C5_5 
REMARK    4  A    between atoms: C5_5  and  C6_6 
REMARK    5  A    between atoms: C6_6  and  C7_7 
REMARK    6  A    between atoms: C7_7  and  C8_8 
REMARK    7  A    between atoms: C8_8  and  C9_9 
REMARK    8  A    between atoms: C9_9  and  N1_11 
REMARK    9  A    between atoms: N1_11  and  C11_13 
REMARK   10  A    between atoms: C11_13  and  C12_14 
REMARK   11  A    between atoms: C12_14  and  N2_15 
REMARK   12  A    between atoms: N2_15  and  C13_17 
REMARK   13  A    between atoms: C16_20  and  N3_21 
ROOT
HETATM    1  C11 UNL     1      32.150   7.531  15.201  1.00  0.00     0.075 C 
ENDROOT
BRANCH   1   2
HETATM    2  N1  UNL     1      31.758   6.249  15.570  1.00  0.00    -0.396 N 
ATOM      3  H1  UNL     1      31.667   6.028  16.562  1.00  0.00     0.159 HD
BRANCH   2   4
HETATM    4  C9  UNL     1      31.484   5.248  14.625  1.00  0.00     0.076 C 
HETATM    5  C10 UNL     1      30.114   5.255  14.027  1.00  0.00     0.032 C 
BRANCH   4   6
HETATM    6  C8  UNL     1      32.488   5.250  13.481  1.00  0.00     0.024 C 
BRANCH   6   7
HETATM    7  C7  UNL     1      32.136   4.295  12.384  1.00  0.00     0.002 C 
BRANCH   7   8
HETATM    8  C6  UNL     1      33.246   3.319  12.075  1.00  0.00     0.000 C 
BRANCH   8   9
HETATM    9  C5  UNL     1      34.616   3.956  12.139  1.00  0.00     0.000 C 
BRANCH   9  10
HETATM   10  C4  UNL     1      35.665   3.159  11.411  1.00  0.00     0.004 C 
BRANCH  10  11
HETATM   11  C3  UNL     1      36.791   4.073  11.029  1.00  0.00     0.026 C 
BRANCH  11  12
HETATM   12  C2  UNL     1      36.291   5.419  10.685  1.00  0.00    -0.037 C 
HETATM   13  C1  UNL     1      37.046   6.234   9.972  1.00  0.00     0.007 C 
ENDBRANCH  11  12
ENDBRANCH  10  11
ENDBRANCH   9  10
ENDBRANCH   8   9
ENDBRANCH   7   8
ENDBRANCH   6   7
ENDBRANCH   4   6
ENDBRANCH   2   4
ENDBRANCH   1   2
BRANCH   1  14
HETATM   14  C12 UNL     1      31.248   8.684  15.516  1.00  0.00     0.164 C 
BRANCH  14  15
HETATM   15  N2  UNL     1      30.034   8.197  16.198  1.00  0.00    -0.385 N 
ATOM     16  H2  UNL     1      30.096   7.693  17.082  1.00  0.00     0.160 HD
BRANCH  15  17
HETATM   17  C13 UNL     1      28.783   8.448  15.590  1.00  0.00     0.028 A 
HETATM   18  C14 UNL     1      28.649   8.573  14.227  1.00  0.00     0.031 A 
HETATM   19  C15 UNL     1      27.437   8.819  13.623  1.00  0.00     0.038 A 
HETATM   20  C16 UNL     1      26.277   8.950  14.393  1.00  0.00     0.103 A 
HETATM   21  C17 UNL     1      26.391   8.826  15.766  1.00  0.00     0.038 A 
HETATM   22  C18 UNL     1      27.616   8.582  16.343  1.00  0.00     0.031 A 
BRANCH  20  23
HETATM   23  N3  UNL     1      25.044   9.199  13.759  1.00  0.00    -0.116 N 
HETATM   24  O1  UNL     1      24.622   8.440  12.878  1.00  0.00    -0.532 OA
HETATM   25  O2  UNL     1      24.309  10.291  14.120  1.00  0.00    -0.532 OA
ENDBRANCH  20  23
ENDBRANCH  15  17
ENDBRANCH  14  15
ENDBRANCH   1  14
TORSDOF 13
ENDMDL
MODEL 4
REMARK VINA RESULT: -7.625324123      2.856      3.571
REMARK  13 active torsions:
REMARK  status: ('A' for Active; 'I' for Inactive)
REMARK    1  A    between atoms: C2_2  and  C3_3 
REMARK    2  A    between atoms: C3_3  and  C4_4 
REMARK    3  A    between atoms: C4_4  and  C5_5 
REMARK    4  A    between atoms: C5_5  and  C6_6 
REMARK    5  A    between atoms: C6_6  and  C7_7 
REMARK    6  A    between atoms: C7_7  and  C8_8 
REMARK    7  A    between atoms: C8_8  and  C9_9 
REMARK    8  A    between atoms: C9_9  and  N1_11 
REMARK    9  A    between atoms: N1_11  and  C11_13 
REMARK   10  A    between atoms: C11_13  and  C12_14 
REMARK   11  A    between atoms: C12_14  and  N2_15 
REMARK   12  A    between atoms: N2_15  and  C13_17 
REMARK   13  A    between atoms: C16_20  and  N3_21 
ROOT
HETATM    1  C11 UNL     1      29.082   7.922  13.357  1.00  0.00     0.075 C 
ENDROOT
BRANCH   1   2
HETATM    2  N1  UNL     1      29.384   6.623  13.752  1.00  0.00    -0.396 N 
ATOM      3  H1  UNL     1      28.622   5.957  13.878  1.00  0.00     0.159 HD
BRANCH   2   4
HETATM    4  C9  UNL     1      30.701   6.197  13.982  1.00  0.00     0.076 C 
HETATM    5  C10 UNL     1      31.365   6.726  15.214  1.00  0.00     0.032 C 
BRANCH   4   6
HETATM    6  C8  UNL     1      30.815   4.679  14.011  1.00  0.00     0.024 C 
BRANCH   6   7
HETATM    7  C7  UNL     1      31.232   4.093  12.699  1.00  0.00     0.002 C 
BRANCH   7   8
HETATM    8  C6  UNL     1      32.523   4.676  12.177  1.00  0.00     0.000 C 
BRANCH   8   9
HETATM    9  C5  UNL     1      33.737   3.883  12.609  1.00  0.00     0.000 C 
BRANCH   9  10
HETATM   10  C4  UNL     1      34.635   3.518  11.458  1.00  0.00     0.004 C 
BRANCH  10  11
HETATM   11  C3  UNL     1      35.754   4.512  11.381  1.00  0.00     0.026 C 
BRANCH  11  12
HETATM   12  C2  UNL     1      37.029   3.855  11.034  1.00  0.00    -0.037 C 
HETATM   13  C1  UNL     1      37.370   2.731  11.638  1.00  0.00     0.007 C 
ENDBRANCH  11  12
ENDBRANCH  10  11
ENDBRANCH   9  10
ENDBRANCH   8   9
ENDBRANCH   7   8
ENDBRANCH   6   7
ENDBRANCH   4   6
ENDBRANCH   2   4
ENDBRANCH   1   2
BRANCH   1  14
HETATM   14  C12 UNL     1      28.412   8.838  14.334  1.00  0.00     0.164 C 
BRANCH  14  15
HETATM   15  N2  UNL     1      27.568   8.056  15.256  1.00  0.00    -0.385 N 
ATOM     16  H2  UNL     1      27.695   7.050  15.357  1.00  0.00     0.160 HD
BRANCH  15  17
HETATM   17  C13 UNL     1      26.578   8.742  15.995  1.00  0.00     0.028 A 
HETATM   18  C14 UNL     1      25.506   9.351  15.386  1.00  0.00     0.031 A 
HETATM   19  C15 UNL     1      24.536  10.022  16.094  1.00  0.00     0.038 A 
HETATM   20  C16 UNL     1      24.610  10.107  17.488  1.00  0.00     0.103 A 
HETATM   21  C17 UNL     1      25.680   9.500  18.121  1.00  0.00     0.038 A 
HETATM   22  C18 UNL     1      26.636   8.837  17.386  1.00  0.00     0.031 A 
BRANCH  20  23
HETATM   23  N3  UNL     1      23.607  10.797  18.198  1.00  0.00    -0.116 N 
HETATM   24  O1  UNL     1      23.601  12.033  18.242  1.00  0.00    -0.532 OA
HETATM   25  O2  UNL     1      22.634  10.092  18.846  1.00  0.00    -0.532 OA
ENDBRANCH  20  23
ENDBRANCH  15  17
ENDBRANCH  14  15
ENDBRANCH   1  14
TORSDOF 13
ENDMDL
MODEL 5
REMARK VINA RESULT: -7.618297175      2.851      3.626
REMARK  13 active torsions:
REMARK  status: ('A' for Active; 'I' for Inactive)
REMARK    1  A    between atoms: C2_2  and  C3_3 
REMARK    2  A    between atoms: C3_3  and  C4_4 
REMARK    3  A    between atoms: C4_4  and  C5_5 
REMARK    4  A    between atoms: C5_5  and  C6_6 
REMARK    5  A    between atoms: C6_6  and  C7_7 
REMARK    6  A    between atoms: C7_7  and  C8_8 
REMARK    7  A    between atoms: C8_8  and  C9_9 
REMARK    8  A    between atoms: C9_9  and  N1_11 
REMARK    9  A    between atoms: N1_11  and  C11_13 
REMARK   10  A    between atoms: C11_13  and  C12_14 
REMARK   11  A    between atoms: C12_14  and  N2_15 
REMARK   12  A    between atoms: N2_15  and  C13_17 
REMARK   13  A    between atoms: C16_20  and  N3_21 
ROOT
HETATM    1  C11 UNL     1      28.689   7.447  14.263  1.00  0.00     0.075 C 
ENDROOT
BRANCH   1   2
HETATM    2  N1  UNL     1      29.821   7.209  13.492  1.00  0.00    -0.396 N 
ATOM      3  H1  UNL     1      29.851   7.568  12.538  1.00  0.00     0.159 HD
BRANCH   2   4
HETATM    4  C9  UNL     1      30.924   6.492  13.980  1.00  0.00     0.076 C 
HETATM    5  C10 UNL     1      31.401   6.857  15.349  1.00  0.00     0.032 C 
BRANCH   4   6
HETATM    6  C8  UNL     1      30.683   4.988  13.960  1.00  0.00     0.024 C 
BRANCH   6   7
HETATM    7  C7  UNL     1      31.340   4.301  12.804  1.00  0.00     0.002 C 
BRANCH   7   8
HETATM    8  C6  UNL     1      32.786   4.699  12.627  1.00  0.00     0.000 C 
BRANCH   8   9
HETATM    9  C5  UNL     1      33.565   3.706  11.793  1.00  0.00     0.000 C 
BRANCH   9  10
HETATM   10  C4  UNL     1      35.038   4.012  11.744  1.00  0.00     0.004 C 
BRANCH  10  11
HETATM   11  C3  UNL     1      35.759   2.835  11.160  1.00  0.00     0.026 C 
BRANCH  11  12
HETATM   12  C2  UNL     1      37.171   2.809  11.588  1.00  0.00    -0.037 C 
HETATM   13  C1  UNL     1      38.096   3.363  10.825  1.00  0.00     0.007 C 
ENDBRANCH  11  12
ENDBRANCH  10  11
ENDBRANCH   9  10
ENDBRANCH   8   9
ENDBRANCH   7   8
ENDBRANCH   6   7
ENDBRANCH   4   6
ENDBRANCH   2   4
ENDBRANCH   1   2
BRANCH   1  14
HETATM   14  C12 UNL     1      28.146   8.840  14.344  1.00  0.00     0.164 C 
BRANCH  14  15
HETATM   15  N2  UNL     1      26.699   8.830  14.060  1.00  0.00    -0.385 N 
ATOM     16  H2  UNL     1      26.340   8.474  13.175  1.00  0.00     0.160 HD
BRANCH  15  17
HETATM   17  C13 UNL     1      25.824   9.329  15.052  1.00  0.00     0.028 A 
HETATM   18  C14 UNL     1      26.243   9.568  16.339  1.00  0.00     0.031 A 
HETATM   19  C15 UNL     1      25.401  10.053  17.314  1.00  0.00     0.038 A 
HETATM   20  C16 UNL     1      24.062  10.327  17.018  1.00  0.00     0.103 A 
HETATM   21  C17 UNL     1      23.620  10.095  15.728  1.00  0.00     0.038 A 
HETATM   22  C18 UNL     1      24.485   9.608  14.774  1.00  0.00     0.031 A 
BRANCH  20  23
HETATM   23  N3  UNL     1      23.214  10.825  18.027  1.00  0.00    -0.116 N 
HETATM   24  O1  UNL     1      22.652  10.055  18.815  1.00  0.00    -0.532 OA
HETATM   25  O2  UNL     1      23.010  12.170  18.133  1.00  0.00    -0.532 OA
ENDBRANCH  20  23
ENDBRANCH  15  17
ENDBRANCH  14  15
ENDBRANCH   1  14
TORSDOF 13
ENDMDL
