MODEL 1
REMARK VINA RESULT: -5.359875726      0.000      0.000
REMARK  5 active torsions:
REMARK  status: ('A' for Active; 'I' for Inactive)
REMARK    1  A    between atoms: O1_2  and  C2_3 
REMARK    2  A    between atoms: C2_3  and  C3_4 
REMARK    3  A    between atoms: C3_4  and  C4_5 
REMARK    4  A    between atoms: C4_5  and  N1_6 
REMARK    5  A    between atoms: C8_13  and  C9_14 
ROOT
HETATM    1  N1  UNL     1       9.509  -9.393  22.049  1.00  0.00     0.120 N 
HETATM    2  C5  UNL     1      10.413  -9.285  20.918  1.00  0.00     0.277 C 
HETATM    3  C6  UNL     1      10.106 -10.345  19.860  1.00  0.00     0.058 C 
HETATM    4  C7  UNL     1       8.767  -9.965  19.264  1.00  0.00     0.236 C 
HETATM    5  N2  UNL     1       8.095  -9.128  20.206  1.00  0.00    -0.043 N 
ATOM      6  H21 UNL     1       7.125  -8.958  19.935  1.00  0.00     0.279 HD
ATOM      7  H22 UNL     1       8.435  -8.167  20.167  1.00  0.00     0.279 HD
HETATM    8  C8  UNL     1       8.191  -9.677  21.541  1.00  0.00     0.423 C 
ENDROOT
BRANCH   1   9
HETATM    9  C4  UNL     1      10.026 -10.478  22.866  1.00  0.00     0.277 C 
BRANCH   9  10
HETATM   10  C3  UNL     1      11.471 -10.317  23.232  1.00  0.00     0.056 C 
BRANCH  10  11
HETATM   11  C2  UNL     1      12.079 -11.723  23.205  1.00  0.00     0.168 C 
BRANCH  11  12
HETATM   12  O1  UNL     1      12.589 -12.052  24.453  1.00  0.00    -0.396 OA
HETATM   13  C1  UNL     1      13.721 -11.250  24.647  1.00  0.00     0.201 C 
ENDBRANCH  11  12
ENDBRANCH  10  11
ENDBRANCH   9  10
ENDBRANCH   1   9
BRANCH   8  14
HETATM   14  C9  UNL     1       7.099  -9.083  22.365  1.00  0.00     0.051 A 
HETATM   15  C10 UNL     1       6.996  -9.251  23.814  1.00  0.00     0.013 A 
HETATM   16  C11 UNL     1       6.119 -10.089  22.955  1.00  0.00    -0.010 A 
HETATM   17  C12 UNL     1       4.645  -9.764  22.866  1.00  0.00     0.010 C 
ENDBRANCH   8  14
TORSDOF 5
ENDMDL
MODEL 2
REMARK VINA RESULT: -5.252979035      4.356      7.193
REMARK  5 active torsions:
REMARK  status: ('A' for Active; 'I' for Inactive)
REMARK    1  A    between atoms: O1_2  and  C2_3 
REMARK    2  A    between atoms: C2_3  and  C3_4 
REMARK    3  A    between atoms: C3_4  and  C4_5 
REMARK    4  A    between atoms: C4_5  and  N1_6 
REMARK    5  A    between atoms: C8_13  and  C9_14 
ROOT
HETATM    1  N1  UNL     1      14.674 -10.481  20.920  1.00  0.00     0.120 N 
HETATM    2  C5  UNL     1      15.371  -9.272  21.320  1.00  0.00     0.277 C 
HETATM    3  C6  UNL     1      16.586  -9.594  22.189  1.00  0.00     0.058 C 
HETATM    4  C7  UNL     1      17.584 -10.275  21.276  1.00  0.00     0.236 C 
HETATM    5  N2  UNL     1      16.863 -10.799  20.160  1.00  0.00    -0.043 N 
ATOM      6  H21 UNL     1      17.449 -11.402  19.582  1.00  0.00     0.279 HD
ATOM      7  H22 UNL     1      16.658 -10.077  19.470  1.00  0.00     0.279 HD
HETATM    8  C8  UNL     1      15.663 -11.479  20.598  1.00  0.00     0.423 C 
ENDROOT
BRANCH   1   9
HETATM    9  C4  UNL     1      13.861 -10.865  22.062  1.00  0.00     0.277 C 
BRANCH   9  10
HETATM   10  C3  UNL     1      12.408 -10.533  21.902  1.00  0.00     0.056 C 
BRANCH  10  11
HETATM   11  C2  UNL     1      12.043  -9.624  23.080  1.00  0.00     0.168 C 
BRANCH  11  12
HETATM   12  O1  UNL     1      10.988 -10.168  23.799  1.00  0.00    -0.396 OA
HETATM   13  C1  UNL     1       9.830  -9.503  23.375  1.00  0.00     0.201 C 
ENDBRANCH  11  12
ENDBRANCH  10  11
ENDBRANCH   9  10
ENDBRANCH   1   9
BRANCH   8  14
HETATM   14  C9  UNL     1      15.234 -12.406  19.512  1.00  0.00     0.051 A 
HETATM   15  C10 UNL     1      13.836 -12.654  19.164  1.00  0.00     0.013 A 
HETATM   16  C11 UNL     1      14.536 -13.674  19.988  1.00  0.00    -0.010 A 
HETATM   17  C12 UNL     1      14.949 -14.982  19.350  1.00  0.00     0.010 C 
ENDBRANCH   8  14
TORSDOF 5
ENDMDL
MODEL 3
REMARK VINA RESULT: -5.207113432      5.782      8.548
REMARK  5 active torsions:
REMARK  status: ('A' for Active; 'I' for Inactive)
REMARK    1  A    between atoms: O1_2  and  C2_3 
REMARK    2  A    between atoms: C2_3  and  C3_4 
REMARK    3  A    between atoms: C3_4  and  C4_5 
REMARK    4  A    between atoms: C4_5  and  N1_6 
REMARK    5  A    between atoms: C8_13  and  C9_14 
ROOT
HETATM    1  N1  UNL     1      17.122 -11.291  20.818  1.00  0.00     0.120 N 
HETATM    2  C5  UNL     1      18.558 -11.075  20.835  1.00  0.00     0.277 C 
HETATM    3  C6  UNL     1      19.276 -12.181  21.608  1.00  0.00     0.058 C 
HETATM    4  C7  UNL     1      19.130 -13.436  20.772  1.00  0.00     0.236 C 
HETATM    5  N2  UNL     1      18.011 -13.252  19.905  1.00  0.00    -0.043 N 
ATOM      6  H21 UNL     1      17.762 -14.115  19.421  1.00  0.00     0.279 HD
ATOM      7  H22 UNL     1      18.252 -12.685  19.092  1.00  0.00     0.279 HD
HETATM    8  C8  UNL     1      16.886 -12.699  20.628  1.00  0.00     0.423 C 
ENDROOT
BRANCH   1   9
HETATM    9  C4  UNL     1      16.637 -10.822  22.105  1.00  0.00     0.277 C 
BRANCH   9  10
HETATM   10  C3  UNL     1      16.515  -9.331  22.194  1.00  0.00     0.056 C 
BRANCH  10  11
HETATM   11  C2  UNL     1      15.261  -8.954  21.398  1.00  0.00     0.168 C 
BRANCH  11  12
HETATM   12  O1  UNL     1      14.410  -8.183  22.178  1.00  0.00    -0.396 OA
HETATM   13  C1  UNL     1      13.195  -8.877  22.250  1.00  0.00     0.201 C 
ENDBRANCH  11  12
ENDBRANCH  10  11
ENDBRANCH   9  10
ENDBRANCH   1   9
BRANCH   8  14
HETATM   14  C9  UNL     1      15.647 -12.991  19.851  1.00  0.00     0.051 A 
HETATM   15  C10 UNL     1      14.316 -13.074  20.450  1.00  0.00     0.013 A 
HETATM   16  C11 UNL     1      15.014 -14.348  20.136  1.00  0.00    -0.010 A 
HETATM   17  C12 UNL     1      14.556 -15.168  18.951  1.00  0.00     0.010 C 
ENDBRANCH   8  14
TORSDOF 5
ENDMDL
MODEL 4
REMARK VINA RESULT: -5.187044700      4.295      5.795
REMARK  5 active torsions:
REMARK  status: ('A' for Active; 'I' for Inactive)
REMARK    1  A    between atoms: O1_2  and  C2_3 
REMARK    2  A    between atoms: C2_3  and  C3_4 
REMARK    3  A    between atoms: C3_4  and  C4_5 
REMARK    4  A    between atoms: C4_5  and  N1_6 
REMARK    5  A    between atoms: C8_13  and  C9_14 
ROOT
HETATM    1  N1  UNL     1      14.852 -10.622  21.503  1.00  0.00     0.120 N 
HETATM    2  C5  UNL     1      15.825 -10.754  20.434  1.00  0.00     0.277 C 
HETATM    3  C6  UNL     1      16.141 -12.222  20.149  1.00  0.00     0.058 C 
HETATM    4  C7  UNL     1      14.885 -12.809  19.541  1.00  0.00     0.236 C 
HETATM    5  N2  UNL     1      13.789 -11.976  19.920  1.00  0.00    -0.043 N 
ATOM      6  H21 UNL     1      12.892 -12.396  19.672  1.00  0.00     0.279 HD
ATOM      7  H22 UNL     1      13.732 -11.139  19.340  1.00  0.00     0.279 HD
HETATM    8  C8  UNL     1      13.856 -11.649  21.328  1.00  0.00     0.423 C 
ENDROOT
BRANCH   1   9
HETATM    9  C4  UNL     1      15.597 -10.788  22.739  1.00  0.00     0.277 C 
BRANCH   9  10
HETATM   10  C3  UNL     1      16.739  -9.827  22.884  1.00  0.00     0.056 C 
BRANCH  10  11
HETATM   11  C2  UNL     1      17.645 -10.399  23.979  1.00  0.00     0.168 C 
BRANCH  11  12
HETATM   12  O1  UNL     1      17.495  -9.676  25.155  1.00  0.00    -0.396 OA
HETATM   13  C1  UNL     1      17.176 -10.603  26.156  1.00  0.00     0.201 C 
ENDBRANCH  11  12
ENDBRANCH  10  11
ENDBRANCH   9  10
ENDBRANCH   1   9
BRANCH   8  14
HETATM   14  C9  UNL     1      12.494 -11.233  21.772  1.00  0.00     0.051 A 
HETATM   15  C10 UNL     1      12.204 -10.701  23.103  1.00  0.00     0.013 A 
HETATM   16  C11 UNL     1      11.865 -12.124  22.836  1.00  0.00    -0.010 A 
HETATM   17  C12 UNL     1      10.417 -12.516  22.653  1.00  0.00     0.010 C 
ENDBRANCH   8  14
TORSDOF 5
ENDMDL
MODEL 5
REMARK VINA RESULT: -5.166584714      2.254      3.116
REMARK  5 active torsions:
REMARK  status: ('A' for Active; 'I' for Inactive)
REMARK    1  A    between atoms: O1_2  and  C2_3 
REMARK    2  A    between atoms: C2_3  and  C3_4 
REMARK    3  A    between atoms: C3_4  and  C4_5 
REMARK    4  A    between atoms: C4_5  and  N1_6 
REMARK    5  A    between atoms: C8_13  and  C9_14 
ROOT
HETATM    1  N1  UNL     1      10.624 -10.303  21.481  1.00  0.00     0.120 N 
HETATM    2  C5  UNL     1      11.724 -11.250  21.497  1.00  0.00     0.277 C 
HETATM    3  C6  UNL     1      11.801 -11.989  22.833  1.00  0.00     0.058 C 
HETATM    4  C7  UNL     1      10.580 -12.884  22.885  1.00  0.00     0.236 C 
HETATM    5  N2  UNL     1       9.613 -12.352  21.979  1.00  0.00    -0.043 N 
ATOM      6  H21 UNL     1       8.710 -12.817  22.076  1.00  0.00     0.279 HD
ATOM      7  H22 UNL     1       9.816 -12.611  21.014  1.00  0.00     0.279 HD
HETATM    8  C8  UNL     1       9.497 -10.918  22.136  1.00  0.00     0.423 C 
ENDROOT
BRANCH   1   9
HETATM    9  C4  UNL     1      11.100  -9.132  22.197  1.00  0.00     0.277 C 
BRANCH   9  10
HETATM   10  C3  UNL     1      12.361  -8.552  21.628  1.00  0.00     0.056 C 
BRANCH  10  11
HETATM   11  C2  UNL     1      13.441  -8.741  22.698  1.00  0.00     0.168 C 
BRANCH  11  12
HETATM   12  O1  UNL     1      14.643  -8.196  22.270  1.00  0.00    -0.396 OA
HETATM   13  C1  UNL     1      15.196  -9.110  21.362  1.00  0.00     0.201 C 
ENDBRANCH  11  12
ENDBRANCH  10  11
ENDBRANCH   9  10
ENDBRANCH   1   9
BRANCH   8  14
HETATM   14  C9  UNL     1       8.183 -10.496  21.571  1.00  0.00     0.051 A 
HETATM   15  C10 UNL     1       7.915  -9.151  21.062  1.00  0.00     0.013 A 
HETATM   16  C11 UNL     1       7.412  -9.491  22.419  1.00  0.00    -0.010 A 
HETATM   17  C12 UNL     1       5.933  -9.734  22.618  1.00  0.00     0.010 C 
ENDBRANCH   8  14
TORSDOF 5
ENDMDL
