MODEL 1
REMARK VINA RESULT: -5.214773462      0.000      0.000
REMARK  1 active torsions:
REMARK  status: ('A' for Active; 'I' for Inactive)
REMARK    1  A    between atoms: C4_5  and  N2_6 
ROOT
HETATM    1  N1  UNL     1      35.546  26.047 -42.532  1.00  0.00    -0.190 NA
HETATM    2  C1  UNL     1      35.520  27.161 -42.865  1.00  0.00     0.118 C 
HETATM    3  C2  UNL     1      35.475  28.550 -43.260  1.00  0.00     0.121 A 
HETATM    4  C3  UNL     1      34.272  29.184 -43.506  1.00  0.00     0.089 A 
HETATM    5  C4  UNL     1      34.211  30.510 -43.884  1.00  0.00     0.105 A 
HETATM    6  N3  UNL     1      35.380  31.161 -44.002  1.00  0.00    -0.295 N 
ATOM      7  H3  UNL     1      35.363  32.142 -44.280  1.00  0.00     0.172 HD
HETATM    8  C5  UNL     1      36.576  30.579 -43.771  1.00  0.00     0.326 A 
HETATM    9  O1  UNL     1      37.659  31.228 -43.894  1.00  0.00    -0.247 OA
HETATM   10  N4  UNL     1      36.604  29.284 -43.404  1.00  0.00    -0.300 N 
ATOM     11  H4  UNL     1      37.505  28.840 -43.228  1.00  0.00     0.171 HD
ENDROOT
BRANCH   5  12
HETATM   12  N2  UNL     1      33.068  31.104 -44.115  1.00  0.00    -0.385 N 
ATOM     13  H22 UNL     1      32.886  31.592 -44.992  1.00  0.00     0.157 HD
ATOM     14  H21 UNL     1      32.316  31.100 -43.425  1.00  0.00     0.157 HD
ENDBRANCH   5  12
TORSDOF 1
ENDMDL
MODEL 2
REMARK VINA RESULT: -5.180191880      3.159      5.037
REMARK  1 active torsions:
REMARK  status: ('A' for Active; 'I' for Inactive)
REMARK    1  A    between atoms: C4_5  and  N2_6 
ROOT
HETATM    1  N1  UNL     1      33.606  30.100 -45.045  1.00  0.00    -0.190 NA
HETATM    2  C1  UNL     1      33.864  29.112 -44.490  1.00  0.00     0.118 C 
HETATM    3  C2  UNL     1      34.197  27.896 -43.783  1.00  0.00     0.121 A 
HETATM    4  C3  UNL     1      35.512  27.535 -43.563  1.00  0.00     0.089 A 
HETATM    5  C4  UNL     1      35.847  26.378 -42.890  1.00  0.00     0.105 A 
HETATM    6  N3  UNL     1      34.831  25.613 -42.456  1.00  0.00    -0.295 N 
ATOM      7  H3  UNL     1      35.051  24.752 -41.956  1.00  0.00     0.172 HD
HETATM    8  C5  UNL     1      33.533  25.929 -42.651  1.00  0.00     0.326 A 
HETATM    9  O1  UNL     1      32.602  25.180 -42.227  1.00  0.00    -0.247 OA
HETATM   10  N4  UNL     1      33.237  27.065 -43.311  1.00  0.00    -0.300 N 
ATOM     11  H4  UNL     1      32.258  27.308 -43.460  1.00  0.00     0.171 HD
ENDROOT
BRANCH   5  12
HETATM   12  N2  UNL     1      37.095  26.042 -42.684  1.00  0.00    -0.385 N 
ATOM     13  H22 UNL     1      37.862  26.509 -43.170  1.00  0.00     0.157 HD
ATOM     14  H21 UNL     1      37.348  25.301 -42.030  1.00  0.00     0.157 HD
ENDBRANCH   5  12
TORSDOF 1
ENDMDL
MODEL 3
REMARK VINA RESULT: -5.065146077      1.581      1.761
REMARK  1 active torsions:
REMARK  status: ('A' for Active; 'I' for Inactive)
REMARK    1  A    between atoms: C4_5  and  N2_6 
ROOT
HETATM    1  N1  UNL     1      35.059  26.804 -41.251  1.00  0.00    -0.190 NA
HETATM    2  C1  UNL     1      34.768  27.753 -41.856  1.00  0.00     0.118 C 
HETATM    3  C2  UNL     1      34.408  28.945 -42.589  1.00  0.00     0.121 A 
HETATM    4  C3  UNL     1      33.316  29.707 -42.221  1.00  0.00     0.089 A 
HETATM    5  C4  UNL     1      32.959  30.849 -42.909  1.00  0.00     0.105 A 
HETATM    6  N3  UNL     1      33.725  31.188 -43.960  1.00  0.00    -0.295 N 
ATOM      7  H3  UNL     1      33.483  32.027 -44.485  1.00  0.00     0.172 HD
HETATM    8  C5  UNL     1      34.800  30.471 -44.352  1.00  0.00     0.326 A 
HETATM    9  O1  UNL     1      35.498  30.824 -45.350  1.00  0.00    -0.247 OA
HETATM   10  N4  UNL     1      35.124  29.362 -43.660  1.00  0.00    -0.300 N 
ATOM     11  H4  UNL     1      35.935  28.818 -43.953  1.00  0.00     0.171 HD
ENDROOT
BRANCH   5  12
HETATM   12  N2  UNL     1      31.923  31.566 -42.554  1.00  0.00    -0.385 N 
ATOM     13  H22 UNL     1      30.973  31.198 -42.609  1.00  0.00     0.157 HD
ATOM     14  H21 UNL     1      32.028  32.521 -42.211  1.00  0.00     0.157 HD
ENDBRANCH   5  12
TORSDOF 1
ENDMDL
MODEL 4
REMARK VINA RESULT: -5.022456769      2.229      2.456
REMARK  1 active torsions:
REMARK  status: ('A' for Active; 'I' for Inactive)
REMARK    1  A    between atoms: C4_5  and  N2_6 
ROOT
HETATM    1  N1  UNL     1      32.817  25.911 -42.076  1.00  0.00    -0.190 NA
HETATM    2  C1  UNL     1      33.014  27.017 -42.376  1.00  0.00     0.118 C 
HETATM    3  C2  UNL     1      33.267  28.396 -42.729  1.00  0.00     0.121 A 
HETATM    4  C3  UNL     1      32.718  29.432 -41.998  1.00  0.00     0.089 A 
HETATM    5  C4  UNL     1      32.950  30.753 -42.321  1.00  0.00     0.105 A 
HETATM    6  N3  UNL     1      33.738  30.989 -43.383  1.00  0.00    -0.295 N 
ATOM      7  H3  UNL     1      33.926  31.957 -43.643  1.00  0.00     0.172 HD
HETATM    8  C5  UNL     1      34.294  30.005 -44.123  1.00  0.00     0.326 A 
HETATM    9  O1  UNL     1      35.032  30.268 -45.120  1.00  0.00    -0.247 OA
HETATM   10  N4  UNL     1      34.049  28.726 -43.784  1.00  0.00    -0.300 N 
ATOM     11  H4  UNL     1      34.467  27.980 -44.340  1.00  0.00     0.171 HD
ENDROOT
BRANCH   5  12
HETATM   12  N2  UNL     1      32.427  31.730 -41.624  1.00  0.00    -0.385 N 
ATOM     13  H22 UNL     1      32.979  32.540 -41.340  1.00  0.00     0.157 HD
ATOM     14  H21 UNL     1      31.448  31.717 -41.338  1.00  0.00     0.157 HD
ENDBRANCH   5  12
TORSDOF 1
ENDMDL
MODEL 5
REMARK VINA RESULT: -5.014986682      4.664      5.496
REMARK  1 active torsions:
REMARK  status: ('A' for Active; 'I' for Inactive)
REMARK    1  A    between atoms: C4_5  and  N2_6 
ROOT
HETATM    1  N1  UNL     1      34.044  28.159 -38.403  1.00  0.00    -0.190 NA
HETATM    2  C1  UNL     1      34.202  27.545 -39.378  1.00  0.00     0.118 C 
HETATM    3  C2  UNL     1      34.415  26.768 -40.577  1.00  0.00     0.121 A 
HETATM    4  C3  UNL     1      35.660  26.702 -41.173  1.00  0.00     0.089 A 
HETATM    5  C4  UNL     1      35.880  25.964 -42.319  1.00  0.00     0.105 A 
HETATM    6  N3  UNL     1      34.824  25.311 -42.832  1.00  0.00    -0.295 N 
ATOM      7  H3  UNL     1      34.960  24.759 -43.679  1.00  0.00     0.172 HD
HETATM    8  C5  UNL     1      33.592  25.350 -42.281  1.00  0.00     0.326 A 
HETATM    9  O1  UNL     1      32.620  24.720 -42.796  1.00  0.00    -0.247 OA
HETATM   10  N4  UNL     1      33.408  26.078 -41.163  1.00  0.00    -0.300 N 
ATOM     11  H4  UNL     1      32.479  26.110 -40.743  1.00  0.00     0.171 HD
ENDROOT
BRANCH   5  12
HETATM   12  N2  UNL     1      37.062  25.905 -42.878  1.00  0.00    -0.385 N 
ATOM     13  H22 UNL     1      37.901  25.697 -42.335  1.00  0.00     0.157 HD
ATOM     14  H21 UNL     1      37.188  26.066 -43.877  1.00  0.00     0.157 HD
ENDBRANCH   5  12
TORSDOF 1
ENDMDL
