MODEL 1
REMARK VINA RESULT: -4.423481220      0.000      0.000
REMARK  1 active torsions:
REMARK  status: ('A' for Active; 'I' for Inactive)
REMARK    1  A    between atoms: N1_1  and  N2_4 
ROOT
HETATM    1  N2  UNL     1      35.487  26.097 -43.128  1.00  0.00    -0.171 N 
HETATM    2  N3  UNL     1      36.640  25.916 -42.502  1.00  0.00    -0.228 N 
ATOM      3  H3  UNL     1      37.533  25.716 -42.952  1.00  0.00     0.194 HD
HETATM    4  C1  UNL     1      36.441  26.039 -41.169  1.00  0.00     0.342 A 
HETATM    5  O1  UNL     1      37.365  25.918 -40.303  1.00  0.00    -0.245 OA
HETATM    6  N4  UNL     1      35.143  26.301 -40.978  1.00  0.00    -0.281 N 
ATOM      7  H4  UNL     1      34.683  26.448 -40.080  1.00  0.00     0.173 HD
HETATM    8  C2  UNL     1      34.557  26.335 -42.188  1.00  0.00     0.217 A 
HETATM    9  S1  UNL     1      32.970  26.620 -42.503  1.00  0.00    -0.037 SA
ENDROOT
BRANCH   1  10
HETATM   10  N1  UNL     1      35.282  26.046 -44.530  1.00  0.00    -0.321 N 
ATOM     11  H12 UNL     1      35.927  25.675 -45.228  1.00  0.00     0.179 HD
ATOM     12  H11 UNL     1      34.456  26.377 -45.029  1.00  0.00     0.179 HD
ENDBRANCH   1  10
TORSDOF 1
ENDMDL
MODEL 2
REMARK VINA RESULT: -4.394067887      3.498      3.996
REMARK  1 active torsions:
REMARK  status: ('A' for Active; 'I' for Inactive)
REMARK    1  A    between atoms: N1_1  and  N2_4 
ROOT
HETATM    1  N2  UNL     1      34.806  27.203 -44.278  1.00  0.00    -0.171 N 
HETATM    2  N3  UNL     1      34.308  28.042 -45.174  1.00  0.00    -0.228 N 
ATOM      3  H3  UNL     1      34.213  27.854 -46.172  1.00  0.00     0.194 HD
HETATM    4  C1  UNL     1      33.944  29.186 -44.552  1.00  0.00     0.342 A 
HETATM    5  O1  UNL     1      33.431  30.185 -45.151  1.00  0.00    -0.245 OA
HETATM    6  N4  UNL     1      34.225  29.045 -43.251  1.00  0.00    -0.281 N 
ATOM      7  H4  UNL     1      34.065  29.737 -42.520  1.00  0.00     0.173 HD
HETATM    8  C2  UNL     1      34.757  27.820 -43.086  1.00  0.00     0.217 A 
HETATM    9  S1  UNL     1      35.273  27.156 -41.675  1.00  0.00    -0.037 SA
ENDROOT
BRANCH   1  10
HETATM   10  N1  UNL     1      35.297  25.899 -44.539  1.00  0.00    -0.321 N 
ATOM     11  H12 UNL     1      35.354  25.438 -45.447  1.00  0.00     0.179 HD
ATOM     12  H11 UNL     1      35.661  25.245 -43.846  1.00  0.00     0.179 HD
ENDBRANCH   1  10
TORSDOF 1
ENDMDL
MODEL 3
REMARK VINA RESULT: -4.351456075      1.473      1.473
REMARK  1 active torsions:
REMARK  status: ('A' for Active; 'I' for Inactive)
REMARK    1  A    between atoms: N1_1  and  N2_4 
ROOT
HETATM    1  N2  UNL     1      35.410  26.422 -43.637  1.00  0.00    -0.171 N 
HETATM    2  N3  UNL     1      35.986  25.705 -42.684  1.00  0.00    -0.228 N 
ATOM      3  H3  UNL     1      36.286  24.734 -42.773  1.00  0.00     0.194 HD
HETATM    4  C1  UNL     1      36.111  26.467 -41.573  1.00  0.00     0.342 A 
HETATM    5  O1  UNL     1      36.629  26.054 -40.487  1.00  0.00    -0.245 OA
HETATM    6  N4  UNL     1      35.602  27.673 -41.853  1.00  0.00    -0.281 N 
ATOM      7  H4  UNL     1      35.552  28.469 -41.218  1.00  0.00     0.173 HD
HETATM    8  C2  UNL     1      35.170  27.641 -43.127  1.00  0.00     0.217 A 
HETATM    9  S1  UNL     1      34.464  28.871 -43.955  1.00  0.00    -0.037 SA
ENDROOT
BRANCH   1  10
HETATM   10  N1  UNL     1      35.107  25.976 -44.948  1.00  0.00    -0.321 N 
ATOM     11  H12 UNL     1      35.601  25.258 -45.478  1.00  0.00     0.179 HD
ATOM     12  H11 UNL     1      34.349  26.318 -45.539  1.00  0.00     0.179 HD
ENDBRANCH   1  10
TORSDOF 1
ENDMDL
MODEL 4
REMARK VINA RESULT: -4.266076359      2.786      2.855
REMARK  1 active torsions:
REMARK  status: ('A' for Active; 'I' for Inactive)
REMARK    1  A    between atoms: N1_1  and  N2_4 
ROOT
HETATM    1  N2  UNL     1      34.341  26.265 -43.835  1.00  0.00    -0.171 N 
HETATM    2  N3  UNL     1      33.995  25.333 -42.960  1.00  0.00    -0.228 N 
ATOM      3  H3  UNL     1      34.333  24.370 -42.957  1.00  0.00     0.194 HD
HETATM    4  C1  UNL     1      33.122  25.862 -42.074  1.00  0.00     0.342 A 
HETATM    5  O1  UNL     1      32.608  25.208 -41.110  1.00  0.00    -0.245 OA
HETATM    6  N4  UNL     1      32.930  27.143 -42.411  1.00  0.00    -0.281 N 
ATOM      7  H4  UNL     1      32.325  27.810 -41.933  1.00  0.00     0.173 HD
HETATM    8  C2  UNL     1      33.684  27.388 -43.499  1.00  0.00     0.217 A 
HETATM    9  S1  UNL     1      33.805  28.812 -44.308  1.00  0.00    -0.037 SA
ENDROOT
BRANCH   1  10
HETATM   10  N1  UNL     1      35.238  26.101 -44.920  1.00  0.00    -0.321 N 
ATOM     11  H12 UNL     1      35.175  26.542 -45.837  1.00  0.00     0.179 HD
ATOM     12  H11 UNL     1      36.073  25.514 -44.925  1.00  0.00     0.179 HD
ENDBRANCH   1  10
TORSDOF 1
ENDMDL
MODEL 5
REMARK VINA RESULT: -4.230689345      2.965      3.371
REMARK  1 active torsions:
REMARK  status: ('A' for Active; 'I' for Inactive)
REMARK    1  A    between atoms: N1_1  and  N2_4 
ROOT
HETATM    1  N2  UNL     1      35.098  26.357 -43.533  1.00  0.00    -0.171 N 
HETATM    2  N3  UNL     1      34.810  27.086 -44.600  1.00  0.00    -0.228 N 
ATOM      3  H3  UNL     1      34.675  26.725 -45.545  1.00  0.00     0.194 HD
HETATM    4  C1  UNL     1      34.724  28.386 -44.236  1.00  0.00     0.342 A 
HETATM    5  O1  UNL     1      34.458  29.331 -45.046  1.00  0.00    -0.245 OA
HETATM    6  N4  UNL     1      34.963  28.452 -42.921  1.00  0.00    -0.281 N 
ATOM      7  H4  UNL     1      34.969  29.297 -42.350  1.00  0.00     0.173 HD
HETATM    8  C2  UNL     1      35.195  27.199 -42.491  1.00  0.00     0.217 A 
HETATM    9  S1  UNL     1      35.539  26.737 -40.953  1.00  0.00    -0.037 SA
ENDROOT
BRANCH   1  10
HETATM   10  N1  UNL     1      35.271  24.950 -43.506  1.00  0.00    -0.321 N 
ATOM     11  H12 UNL     1      35.775  24.384 -44.188  1.00  0.00     0.179 HD
ATOM     12  H11 UNL     1      34.912  24.314 -42.794  1.00  0.00     0.179 HD
ENDBRANCH   1  10
TORSDOF 1
ENDMDL
