MODEL 1
REMARK VINA RESULT: -5.621767322      0.000      0.000
REMARK  4 active torsions:
REMARK  status: ('A' for Active; 'I' for Inactive)
REMARK    1  A    between atoms: N1_1  and  C1_4 
REMARK    2  A    between atoms: N5_12  and  C3_13 
REMARK    3  A    between atoms: C3_13  and  C4_14 
REMARK    4  A    between atoms: C4_14  and  N6_15 
ROOT
HETATM    1  C1  UNL     1      10.854   3.587  22.819  1.00  0.00     0.679 A 
HETATM    2  N2  UNL     1       9.630   4.040  22.498  1.00  0.00    -0.172 N 
ATOM      3  H2  UNL     1       9.143   4.800  22.973  1.00  0.00     0.186 HD
HETATM    4  C2  UNL     1       9.140   3.339  21.453  1.00  0.00     0.183 A 
HETATM    5  N3  UNL     1       8.120   3.161  20.606  1.00  0.00    -0.267 N 
ATOM      6  H3  UNL     1       7.249   3.692  20.595  1.00  0.00     0.190 HD
HETATM    7  N4  UNL     1       8.443   2.168  19.781  1.00  0.00    -0.237 N 
ATOM      8  H4  UNL     1       7.844   1.821  19.032  1.00  0.00     0.208 HD
HETATM    9  N5  UNL     1       9.627   1.698  20.059  1.00  0.00    -0.257 N 
HETATM   10  C5  UNL     1      10.093   2.409  21.101  1.00  0.00     0.185 A 
HETATM   11  N7  UNL     1      11.110   2.593  21.951  1.00  0.00    -0.172 N 
ATOM     12  H7  UNL     1      11.971   2.047  21.942  1.00  0.00     0.186 HD
ENDROOT
BRANCH   9  13
HETATM   13  C3  UNL     1      10.338   0.622  19.400  1.00  0.00     0.179 C 
BRANCH  13  14
HETATM   14  C4  UNL     1       9.496  -0.033  18.330  1.00  0.00     0.251 C 
BRANCH  14  15
HETATM   15  N6  UNL     1       9.746  -1.478  18.447  1.00  0.00    -0.078 N 
ATOM     16  H63 UNL     1      10.696  -1.750  18.190  1.00  0.00     0.274 HD
ATOM     17  H62 UNL     1       9.780  -1.809  19.411  1.00  0.00     0.274 HD
ATOM     18  H61 UNL     1       9.026  -1.933  17.885  1.00  0.00     0.274 HD
ENDBRANCH  14  15
ENDBRANCH  13  14
ENDBRANCH   9  13
BRANCH   1  19
HETATM   19  N1  UNL     1      11.657   3.994  23.762  1.00  0.00    -0.234 N 
ATOM     20  H12 UNL     1      11.517   4.821  24.343  1.00  0.00     0.174 HD
ATOM     21  H11 UNL     1      12.533   3.580  24.081  1.00  0.00     0.174 HD
ENDBRANCH   1  19
TORSDOF 4
ENDMDL
MODEL 2
REMARK VINA RESULT: -5.607194695      1.645      1.977
REMARK  4 active torsions:
REMARK  status: ('A' for Active; 'I' for Inactive)
REMARK    1  A    between atoms: N1_1  and  C1_4 
REMARK    2  A    between atoms: N5_12  and  C3_13 
REMARK    3  A    between atoms: C3_13  and  C4_14 
REMARK    4  A    between atoms: C4_14  and  N6_15 
ROOT
HETATM    1  C1  UNL     1      12.194   3.405  20.896  1.00  0.00     0.679 A 
HETATM    2  N2  UNL     1      11.633   3.403  22.117  1.00  0.00    -0.172 N 
ATOM      3  H2  UNL     1      12.011   3.879  22.936  1.00  0.00     0.186 HD
HETATM    4  C2  UNL     1      10.496   2.676  22.100  1.00  0.00     0.183 A 
HETATM    5  N3  UNL     1       9.452   2.216  22.799  1.00  0.00    -0.267 N 
ATOM      6  H3  UNL     1       9.270   2.386  23.787  1.00  0.00     0.190 HD
HETATM    7  N4  UNL     1       8.694   1.497  21.974  1.00  0.00    -0.237 N 
ATOM      8  H4  UNL     1       7.830   1.028  22.245  1.00  0.00     0.208 HD
HETATM    9  N5  UNL     1       9.203   1.473  20.774  1.00  0.00    -0.257 N 
HETATM   10  C5  UNL     1      10.333   2.201  20.816  1.00  0.00     0.185 A 
HETATM   11  N7  UNL     1      11.380   2.665  20.124  1.00  0.00    -0.172 N 
ATOM     12  H7  UNL     1      11.540   2.479  19.134  1.00  0.00     0.186 HD
ENDROOT
BRANCH   9  13
HETATM   13  C3  UNL     1       8.687   0.805  19.597  1.00  0.00     0.179 C 
BRANCH  13  14
HETATM   14  C4  UNL     1       9.749  -0.022  18.912  1.00  0.00     0.251 C 
BRANCH  14  15
HETATM   15  N6  UNL     1       9.115  -1.312  18.596  1.00  0.00    -0.078 N 
ATOM     16  H63 UNL     1       9.654  -1.882  17.944  1.00  0.00     0.274 HD
ATOM     17  H62 UNL     1       9.124  -1.972  19.373  1.00  0.00     0.274 HD
ATOM     18  H61 UNL     1       8.177  -1.088  18.262  1.00  0.00     0.274 HD
ENDBRANCH  14  15
ENDBRANCH  13  14
ENDBRANCH   9  13
BRANCH   1  19
HETATM   19  N1  UNL     1      13.291   3.986  20.499  1.00  0.00    -0.234 N 
ATOM     20  H12 UNL     1      13.750   4.769  20.966  1.00  0.00     0.174 HD
ATOM     21  H11 UNL     1      13.870   3.777  19.686  1.00  0.00     0.174 HD
ENDBRANCH   1  19
TORSDOF 4
ENDMDL
MODEL 3
REMARK VINA RESULT: -5.589919930      1.822      2.345
REMARK  4 active torsions:
REMARK  status: ('A' for Active; 'I' for Inactive)
REMARK    1  A    between atoms: N1_1  and  C1_4 
REMARK    2  A    between atoms: N5_12  and  C3_13 
REMARK    3  A    between atoms: C3_13  and  C4_14 
REMARK    4  A    between atoms: C4_14  and  N6_15 
ROOT
HETATM    1  C1  UNL     1      10.960   3.406  22.811  1.00  0.00     0.679 A 
HETATM    2  N2  UNL     1       9.952   2.517  22.835  1.00  0.00    -0.172 N 
ATOM      3  H2  UNL     1       9.488   2.180  23.678  1.00  0.00     0.186 HD
HETATM    4  C2  UNL     1       9.647   2.134  21.577  1.00  0.00     0.183 A 
HETATM    5  N3  UNL     1       8.868   1.376  20.796  1.00  0.00    -0.267 N 
ATOM      6  H3  UNL     1       8.129   0.749  21.113  1.00  0.00     0.190 HD
HETATM    7  N4  UNL     1       9.230   1.585  19.533  1.00  0.00    -0.237 N 
ATOM      8  H4  UNL     1       8.799   1.133  18.726  1.00  0.00     0.208 HD
HETATM    9  N5  UNL     1      10.208   2.445  19.464  1.00  0.00    -0.257 N 
HETATM   10  C5  UNL     1      10.495   2.810  20.726  1.00  0.00     0.185 A 
HETATM   11  N7  UNL     1      11.269   3.566  21.512  1.00  0.00    -0.172 N 
ATOM     12  H7  UNL     1      12.004   4.185  21.170  1.00  0.00     0.186 HD
ENDROOT
BRANCH   9  13
HETATM   13  C3  UNL     1      10.882   2.938  18.281  1.00  0.00     0.179 C 
BRANCH  13  14
HETATM   14  C4  UNL     1      12.205   2.244  18.060  1.00  0.00     0.251 C 
BRANCH  14  15
HETATM   15  N6  UNL     1      13.242   3.240  18.372  1.00  0.00    -0.078 N 
ATOM     16  H63 UNL     1      14.110   3.101  17.854  1.00  0.00     0.274 HD
ATOM     17  H62 UNL     1      13.032   4.171  18.013  1.00  0.00     0.274 HD
ATOM     18  H61 UNL     1      13.362   3.211  19.385  1.00  0.00     0.274 HD
ENDBRANCH  14  15
ENDBRANCH  13  14
ENDBRANCH   9  13
BRANCH   1  19
HETATM   19  N1  UNL     1      11.542   4.011  23.808  1.00  0.00    -0.234 N 
ATOM     20  H12 UNL     1      11.799   3.578  24.696  1.00  0.00     0.174 HD
ATOM     21  H11 UNL     1      11.838   4.984  23.883  1.00  0.00     0.174 HD
ENDBRANCH   1  19
TORSDOF 4
ENDMDL
MODEL 4
REMARK VINA RESULT: -5.524898199      1.486      1.568
REMARK  4 active torsions:
REMARK  status: ('A' for Active; 'I' for Inactive)
REMARK    1  A    between atoms: N1_1  and  C1_4 
REMARK    2  A    between atoms: N5_12  and  C3_13 
REMARK    3  A    between atoms: C3_13  and  C4_14 
REMARK    4  A    between atoms: C4_14  and  N6_15 
ROOT
HETATM    1  C1  UNL     1      10.861   3.232  22.660  1.00  0.00     0.679 A 
HETATM    2  N2  UNL     1       9.668   2.613  22.689  1.00  0.00    -0.172 N 
ATOM      3  H2  UNL     1       9.037   2.596  23.489  1.00  0.00     0.186 HD
HETATM    4  C2  UNL     1       9.431   2.016  21.502  1.00  0.00     0.183 A 
HETATM    5  N3  UNL     1       8.587   1.279  20.770  1.00  0.00    -0.267 N 
ATOM      6  H3  UNL     1       7.683   0.921  21.075  1.00  0.00     0.190 HD
HETATM    7  N4  UNL     1       9.139   1.097  19.573  1.00  0.00    -0.237 N 
ATOM      8  H4  UNL     1       8.710   0.569  18.813  1.00  0.00     0.208 HD
HETATM    9  N5  UNL     1      10.301   1.683  19.501  1.00  0.00    -0.257 N 
HETATM   10  C5  UNL     1      10.516   2.269  20.692  1.00  0.00     0.185 A 
HETATM   11  N7  UNL     1      11.354   3.005  21.430  1.00  0.00    -0.172 N 
ATOM     12  H7  UNL     1      12.256   3.351  21.101  1.00  0.00     0.186 HD
ENDROOT
BRANCH   9  13
HETATM   13  C3  UNL     1      11.215   1.722  18.377  1.00  0.00     0.179 C 
BRANCH  13  14
HETATM   14  C4  UNL     1      11.345   0.370  17.714  1.00  0.00     0.251 C 
BRANCH  14  15
HETATM   15  N6  UNL     1      11.212   0.614  16.270  1.00  0.00    -0.078 N 
ATOM     16  H63 UNL     1      10.662   1.444  16.046  1.00  0.00     0.274 HD
ATOM     17  H62 UNL     1      12.078   0.917  15.826  1.00  0.00     0.274 HD
ATOM     18  H61 UNL     1      10.830  -0.246  15.875  1.00  0.00     0.274 HD
ENDBRANCH  14  15
ENDBRANCH  13  14
ENDBRANCH   9  13
BRANCH   1  19
HETATM   19  N1  UNL     1      11.451   3.917  23.598  1.00  0.00    -0.234 N 
ATOM     20  H12 UNL     1      11.004   4.271  24.445  1.00  0.00     0.174 HD
ATOM     21  H11 UNL     1      12.426   4.213  23.660  1.00  0.00     0.174 HD
ENDBRANCH   1  19
TORSDOF 4
ENDMDL
MODEL 5
REMARK VINA RESULT: -5.506847216      1.776      3.565
REMARK  4 active torsions:
REMARK  status: ('A' for Active; 'I' for Inactive)
REMARK    1  A    between atoms: N1_1  and  C1_4 
REMARK    2  A    between atoms: N5_12  and  C3_13 
REMARK    3  A    between atoms: C3_13  and  C4_14 
REMARK    4  A    between atoms: C4_14  and  N6_15 
ROOT
HETATM    1  C1  UNL     1      10.547   3.384  22.731  1.00  0.00     0.679 A 
HETATM    2  N2  UNL     1      10.412   2.087  22.405  1.00  0.00    -0.172 N 
ATOM      3  H2  UNL     1      10.959   1.323  22.801  1.00  0.00     0.186 HD
HETATM    4  C2  UNL     1       9.444   1.945  21.475  1.00  0.00     0.183 A 
HETATM    5  N3  UNL     1       8.755   1.101  20.698  1.00  0.00    -0.267 N 
ATOM      6  H3  UNL     1       8.875   0.090  20.655  1.00  0.00     0.190 HD
HETATM    7  N4  UNL     1       7.884   1.817  19.991  1.00  0.00    -0.237 N 
ATOM      8  H4  UNL     1       7.227   1.426  19.316  1.00  0.00     0.208 HD
HETATM    9  N5  UNL     1       7.981   3.086  20.278  1.00  0.00    -0.257 N 
HETATM   10  C5  UNL     1       8.949   3.202  21.204  1.00  0.00     0.185 A 
HETATM   11  N7  UNL     1       9.643   4.039  21.983  1.00  0.00    -0.172 N 
ATOM     12  H7  UNL     1       9.504   5.050  22.007  1.00  0.00     0.186 HD
ENDROOT
BRANCH   9  13
HETATM   13  C3  UNL     1       7.217   4.187  19.729  1.00  0.00     0.179 C 
BRANCH  13  14
HETATM   14  C4  UNL     1       5.881   4.340  20.419  1.00  0.00     0.251 C 
BRANCH  14  15
HETATM   15  N6  UNL     1       6.026   5.486  21.330  1.00  0.00    -0.078 N 
ATOM     16  H63 UNL     1       5.515   6.315  21.026  1.00  0.00     0.274 HD
ATOM     17  H62 UNL     1       5.543   5.363  22.220  1.00  0.00     0.274 HD
ATOM     18  H61 UNL     1       7.030   5.640  21.429  1.00  0.00     0.274 HD
ENDBRANCH  14  15
ENDBRANCH  13  14
ENDBRANCH   9  13
BRANCH   1  19
HETATM   19  N1  UNL     1      11.366   3.933  23.584  1.00  0.00    -0.234 N 
ATOM     20  H12 UNL     1      11.548   3.598  24.530  1.00  0.00     0.174 HD
ATOM     21  H11 UNL     1      11.950   4.761  23.470  1.00  0.00     0.174 HD
ENDBRANCH   1  19
TORSDOF 4
ENDMDL
