MODEL 1
REMARK VINA RESULT: -6.972349670      0.000      0.000
REMARK  6 active torsions:
REMARK  status: ('A' for Active; 'I' for Inactive)
REMARK    1  A    between atoms: N3_8  and  C3_10 
REMARK    2  A    between atoms: C3_10  and  C4_11 
REMARK    3  A    between atoms: C4_11  and  C5_12 
REMARK    4  A    between atoms: C5_12  and  O1_13 
REMARK    5  A    between atoms: O1_13  and  N4_14 
REMARK    6  A    between atoms: C8_22  and  C9_23 
ROOT
HETATM    1  N1  UNL     1      41.413  49.204  48.503  1.00  0.00    -0.234 N 
ATOM      2  H11 UNL     1      40.600  49.012  49.088  1.00  0.00     0.174 HD
ATOM      3  H12 UNL     1      41.414  48.821  47.558  1.00  0.00     0.174 HD
HETATM    4  C1  UNL     1      42.420  49.915  48.949  1.00  0.00     0.692 A 
HETATM    5  N2  UNL     1      43.555  50.182  48.134  1.00  0.00    -0.023 N 
ATOM      6  H2  UNL     1      43.571  49.806  47.186  1.00  0.00     0.203 HD
HETATM    7  C2  UNL     1      44.671  50.950  48.577  1.00  0.00     0.694 A 
HETATM    8  N3  UNL     1      45.689  51.189  47.846  1.00  0.00    -0.225 N 
ATOM      9  H3  UNL     1      45.723  50.821  46.896  1.00  0.00     0.177 HD
HETATM   10  N7  UNL     1      44.606  51.455  49.906  1.00  0.00    -0.169 N 
ATOM     11  H7  UNL     1      45.390  52.009  50.250  1.00  0.00     0.186 HD
HETATM   12  C8  UNL     1      43.508  51.232  50.780  1.00  0.00     0.212 A 
HETATM   13  N8  UNL     1      42.419  50.449  50.264  1.00  0.00    -0.169 N 
ATOM     14  H8  UNL     1      41.614  50.270  50.866  1.00  0.00     0.186 HD
ENDROOT
BRANCH   8  15
HETATM   15  C3  UNL     1      46.777  51.963  48.340  1.00  0.00     0.140 C 
BRANCH  15  16
HETATM   16  C4  UNL     1      47.766  52.366  47.273  1.00  0.00     0.049 C 
BRANCH  16  17
HETATM   17  C5  UNL     1      47.413  53.638  46.584  1.00  0.00     0.203 C 
BRANCH  17  18
HETATM   18  O1  UNL     1      46.720  53.317  45.416  1.00  0.00    -0.270 OA
BRANCH  18  19
HETATM   19  N4  UNL     1      45.396  53.667  45.523  1.00  0.00    -0.188 N 
HETATM   20  C6  UNL     1      44.698  54.872  45.781  1.00  0.00     0.219 A 
HETATM   21  N5  UNL     1      43.531  54.095  45.661  1.00  0.00    -0.323 N 
HETATM   22  C7  UNL     1      44.156  53.036  45.434  1.00  0.00     0.221 A 
ATOM     23  H5  UNL     1      42.538  54.316  45.733  1.00  0.00     0.169 HD
HETATM   24  N6  UNL     1      43.778  51.664  45.175  1.00  0.00    -0.061 NA
ENDBRANCH  18  19
ENDBRANCH  17  18
ENDBRANCH  16  17
ENDBRANCH  15  16
ENDBRANCH   8  15
BRANCH  12  25
HETATM   25  C9  UNL     1      43.483  51.718  52.008  1.00  0.00     0.246 C 
HETATM   26  O2  UNL     1      42.834  50.980  52.985  1.00  0.00    -0.642 OA
HETATM   27  O3  UNL     1      44.064  52.905  52.352  1.00  0.00    -0.642 OA
ENDBRANCH  12  25
TORSDOF 6
ENDMDL
MODEL 2
REMARK VINA RESULT: -6.929487497      2.692      4.519
REMARK  6 active torsions:
REMARK  status: ('A' for Active; 'I' for Inactive)
REMARK    1  A    between atoms: N3_8  and  C3_10 
REMARK    2  A    between atoms: C3_10  and  C4_11 
REMARK    3  A    between atoms: C4_11  and  C5_12 
REMARK    4  A    between atoms: C5_12  and  O1_13 
REMARK    5  A    between atoms: O1_13  and  N4_14 
REMARK    6  A    between atoms: C8_22  and  C9_23 
ROOT
HETATM    1  N1  UNL     1      40.771  50.902  50.154  1.00  0.00    -0.234 N 
ATOM      2  H11 UNL     1      40.014  51.527  49.876  1.00  0.00     0.174 HD
ATOM      3  H12 UNL     1      40.637  50.350  51.001  1.00  0.00     0.174 HD
HETATM    4  C1  UNL     1      41.873  50.812  49.452  1.00  0.00     0.692 A 
HETATM    5  N2  UNL     1      42.928  49.941  49.839  1.00  0.00    -0.023 N 
ATOM      6  H2  UNL     1      42.810  49.382  50.684  1.00  0.00     0.203 HD
HETATM    7  C2  UNL     1      44.143  49.811  49.105  1.00  0.00     0.694 A 
HETATM    8  N3  UNL     1      45.090  49.030  49.454  1.00  0.00    -0.225 N 
ATOM      9  H3  UNL     1      44.990  48.463  50.296  1.00  0.00     0.177 HD
HETATM   10  N7  UNL     1      44.265  50.610  47.934  1.00  0.00    -0.169 N 
ATOM     11  H7  UNL     1      45.124  50.538  47.388  1.00  0.00     0.186 HD
HETATM   12  C8  UNL     1      43.256  51.502  47.482  1.00  0.00     0.212 A 
HETATM   13  N8  UNL     1      42.059  51.580  48.272  1.00  0.00    -0.169 N 
ATOM     14  H8  UNL     1      41.314  52.212  47.975  1.00  0.00     0.186 HD
ENDROOT
BRANCH   8  15
HETATM   15  C3  UNL     1      46.284  48.939  48.683  1.00  0.00     0.140 C 
BRANCH  15  16
HETATM   16  C4  UNL     1      47.544  49.033  49.508  1.00  0.00     0.049 C 
BRANCH  16  17
HETATM   17  C5  UNL     1      47.928  50.431  49.849  1.00  0.00     0.203 C 
BRANCH  17  18
HETATM   18  O1  UNL     1      47.116  50.855  50.902  1.00  0.00    -0.270 OA
BRANCH  18  19
HETATM   19  N4  UNL     1      46.402  51.974  50.547  1.00  0.00    -0.188 N 
HETATM   20  C6  UNL     1      46.591  53.028  49.620  1.00  0.00     0.219 A 
HETATM   21  N5  UNL     1      45.361  53.520  50.094  1.00  0.00    -0.323 N 
HETATM   22  C7  UNL     1      45.203  52.585  50.910  1.00  0.00     0.221 A 
ATOM     23  H5  UNL     1      44.803  54.341  49.859  1.00  0.00     0.169 HD
HETATM   24  N6  UNL     1      44.185  52.235  51.876  1.00  0.00    -0.061 NA
ENDBRANCH  18  19
ENDBRANCH  17  18
ENDBRANCH  16  17
ENDBRANCH  15  16
ENDBRANCH   8  15
BRANCH  12  25
HETATM   25  C9  UNL     1      43.406  52.228  46.388  1.00  0.00     0.246 C 
HETATM   26  O2  UNL     1      42.844  53.495  46.369  1.00  0.00    -0.642 OA
HETATM   27  O3  UNL     1      44.082  51.787  45.287  1.00  0.00    -0.642 OA
ENDBRANCH  12  25
TORSDOF 6
ENDMDL
MODEL 3
REMARK VINA RESULT: -6.923722827      2.638      4.055
REMARK  6 active torsions:
REMARK  status: ('A' for Active; 'I' for Inactive)
REMARK    1  A    between atoms: N3_8  and  C3_10 
REMARK    2  A    between atoms: C3_10  and  C4_11 
REMARK    3  A    between atoms: C4_11  and  C5_12 
REMARK    4  A    between atoms: C5_12  and  O1_13 
REMARK    5  A    between atoms: O1_13  and  N4_14 
REMARK    6  A    between atoms: C8_22  and  C9_23 
ROOT
HETATM    1  N1  UNL     1      41.770  49.323  48.546  1.00  0.00    -0.234 N 
ATOM      2  H11 UNL     1      40.971  48.876  48.996  1.00  0.00     0.174 HD
ATOM      3  H12 UNL     1      41.933  49.113  47.561  1.00  0.00     0.174 HD
HETATM    4  C1  UNL     1      42.559  50.134  49.207  1.00  0.00     0.692 A 
HETATM    5  N2  UNL     1      43.674  50.756  48.580  1.00  0.00    -0.023 N 
ATOM      6  H2  UNL     1      43.850  50.557  47.595  1.00  0.00     0.203 HD
HETATM    7  C2  UNL     1      44.557  51.645  49.260  1.00  0.00     0.694 A 
HETATM    8  N3  UNL     1      45.557  52.202  48.696  1.00  0.00    -0.225 N 
ATOM      9  H3  UNL     1      45.749  52.014  47.713  1.00  0.00     0.177 HD
HETATM   10  N7  UNL     1      44.273  51.895  50.631  1.00  0.00    -0.169 N 
ATOM     11  H7  UNL     1      44.888  52.527  51.143  1.00  0.00     0.186 HD
HETATM   12  C8  UNL     1      43.180  51.312  51.327  1.00  0.00     0.212 A 
HETATM   13  N8  UNL     1      42.332  50.427  50.578  1.00  0.00    -0.169 N 
ATOM     14  H8  UNL     1      41.538  49.992  51.048  1.00  0.00     0.186 HD
ENDROOT
BRANCH   8  15
HETATM   15  C3  UNL     1      46.408  53.083  49.423  1.00  0.00     0.140 C 
BRANCH  15  16
HETATM   16  C4  UNL     1      47.825  52.580  49.557  1.00  0.00     0.049 C 
BRANCH  16  17
HETATM   17  C5  UNL     1      48.076  51.841  50.826  1.00  0.00     0.203 C 
BRANCH  17  18
HETATM   18  O1  UNL     1      47.158  50.792  50.901  1.00  0.00    -0.270 OA
BRANCH  18  19
HETATM   19  N4  UNL     1      47.651  49.669  50.281  1.00  0.00    -0.188 N 
HETATM   20  C6  UNL     1      48.627  48.695  50.605  1.00  0.00     0.219 A 
HETATM   21  N5  UNL     1      48.299  48.111  49.368  1.00  0.00    -0.323 N 
HETATM   22  C7  UNL     1      47.438  48.975  49.090  1.00  0.00     0.221 A 
ATOM     23  H5  UNL     1      48.639  47.285  48.876  1.00  0.00     0.169 HD
HETATM   24  N6  UNL     1      46.545  49.206  47.976  1.00  0.00    -0.061 NA
ENDBRANCH  18  19
ENDBRANCH  17  18
ENDBRANCH  16  17
ENDBRANCH  15  16
ENDBRANCH   8  15
BRANCH  12  25
HETATM   25  C9  UNL     1      42.949  51.569  52.602  1.00  0.00     0.246 C 
HETATM   26  O2  UNL     1      42.581  50.511  53.420  1.00  0.00    -0.642 OA
HETATM   27  O3  UNL     1      43.054  52.818  53.143  1.00  0.00    -0.642 OA
ENDBRANCH  12  25
TORSDOF 6
ENDMDL
MODEL 4
REMARK VINA RESULT: -6.909253977      2.915      4.931
REMARK  6 active torsions:
REMARK  status: ('A' for Active; 'I' for Inactive)
REMARK    1  A    between atoms: N3_8  and  C3_10 
REMARK    2  A    between atoms: C3_10  and  C4_11 
REMARK    3  A    between atoms: C4_11  and  C5_12 
REMARK    4  A    between atoms: C5_12  and  O1_13 
REMARK    5  A    between atoms: O1_13  and  N4_14 
REMARK    6  A    between atoms: C8_22  and  C9_23 
ROOT
HETATM    1  N1  UNL     1      40.787  50.894  50.131  1.00  0.00    -0.234 N 
ATOM      2  H11 UNL     1      40.000  51.492  49.878  1.00  0.00     0.174 HD
ATOM      3  H12 UNL     1      40.702  50.342  50.984  1.00  0.00     0.174 HD
HETATM    4  C1  UNL     1      41.865  50.837  49.390  1.00  0.00     0.692 A 
HETATM    5  N2  UNL     1      42.963  50.004  49.742  1.00  0.00    -0.023 N 
ATOM      6  H2  UNL     1      42.894  49.445  50.593  1.00  0.00     0.203 HD
HETATM    7  C2  UNL     1      44.154  49.911  48.965  1.00  0.00     0.694 A 
HETATM    8  N3  UNL     1      45.138  49.163  49.283  1.00  0.00    -0.225 N 
ATOM      9  H3  UNL     1      45.088  48.598  50.130  1.00  0.00     0.177 HD
HETATM   10  N7  UNL     1      44.207  50.707  47.787  1.00  0.00    -0.169 N 
ATOM     11  H7  UNL     1      45.048  50.662  47.212  1.00  0.00     0.186 HD
HETATM   12  C8  UNL     1      43.153  51.564  47.369  1.00  0.00     0.212 A 
HETATM   13  N8  UNL     1      41.983  51.605  48.201  1.00  0.00    -0.169 N 
ATOM     14  H8  UNL     1      41.207  52.210  47.928  1.00  0.00     0.186 HD
ENDROOT
BRANCH   8  15
HETATM   15  C3  UNL     1      46.306  49.109  48.470  1.00  0.00     0.140 C 
BRANCH  15  16
HETATM   16  C4  UNL     1      47.451  48.357  49.106  1.00  0.00     0.049 C 
BRANCH  16  17
HETATM   17  C5  UNL     1      48.307  49.207  49.980  1.00  0.00     0.203 C 
BRANCH  17  18
HETATM   18  O1  UNL     1      47.471  49.910  50.847  1.00  0.00    -0.270 OA
BRANCH  18  19
HETATM   19  N4  UNL     1      47.808  51.242  50.877  1.00  0.00    -0.188 N 
HETATM   20  C6  UNL     1      48.733  52.023  51.613  1.00  0.00     0.219 A 
HETATM   21  N5  UNL     1      48.236  53.112  50.873  1.00  0.00    -0.323 N 
HETATM   22  C7  UNL     1      47.423  52.415  50.228  1.00  0.00     0.221 A 
ATOM     23  H5  UNL     1      48.458  54.108  50.866  1.00  0.00     0.169 HD
HETATM   24  N6  UNL     1      46.441  52.680  49.200  1.00  0.00    -0.061 NA
ENDBRANCH  18  19
ENDBRANCH  17  18
ENDBRANCH  16  17
ENDBRANCH  15  16
ENDBRANCH   8  15
BRANCH  12  25
HETATM   25  C9  UNL     1      43.239  52.288  46.268  1.00  0.00     0.246 C 
HETATM   26  O2  UNL     1      43.779  51.691  45.139  1.00  0.00    -0.642 OA
HETATM   27  O3  UNL     1      42.824  53.587  46.195  1.00  0.00    -0.642 OA
ENDBRANCH  12  25
TORSDOF 6
ENDMDL
MODEL 5
REMARK VINA RESULT: -6.897577214      2.897      3.734
REMARK  6 active torsions:
REMARK  status: ('A' for Active; 'I' for Inactive)
REMARK    1  A    between atoms: N3_8  and  C3_10 
REMARK    2  A    between atoms: C3_10  and  C4_11 
REMARK    3  A    between atoms: C4_11  and  C5_12 
REMARK    4  A    between atoms: C5_12  and  O1_13 
REMARK    5  A    between atoms: O1_13  and  N4_14 
REMARK    6  A    between atoms: C8_22  and  C9_23 
ROOT
HETATM    1  N1  UNL     1      40.877  50.936  50.229  1.00  0.00    -0.234 N 
ATOM      2  H11 UNL     1      40.092  51.542  49.993  1.00  0.00     0.174 HD
ATOM      3  H12 UNL     1      40.810  50.394  51.091  1.00  0.00     0.174 HD
HETATM    4  C1  UNL     1      41.933  50.856  49.458  1.00  0.00     0.692 A 
HETATM    5  N2  UNL     1      43.029  50.012  49.788  1.00  0.00    -0.023 N 
ATOM      6  H2  UNL     1      42.977  49.464  50.646  1.00  0.00     0.203 HD
HETATM    7  C2  UNL     1      44.196  49.894  48.978  1.00  0.00     0.694 A 
HETATM    8  N3  UNL     1      45.179  49.137  49.275  1.00  0.00    -0.225 N 
ATOM      9  H3  UNL     1      45.146  48.582  50.130  1.00  0.00     0.177 HD
HETATM   10  N7  UNL     1      44.225  50.677  47.790  1.00  0.00    -0.169 N 
ATOM     11  H7  UNL     1      45.048  50.613  47.191  1.00  0.00     0.186 HD
HETATM   12  C8  UNL     1      43.171  51.543  47.392  1.00  0.00     0.212 A 
HETATM   13  N8  UNL     1      42.026  51.610  48.258  1.00  0.00    -0.169 N 
ATOM     14  H8  UNL     1      41.251  52.222  48.001  1.00  0.00     0.186 HD
ENDROOT
BRANCH   8  15
HETATM   15  C3  UNL     1      46.321  49.057  48.429  1.00  0.00     0.140 C 
BRANCH  15  16
HETATM   16  C4  UNL     1      47.507  49.841  48.939  1.00  0.00     0.049 C 
BRANCH  16  17
HETATM   17  C5  UNL     1      48.015  50.849  47.967  1.00  0.00     0.203 C 
BRANCH  17  18
HETATM   18  O1  UNL     1      46.943  51.261  47.175  1.00  0.00    -0.270 OA
BRANCH  18  19
HETATM   19  N4  UNL     1      47.007  52.612  46.932  1.00  0.00    -0.188 N 
HETATM   20  C6  UNL     1      46.356  53.754  47.458  1.00  0.00     0.219 A 
HETATM   21  N5  UNL     1      47.140  54.487  46.548  1.00  0.00    -0.323 N 
HETATM   22  C7  UNL     1      47.709  53.472  46.089  1.00  0.00     0.221 A 
ATOM     23  H5  UNL     1      47.215  55.482  46.338  1.00  0.00     0.169 HD
HETATM   24  N6  UNL     1      48.713  53.236  45.075  1.00  0.00    -0.061 NA
ENDBRANCH  18  19
ENDBRANCH  17  18
ENDBRANCH  16  17
ENDBRANCH  15  16
ENDBRANCH   8  15
BRANCH  12  25
HETATM   25  C9  UNL     1      43.234  52.254  46.281  1.00  0.00     0.246 C 
HETATM   26  O2  UNL     1      43.838  51.676  45.175  1.00  0.00    -0.642 OA
HETATM   27  O3  UNL     1      42.737  53.521  46.177  1.00  0.00    -0.642 OA
ENDBRANCH  12  25
TORSDOF 6
ENDMDL
