MODEL 1
REMARK VINA RESULT: -5.922083489      0.000      0.000
REMARK  7 active torsions:
REMARK  status: ('A' for Active; 'I' for Inactive)
REMARK    1  A    between atoms: N2_3  and  C2_4 
REMARK    2  A    between atoms: N2_3  and  C5_9 
REMARK    3  A    between atoms: C2_4  and  C3_5 
REMARK    4  A    between atoms: C3_5  and  C4_6 
REMARK    5  A    between atoms: C4_6  and  O1_7 
REMARK    6  A    between atoms: C7_11  and  N3_12 
REMARK    7  A    between atoms: C8_17  and  N5_18 
ROOT
HETATM    1  N1  UNL     1      33.136  40.096 -10.857  1.00  0.00    -0.172 NA
HETATM    2  C1  UNL     1      33.318  41.217 -10.647  1.00  0.00     0.185 C 
HETATM    3  N2  UNL     1      33.521  42.591 -10.394  1.00  0.00    -0.270 N 
ENDROOT
BRANCH   3   4
HETATM    4  C2  UNL     1      34.352  42.933  -9.289  1.00  0.00     0.144 C 
BRANCH   4   5
HETATM    5  C3  UNL     1      33.785  42.486  -7.959  1.00  0.00     0.047 C 
BRANCH   5   6
HETATM    6  C4  UNL     1      34.925  42.325  -6.992  1.00  0.00     0.165 C 
BRANCH   6   7
HETATM    7  O1  UNL     1      36.155  42.650  -7.568  1.00  0.00    -0.401 OA
ATOM      8  H1  UNL     1      36.190  42.425  -8.490  1.00  0.00     0.209 HD
ENDBRANCH   6   7
ENDBRANCH   5   6
ENDBRANCH   4   5
ENDBRANCH   3   4
BRANCH   3   9
HETATM    9  C5  UNL     1      32.915  43.569 -11.215  1.00  0.00     0.135 A 
HETATM   10  C6  UNL     1      33.475  44.759 -11.604  1.00  0.00     0.098 A 
HETATM   11  C7  UNL     1      32.808  45.677 -12.417  1.00  0.00     0.118 A 
HETATM   12  N4  UNL     1      31.573  45.413 -12.848  1.00  0.00    -0.177 N 
HETATM   13  C8  UNL     1      31.003  44.247 -12.477  1.00  0.00     0.679 A 
ATOM     14  H4  UNL     1      31.074  46.074 -13.442  1.00  0.00     0.185 HD
HETATM   15  N6  UNL     1      31.647  43.373 -11.699  1.00  0.00    -0.176 N 
ATOM     16  H6  UNL     1      31.167  42.508 -11.449  1.00  0.00     0.186 HD
BRANCH  11  17
HETATM   17  N3  UNL     1      33.395  46.776 -12.744  1.00  0.00    -0.385 N 
ATOM     18  H32 UNL     1      33.331  47.597 -12.142  1.00  0.00     0.157 HD
ATOM     19  H31 UNL     1      33.925  46.821 -13.614  1.00  0.00     0.157 HD
ENDBRANCH  11  17
BRANCH  13  20
HETATM   20  N5  UNL     1      29.788  44.009 -12.913  1.00  0.00    -0.234 N 
ATOM     21  H52 UNL     1      29.553  44.086 -13.903  1.00  0.00     0.174 HD
ATOM     22  H51 UNL     1      29.088  43.744 -12.220  1.00  0.00     0.174 HD
ENDBRANCH  13  20
ENDBRANCH   3   9
TORSDOF 7
ENDMDL
MODEL 2
REMARK VINA RESULT: -5.794241339      5.318      7.634
REMARK  7 active torsions:
REMARK  status: ('A' for Active; 'I' for Inactive)
REMARK    1  A    between atoms: N2_3  and  C2_4 
REMARK    2  A    between atoms: N2_3  and  C5_9 
REMARK    3  A    between atoms: C2_4  and  C3_5 
REMARK    4  A    between atoms: C3_5  and  C4_6 
REMARK    5  A    between atoms: C4_6  and  O1_7 
REMARK    6  A    between atoms: C7_11  and  N3_12 
REMARK    7  A    between atoms: C8_17  and  N5_18 
ROOT
HETATM    1  N1  UNL     1      39.348  40.647  -3.697  1.00  0.00    -0.172 NA
HETATM    2  C1  UNL     1      38.369  41.241  -3.844  1.00  0.00     0.185 C 
HETATM    3  N2  UNL     1      37.161  41.950  -4.026  1.00  0.00    -0.270 N 
ENDROOT
BRANCH   3   4
HETATM    4  C2  UNL     1      36.882  43.005  -3.111  1.00  0.00     0.144 C 
BRANCH   4   5
HETATM    5  C3  UNL     1      37.014  42.585  -1.663  1.00  0.00     0.047 C 
BRANCH   5   6
HETATM    6  C4  UNL     1      35.636  42.318  -1.123  1.00  0.00     0.165 C 
BRANCH   6   7
HETATM    7  O1  UNL     1      35.031  41.221  -1.740  1.00  0.00    -0.401 OA
ATOM      8  H1  UNL     1      34.529  40.697  -1.127  1.00  0.00     0.209 HD
ENDBRANCH   6   7
ENDBRANCH   5   6
ENDBRANCH   4   5
ENDBRANCH   3   4
BRANCH   3   9
HETATM    9  C5  UNL     1      36.282  41.610  -5.079  1.00  0.00     0.135 A 
HETATM   10  C6  UNL     1      36.226  40.403  -5.728  1.00  0.00     0.098 A 
HETATM   11  C7  UNL     1      35.328  40.145  -6.765  1.00  0.00     0.118 A 
HETATM   12  N4  UNL     1      34.478  41.093  -7.164  1.00  0.00    -0.177 N 
HETATM   13  C8  UNL     1      34.516  42.289  -6.538  1.00  0.00     0.679 A 
ATOM     14  H4  UNL     1      33.816  40.919  -7.920  1.00  0.00     0.185 HD
HETATM   15  N6  UNL     1      35.378  42.529  -5.546  1.00  0.00    -0.176 N 
ATOM     16  H6  UNL     1      35.363  43.451  -5.111  1.00  0.00     0.186 HD
BRANCH  11  17
HETATM   17  N3  UNL     1      35.329  38.987  -7.330  1.00  0.00    -0.385 N 
ATOM     18  H32 UNL     1      36.137  38.370  -7.246  1.00  0.00     0.157 HD
ATOM     19  H31 UNL     1      34.513  38.691  -7.865  1.00  0.00     0.157 HD
ENDBRANCH  11  17
BRANCH  13  20
HETATM   20  N5  UNL     1      33.671  43.206  -6.948  1.00  0.00    -0.234 N 
ATOM     21  H52 UNL     1      32.975  43.005  -7.666  1.00  0.00     0.174 HD
ATOM     22  H51 UNL     1      33.740  44.128  -6.516  1.00  0.00     0.174 HD
ENDBRANCH  13  20
ENDBRANCH   3   9
TORSDOF 7
ENDMDL
MODEL 3
REMARK VINA RESULT: -5.779070592      8.046     10.711
REMARK  7 active torsions:
REMARK  status: ('A' for Active; 'I' for Inactive)
REMARK    1  A    between atoms: N2_3  and  C2_4 
REMARK    2  A    between atoms: N2_3  and  C5_9 
REMARK    3  A    between atoms: C2_4  and  C3_5 
REMARK    4  A    between atoms: C3_5  and  C4_6 
REMARK    5  A    between atoms: C4_6  and  O1_7 
REMARK    6  A    between atoms: C7_11  and  N3_12 
REMARK    7  A    between atoms: C8_17  and  N5_18 
ROOT
HETATM    1  N1  UNL     1      37.298  42.950  -5.461  1.00  0.00    -0.172 NA
HETATM    2  C1  UNL     1      37.574  42.453  -4.456  1.00  0.00     0.185 C 
HETATM    3  N2  UNL     1      37.930  41.837  -3.236  1.00  0.00    -0.270 N 
ENDROOT
BRANCH   3   4
HETATM    4  C2  UNL     1      37.847  42.632  -2.057  1.00  0.00     0.144 C 
BRANCH   4   5
HETATM    5  C3  UNL     1      36.465  43.202  -1.823  1.00  0.00     0.047 C 
BRANCH   5   6
HETATM    6  C4  UNL     1      35.674  42.206  -1.020  1.00  0.00     0.165 C 
BRANCH   6   7
HETATM    7  O1  UNL     1      35.057  41.249  -1.829  1.00  0.00    -0.401 OA
ATOM      8  H1  UNL     1      34.114  41.239  -1.716  1.00  0.00     0.209 HD
ENDBRANCH   6   7
ENDBRANCH   5   6
ENDBRANCH   4   5
ENDBRANCH   3   4
BRANCH   3   9
HETATM    9  C5  UNL     1      38.346  40.486  -3.209  1.00  0.00     0.135 A 
HETATM   10  C6  UNL     1      39.308  39.921  -4.006  1.00  0.00     0.098 A 
HETATM   11  C7  UNL     1      39.661  38.573  -3.920  1.00  0.00     0.118 A 
HETATM   12  N4  UNL     1      39.055  37.778  -3.037  1.00  0.00    -0.177 N 
HETATM   13  C8  UNL     1      38.104  38.315  -2.243  1.00  0.00     0.679 A 
ATOM     14  H4  UNL     1      39.302  36.792  -2.963  1.00  0.00     0.185 HD
HETATM   15  N6  UNL     1      37.770  39.605  -2.330  1.00  0.00    -0.176 N 
ATOM     16  H6  UNL     1      37.045  39.956  -1.705  1.00  0.00     0.186 HD
BRANCH  11  17
HETATM   17  N3  UNL     1      40.576  38.107  -4.700  1.00  0.00    -0.385 N 
ATOM     18  H32 UNL     1      40.444  38.108  -5.711  1.00  0.00     0.157 HD
ATOM     19  H31 UNL     1      41.435  37.736  -4.297  1.00  0.00     0.157 HD
ENDBRANCH  11  17
BRANCH  13  20
HETATM   20  N5  UNL     1      37.521  37.513  -1.382  1.00  0.00    -0.234 N 
ATOM     21  H52 UNL     1      38.044  37.076  -0.623  1.00  0.00     0.174 HD
ATOM     22  H51 UNL     1      36.521  37.347  -1.504  1.00  0.00     0.174 HD
ENDBRANCH  13  20
ENDBRANCH   3   9
TORSDOF 7
ENDMDL
MODEL 4
REMARK VINA RESULT: -5.729779075      6.962      9.972
REMARK  7 active torsions:
REMARK  status: ('A' for Active; 'I' for Inactive)
REMARK    1  A    between atoms: N2_3  and  C2_4 
REMARK    2  A    between atoms: N2_3  and  C5_9 
REMARK    3  A    between atoms: C2_4  and  C3_5 
REMARK    4  A    between atoms: C3_5  and  C4_6 
REMARK    5  A    between atoms: C4_6  and  O1_7 
REMARK    6  A    between atoms: C7_11  and  N3_12 
REMARK    7  A    between atoms: C8_17  and  N5_18 
ROOT
HETATM    1  N1  UNL     1      38.083  39.649  -4.799  1.00  0.00    -0.172 NA
HETATM    2  C1  UNL     1      37.574  40.640  -4.494  1.00  0.00     0.185 C 
HETATM    3  N2  UNL     1      36.968  41.857  -4.113  1.00  0.00    -0.270 N 
ENDROOT
BRANCH   3   4
HETATM    4  C2  UNL     1      36.230  42.557  -5.109  1.00  0.00     0.144 C 
BRANCH   4   5
HETATM    5  C3  UNL     1      35.540  41.636  -6.092  1.00  0.00     0.047 C 
BRANCH   5   6
HETATM    6  C4  UNL     1      34.789  42.482  -7.082  1.00  0.00     0.165 C 
BRANCH   6   7
HETATM    7  O1  UNL     1      35.608  42.928  -8.122  1.00  0.00    -0.401 OA
ATOM      8  H1  UNL     1      35.197  42.823  -8.972  1.00  0.00     0.209 HD
ENDBRANCH   6   7
ENDBRANCH   5   6
ENDBRANCH   4   5
ENDBRANCH   3   4
BRANCH   3   9
HETATM    9  C5  UNL     1      37.102  42.341  -2.791  1.00  0.00     0.135 A 
HETATM   10  C6  UNL     1      36.944  41.609  -1.642  1.00  0.00     0.098 A 
HETATM   11  C7  UNL     1      37.090  42.163  -0.369  1.00  0.00     0.118 A 
HETATM   12  N4  UNL     1      37.395  43.455  -0.234  1.00  0.00    -0.177 N 
HETATM   13  C8  UNL     1      37.554  44.194  -1.352  1.00  0.00     0.679 A 
ATOM     14  H4  UNL     1      37.504  43.873   0.690  1.00  0.00     0.185 HD
HETATM   15  N6  UNL     1      37.413  43.658  -2.568  1.00  0.00    -0.176 N 
ATOM     16  H6  UNL     1      37.545  44.264  -3.378  1.00  0.00     0.186 HD
BRANCH  11  17
HETATM   17  N3  UNL     1      36.928  41.417   0.668  1.00  0.00    -0.385 N 
ATOM     18  H32 UNL     1      36.089  41.503   1.243  1.00  0.00     0.157 HD
ATOM     19  H31 UNL     1      37.647  40.736   0.913  1.00  0.00     0.157 HD
ENDBRANCH  11  17
BRANCH  13  20
HETATM   20  N5  UNL     1      37.853  45.462  -1.194  1.00  0.00    -0.234 N 
ATOM     21  H52 UNL     1      38.821  45.775  -1.113  1.00  0.00     0.174 HD
ATOM     22  H51 UNL     1      37.076  46.122  -1.156  1.00  0.00     0.174 HD
ENDBRANCH  13  20
ENDBRANCH   3   9
TORSDOF 7
ENDMDL
MODEL 5
REMARK VINA RESULT: -5.707175095      5.292      7.659
REMARK  7 active torsions:
REMARK  status: ('A' for Active; 'I' for Inactive)
REMARK    1  A    between atoms: N2_3  and  C2_4 
REMARK    2  A    between atoms: N2_3  and  C5_9 
REMARK    3  A    between atoms: C2_4  and  C3_5 
REMARK    4  A    between atoms: C3_5  and  C4_6 
REMARK    5  A    between atoms: C4_6  and  O1_7 
REMARK    6  A    between atoms: C7_11  and  N3_12 
REMARK    7  A    between atoms: C8_17  and  N5_18 
ROOT
HETATM    1  N1  UNL     1      39.408  40.530  -3.691  1.00  0.00    -0.172 NA
HETATM    2  C1  UNL     1      38.452  41.165  -3.819  1.00  0.00     0.185 C 
HETATM    3  N2  UNL     1      37.272  41.924  -3.978  1.00  0.00    -0.270 N 
ENDROOT
BRANCH   3   4
HETATM    4  C2  UNL     1      37.039  42.969  -3.039  1.00  0.00     0.144 C 
BRANCH   4   5
HETATM    5  C3  UNL     1      37.045  42.488  -1.604  1.00  0.00     0.047 C 
BRANCH   5   6
HETATM    6  C4  UNL     1      35.619  42.319  -1.158  1.00  0.00     0.165 C 
BRANCH   6   7
HETATM    7  O1  UNL     1      35.015  41.200  -1.735  1.00  0.00    -0.401 OA
ATOM      8  H1  UNL     1      35.149  40.414  -1.218  1.00  0.00     0.209 HD
ENDBRANCH   6   7
ENDBRANCH   5   6
ENDBRANCH   4   5
ENDBRANCH   3   4
BRANCH   3   9
HETATM    9  C5  UNL     1      36.374  41.642  -5.033  1.00  0.00     0.135 A 
HETATM   10  C6  UNL     1      35.481  42.520  -5.592  1.00  0.00     0.098 A 
HETATM   11  C7  UNL     1      34.623  42.161  -6.633  1.00  0.00     0.118 A 
HETATM   12  N4  UNL     1      34.650  40.921  -7.124  1.00  0.00    -0.177 N 
HETATM   13  C8  UNL     1      35.521  40.041  -6.588  1.00  0.00     0.679 A 
ATOM     14  H4  UNL     1      34.028  40.646  -7.884  1.00  0.00     0.185 HD
HETATM   15  N6  UNL     1      36.340  40.390  -5.592  1.00  0.00    -0.176 N 
ATOM     16  H6  UNL     1      36.978  39.683  -5.225  1.00  0.00     0.186 HD
BRANCH  11  17
HETATM   17  N3  UNL     1      33.809  43.038  -7.112  1.00  0.00    -0.385 N 
ATOM     18  H32 UNL     1      33.949  43.417  -8.049  1.00  0.00     0.157 HD
ATOM     19  H31 UNL     1      33.020  43.350  -6.547  1.00  0.00     0.157 HD
ENDBRANCH  11  17
BRANCH  13  20
HETATM   20  N5  UNL     1      35.529  38.827  -7.087  1.00  0.00    -0.234 N 
ATOM     21  H52 UNL     1      36.402  38.321  -7.244  1.00  0.00     0.174 HD
ATOM     22  H51 UNL     1      34.625  38.410  -7.312  1.00  0.00     0.174 HD
ENDBRANCH  13  20
ENDBRANCH   3   9
TORSDOF 7
ENDMDL
