MODEL 1
REMARK VINA RESULT: -6.399160089      0.000      0.000
REMARK  7 active torsions:
REMARK  status: ('A' for Active; 'I' for Inactive)
REMARK    1  A    between atoms: N1_1  and  C1_4 
REMARK    2  A    between atoms: C2_7  and  C3_8 
REMARK    3  A    between atoms: C3_8  and  C4_9 
REMARK    4  A    between atoms: C4_9  and  C5_10 
REMARK    5  A    between atoms: C5_10  and  C6_11 
REMARK    6  A    between atoms: C6_11  and  N3_12 
REMARK    7  A    between atoms: C8_18  and  N6_19 
ROOT
HETATM    1  C4  UNL     1      33.140  42.758  -8.911  1.00  0.00     0.009 C 
ENDROOT
BRANCH   1   2
HETATM    2  C3  UNL     1      33.691  41.505  -8.343  1.00  0.00     0.078 C 
BRANCH   2   3
HETATM    3  C2  UNL     1      34.415  41.665  -7.069  1.00  0.00     0.112 A 
HETATM    4  N2  UNL     1      35.355  40.821  -6.547  1.00  0.00    -0.178 N 
HETATM    5  C1  UNL     1      35.820  41.321  -5.402  1.00  0.00     0.691 A 
ATOM      6  H2  UNL     1      35.656  39.943  -6.969  1.00  0.00     0.185 HD
HETATM    7  N8  UNL     1      35.189  42.485  -5.176  1.00  0.00    -0.131 N 
HETATM    8  N7  UNL     1      34.346  42.673  -6.193  1.00  0.00    -0.274 N 
ATOM      9  H8  UNL     1      35.326  43.106  -4.379  1.00  0.00     0.205 HD
ATOM     10  H7  UNL     1      33.730  43.481  -6.290  1.00  0.00     0.189 HD
BRANCH   5  11
HETATM   11  N1  UNL     1      36.734  40.763  -4.642  1.00  0.00    -0.233 N 
ATOM     12  H12 UNL     1      37.309  39.954  -4.875  1.00  0.00     0.174 HD
ATOM     13  H11 UNL     1      36.992  41.070  -3.704  1.00  0.00     0.174 HD
ENDBRANCH   5  11
ENDBRANCH   2   3
ENDBRANCH   1   2
BRANCH   1  14
HETATM   14  C5  UNL     1      34.034  43.345  -9.969  1.00  0.00     0.021 C 
BRANCH  14  15
HETATM   15  C6  UNL     1      33.554  42.952 -11.368  1.00  0.00     0.148 C 
BRANCH  15  16
HETATM   16  N3  UNL     1      33.066  44.198 -11.976  1.00  0.00    -0.177 N 
HETATM   17  C7  UNL     1      33.812  45.272 -12.306  1.00  0.00     0.218 A 
HETATM   18  N4  UNL     1      32.979  46.192 -12.833  1.00  0.00    -0.281 N 
HETATM   19  N5  UNL     1      31.738  45.738 -12.846  1.00  0.00    -0.131 N 
ATOM     20  H4  UNL     1      33.266  47.109 -13.174  1.00  0.00     0.188 HD
HETATM   21  C8  UNL     1      31.798  44.497 -12.311  1.00  0.00     0.693 A 
ATOM     22  H5  UNL     1      30.908  46.222 -13.187  1.00  0.00     0.205 HD
BRANCH  21  23
HETATM   23  N6  UNL     1      30.809  43.687 -12.132  1.00  0.00    -0.233 N 
ATOM     24  H62 UNL     1      30.257  43.580 -11.280  1.00  0.00     0.174 HD
ATOM     25  H61 UNL     1      30.470  43.050 -12.853  1.00  0.00     0.174 HD
ENDBRANCH  21  23
ENDBRANCH  15  16
ENDBRANCH  14  15
ENDBRANCH   1  14
TORSDOF 7
ENDMDL
MODEL 2
REMARK VINA RESULT: -6.266247838      1.308      6.602
REMARK  7 active torsions:
REMARK  status: ('A' for Active; 'I' for Inactive)
REMARK    1  A    between atoms: N1_1  and  C1_4 
REMARK    2  A    between atoms: C2_7  and  C3_8 
REMARK    3  A    between atoms: C3_8  and  C4_9 
REMARK    4  A    between atoms: C4_9  and  C5_10 
REMARK    5  A    between atoms: C5_10  and  C6_11 
REMARK    6  A    between atoms: C6_11  and  N3_12 
REMARK    7  A    between atoms: C8_18  and  N6_19 
ROOT
HETATM    1  C4  UNL     1      33.002  40.721  -9.794  1.00  0.00     0.009 C 
ENDROOT
BRANCH   1   2
HETATM    2  C3  UNL     1      33.884  41.728 -10.430  1.00  0.00     0.078 C 
BRANCH   2   3
HETATM    3  C2  UNL     1      33.267  43.049 -10.646  1.00  0.00     0.112 A 
HETATM    4  N2  UNL     1      33.555  43.937 -11.644  1.00  0.00    -0.178 N 
HETATM    5  C1  UNL     1      32.760  45.001 -11.540  1.00  0.00     0.691 A 
ATOM      6  H2  UNL     1      34.270  43.806 -12.360  1.00  0.00     0.185 HD
HETATM    7  N8  UNL     1      31.956  44.812 -10.481  1.00  0.00    -0.131 N 
HETATM    8  N7  UNL     1      32.278  43.628  -9.957  1.00  0.00    -0.274 N 
ATOM      9  H8  UNL     1      31.237  45.451 -10.142  1.00  0.00     0.205 HD
ATOM     10  H7  UNL     1      31.829  43.218  -9.137  1.00  0.00     0.189 HD
BRANCH   5  11
HETATM   11  N1  UNL     1      32.773  46.043 -12.339  1.00  0.00    -0.233 N 
ATOM     12  H12 UNL     1      32.084  46.270 -13.056  1.00  0.00     0.174 HD
ATOM     13  H11 UNL     1      33.484  46.774 -12.348  1.00  0.00     0.174 HD
ENDBRANCH   5  11
ENDBRANCH   2   3
ENDBRANCH   1   2
BRANCH   1  14
HETATM   14  C5  UNL     1      33.584  40.179  -8.517  1.00  0.00     0.021 C 
BRANCH  14  15
HETATM   15  C6  UNL     1      35.044  40.609  -8.357  1.00  0.00     0.148 C 
BRANCH  15  16
HETATM   16  N3  UNL     1      35.083  41.396  -7.116  1.00  0.00    -0.177 N 
HETATM   17  C7  UNL     1      34.587  42.638  -6.941  1.00  0.00     0.218 A 
HETATM   18  N4  UNL     1      34.830  42.990  -5.662  1.00  0.00    -0.281 N 
HETATM   19  N5  UNL     1      35.461  42.017  -5.028  1.00  0.00    -0.131 N 
ATOM     20  H4  UNL     1      34.564  43.881  -5.244  1.00  0.00     0.188 HD
HETATM   21  C8  UNL     1      35.615  41.028  -5.937  1.00  0.00     0.693 A 
ATOM     22  H5  UNL     1      35.767  42.013  -4.055  1.00  0.00     0.205 HD
BRANCH  21  23
HETATM   23  N6  UNL     1      36.183  39.885  -5.743  1.00  0.00    -0.233 N 
ATOM     24  H62 UNL     1      36.460  39.488  -4.844  1.00  0.00     0.174 HD
ATOM     25  H61 UNL     1      36.422  39.244  -6.499  1.00  0.00     0.174 HD
ENDBRANCH  21  23
ENDBRANCH  15  16
ENDBRANCH  14  15
ENDBRANCH   1  14
TORSDOF 7
ENDMDL
MODEL 3
REMARK VINA RESULT: -6.259320647      3.331      8.282
REMARK  7 active torsions:
REMARK  status: ('A' for Active; 'I' for Inactive)
REMARK    1  A    between atoms: N1_1  and  C1_4 
REMARK    2  A    between atoms: C2_7  and  C3_8 
REMARK    3  A    between atoms: C3_8  and  C4_9 
REMARK    4  A    between atoms: C4_9  and  C5_10 
REMARK    5  A    between atoms: C5_10  and  C6_11 
REMARK    6  A    between atoms: C6_11  and  N3_12 
REMARK    7  A    between atoms: C8_18  and  N6_19 
ROOT
HETATM    1  C4  UNL     1      37.460  42.311  -4.718  1.00  0.00     0.009 C 
ENDROOT
BRANCH   1   2
HETATM    2  C3  UNL     1      36.366  41.426  -5.182  1.00  0.00     0.078 C 
BRANCH   2   3
HETATM    3  C2  UNL     1      35.470  42.020  -6.189  1.00  0.00     0.112 A 
HETATM    4  N2  UNL     1      35.649  42.031  -7.545  1.00  0.00    -0.178 N 
HETATM    5  C1  UNL     1      34.606  42.618  -8.130  1.00  0.00     0.691 A 
ATOM      6  H2  UNL     1      36.457  41.647  -8.034  1.00  0.00     0.185 HD
HETATM    7  N8  UNL     1      33.748  42.991  -7.165  1.00  0.00    -0.131 N 
HETATM    8  N7  UNL     1      34.289  42.620  -6.002  1.00  0.00    -0.274 N 
ATOM      9  H8  UNL     1      32.856  43.466  -7.296  1.00  0.00     0.205 HD
ATOM     10  H7  UNL     1      33.858  42.774  -5.091  1.00  0.00     0.189 HD
BRANCH   5  11
HETATM   11  N1  UNL     1      34.457  42.795  -9.423  1.00  0.00    -0.233 N 
ATOM     12  H12 UNL     1      34.100  42.115 -10.094  1.00  0.00     0.174 HD
ATOM     13  H11 UNL     1      34.681  43.649  -9.934  1.00  0.00     0.174 HD
ENDBRANCH   5  11
ENDBRANCH   2   3
ENDBRANCH   1   2
BRANCH   1  14
HETATM   14  C5  UNL     1      38.405  41.607  -3.782  1.00  0.00     0.021 C 
BRANCH  14  15
HETATM   15  C6  UNL     1      37.731  41.324  -2.438  1.00  0.00     0.148 C 
BRANCH  15  16
HETATM   16  N3  UNL     1      37.327  42.640  -1.922  1.00  0.00    -0.177 N 
HETATM   17  C7  UNL     1      38.149  43.658  -1.595  1.00  0.00     0.218 A 
HETATM   18  N4  UNL     1      37.376  44.676  -1.166  1.00  0.00    -0.281 N 
HETATM   19  N5  UNL     1      36.099  44.336  -1.210  1.00  0.00    -0.131 N 
ATOM     20  H4  UNL     1      37.727  45.581  -0.853  1.00  0.00     0.188 HD
HETATM   21  C8  UNL     1      36.075  43.069  -1.681  1.00  0.00     0.693 A 
ATOM     22  H5  UNL     1      35.299  44.910  -0.943  1.00  0.00     0.205 HD
BRANCH  21  23
HETATM   23  N6  UNL     1      35.026  42.343  -1.883  1.00  0.00    -0.233 N 
ATOM     24  H62 UNL     1      34.756  41.894  -2.759  1.00  0.00     0.174 HD
ATOM     25  H61 UNL     1      34.338  42.141  -1.158  1.00  0.00     0.174 HD
ENDBRANCH  21  23
ENDBRANCH  15  16
ENDBRANCH  14  15
ENDBRANCH   1  14
TORSDOF 7
ENDMDL
MODEL 4
REMARK VINA RESULT: -6.245487613      1.041      1.939
REMARK  7 active torsions:
REMARK  status: ('A' for Active; 'I' for Inactive)
REMARK    1  A    between atoms: N1_1  and  C1_4 
REMARK    2  A    between atoms: C2_7  and  C3_8 
REMARK    3  A    between atoms: C3_8  and  C4_9 
REMARK    4  A    between atoms: C4_9  and  C5_10 
REMARK    5  A    between atoms: C5_10  and  C6_11 
REMARK    6  A    between atoms: C6_11  and  N3_12 
REMARK    7  A    between atoms: C8_18  and  N6_19 
ROOT
HETATM    1  C4  UNL     1      33.921  42.707  -9.729  1.00  0.00     0.009 C 
ENDROOT
BRANCH   1   2
HETATM    2  C3  UNL     1      33.311  42.889  -8.391  1.00  0.00     0.078 C 
BRANCH   2   3
HETATM    3  C2  UNL     1      34.110  42.369  -7.267  1.00  0.00     0.112 A 
HETATM    4  N2  UNL     1      34.774  41.175  -7.213  1.00  0.00    -0.178 N 
HETATM    5  C1  UNL     1      35.423  41.075  -6.054  1.00  0.00     0.691 A 
ATOM      6  H2  UNL     1      34.772  40.468  -7.948  1.00  0.00     0.185 HD
HETATM    7  N8  UNL     1      35.187  42.195  -5.352  1.00  0.00    -0.131 N 
HETATM    8  N7  UNL     1      34.393  42.962  -6.102  1.00  0.00    -0.274 N 
ATOM      9  H8  UNL     1      35.545  42.418  -4.423  1.00  0.00     0.205 HD
ATOM     10  H7  UNL     1      34.048  43.881  -5.823  1.00  0.00     0.189 HD
BRANCH   5  11
HETATM   11  N1  UNL     1      36.159  40.054  -5.678  1.00  0.00    -0.233 N 
ATOM     12  H12 UNL     1      36.809  39.525  -6.259  1.00  0.00     0.174 HD
ATOM     13  H11 UNL     1      36.179  39.651  -4.741  1.00  0.00     0.174 HD
ENDBRANCH   5  11
ENDBRANCH   2   3
ENDBRANCH   1   2
BRANCH   1  14
HETATM   14  C5  UNL     1      33.643  43.869 -10.644  1.00  0.00     0.021 C 
BRANCH  14  15
HETATM   15  C6  UNL     1      33.481  43.397 -12.090  1.00  0.00     0.148 C 
BRANCH  15  16
HETATM   16  N3  UNL     1      32.031  43.348 -12.323  1.00  0.00    -0.177 N 
HETATM   17  C7  UNL     1      31.242  42.258 -12.234  1.00  0.00     0.218 A 
HETATM   18  N4  UNL     1      29.984  42.648 -12.522  1.00  0.00    -0.281 N 
HETATM   19  N5  UNL     1      29.952  43.941 -12.790  1.00  0.00    -0.131 N 
ATOM     20  H4  UNL     1      29.172  42.031 -12.532  1.00  0.00     0.188 HD
HETATM   21  C8  UNL     1      31.228  44.372 -12.664  1.00  0.00     0.693 A 
ATOM     22  H5  UNL     1      29.135  44.499 -13.040  1.00  0.00     0.205 HD
BRANCH  21  23
HETATM   23  N6  UNL     1      31.654  45.579 -12.837  1.00  0.00    -0.233 N 
ATOM     24  H62 UNL     1      31.903  46.247 -12.108  1.00  0.00     0.174 HD
ATOM     25  H61 UNL     1      31.786  45.998 -13.758  1.00  0.00     0.174 HD
ENDBRANCH  21  23
ENDBRANCH  15  16
ENDBRANCH  14  15
ENDBRANCH   1  14
TORSDOF 7
ENDMDL
MODEL 5
REMARK VINA RESULT: -6.242492917      3.974      9.474
REMARK  7 active torsions:
REMARK  status: ('A' for Active; 'I' for Inactive)
REMARK    1  A    between atoms: N1_1  and  C1_4 
REMARK    2  A    between atoms: C2_7  and  C3_8 
REMARK    3  A    between atoms: C3_8  and  C4_9 
REMARK    4  A    between atoms: C4_9  and  C5_10 
REMARK    5  A    between atoms: C5_10  and  C6_11 
REMARK    6  A    between atoms: C6_11  and  N3_12 
REMARK    7  A    between atoms: C8_18  and  N6_19 
ROOT
HETATM    1  C4  UNL     1      36.636  42.546  -3.906  1.00  0.00     0.009 C 
ENDROOT
BRANCH   1   2
HETATM    2  C3  UNL     1      36.475  41.654  -5.078  1.00  0.00     0.078 C 
BRANCH   2   3
HETATM    3  C2  UNL     1      35.553  42.150  -6.116  1.00  0.00     0.112 A 
HETATM    4  N2  UNL     1      35.761  42.153  -7.467  1.00  0.00    -0.178 N 
HETATM    5  C1  UNL     1      34.684  42.636  -8.085  1.00  0.00     0.691 A 
ATOM      6  H2  UNL     1      36.612  41.835  -7.931  1.00  0.00     0.185 HD
HETATM    7  N8  UNL     1      33.775  42.947  -7.146  1.00  0.00    -0.131 N 
HETATM    8  N7  UNL     1      34.319  42.645  -5.965  1.00  0.00    -0.274 N 
ATOM      9  H8  UNL     1      32.847  43.339  -7.305  1.00  0.00     0.205 HD
ATOM     10  H7  UNL     1      33.855  42.776  -5.066  1.00  0.00     0.189 HD
BRANCH   5  11
HETATM   11  N1  UNL     1      34.550  42.777  -9.384  1.00  0.00    -0.233 N 
ATOM     12  H12 UNL     1      35.301  42.860 -10.069  1.00  0.00     0.174 HD
ATOM     13  H11 UNL     1      33.663  42.823  -9.887  1.00  0.00     0.174 HD
ENDBRANCH   5  11
ENDBRANCH   2   3
ENDBRANCH   1   2
BRANCH   1  14
HETATM   14  C5  UNL     1      36.639  41.786  -2.608  1.00  0.00     0.021 C 
BRANCH  14  15
HETATM   15  C6  UNL     1      35.903  42.566  -1.517  1.00  0.00     0.148 C 
BRANCH  15  16
HETATM   16  N3  UNL     1      36.899  42.789  -0.459  1.00  0.00    -0.177 N 
HETATM   17  C7  UNL     1      37.106  42.009   0.622  1.00  0.00     0.218 A 
HETATM   18  N4  UNL     1      38.106  42.567   1.334  1.00  0.00    -0.281 N 
HETATM   19  N5  UNL     1      38.535  43.668   0.742  1.00  0.00    -0.131 N 
ATOM     20  H4  UNL     1      38.478  42.192   2.206  1.00  0.00     0.188 HD
HETATM   21  C8  UNL     1      37.781  43.801  -0.373  1.00  0.00     0.693 A 
ATOM     22  H5  UNL     1      39.279  44.289   1.060  1.00  0.00     0.205 HD
BRANCH  21  23
HETATM   23  N6  UNL     1      37.863  44.745  -1.250  1.00  0.00    -0.233 N 
ATOM     24  H62 UNL     1      37.264  45.568  -1.316  1.00  0.00     0.174 HD
ATOM     25  H61 UNL     1      38.562  44.758  -1.993  1.00  0.00     0.174 HD
ENDBRANCH  21  23
ENDBRANCH  15  16
ENDBRANCH  14  15
ENDBRANCH   1  14
TORSDOF 7
ENDMDL
