MODEL 1
REMARK VINA RESULT: -6.845223433      0.000      0.000
REMARK  7 active torsions:
REMARK  status: ('A' for Active; 'I' for Inactive)
REMARK    1  A    between atoms: C3_4  and  S1_5 
REMARK    2  A    between atoms: S1_5  and  C4_6 
REMARK    3  A    between atoms: C4_6  and  O2_7 
REMARK    4  A    between atoms: N1_9  and  O3_11 
REMARK    5  A    between atoms: C5_13  and  O4_14 
REMARK    6  A    between atoms: C6_16  and  O5_17 
REMARK    7  A    between atoms: C7_19  and  O6_20 
ROOT
HETATM    1  C1  UNL     1      72.525  55.195  36.844  1.00  0.00     0.042 C 
HETATM    2  C2  UNL     1      72.238  56.254  35.780  1.00  0.00     0.150 C 
HETATM    3  O1  UNL     1      72.748  57.425  36.219  1.00  0.00    -0.365 OA
HETATM    4  C3  UNL     1      72.863  58.480  35.390  1.00  0.00     0.223 C 
HETATM    5  C5  UNL     1      72.902  58.270  33.930  1.00  0.00     0.188 C 
HETATM    6  C6  UNL     1      72.528  56.885  33.475  1.00  0.00     0.181 C 
HETATM    7  C7  UNL     1      72.968  55.845  34.507  1.00  0.00     0.178 C 
ENDROOT
BRANCH   4   8
HETATM    8  S1  UNL     1      74.381  59.376  35.915  1.00  0.00    -0.050 SA
BRANCH   8   9
HETATM    9  C4  UNL     1      74.486  59.421  37.696  1.00  0.00     0.202 C 
HETATM   10  N1  UNL     1      75.659  59.538  38.216  1.00  0.00    -0.242 N 
ATOM     11  H1  UNL     1      76.482  59.601  37.617  1.00  0.00     0.197 HD
BRANCH   9  12
HETATM   12  O2  UNL     1      73.370  59.333  38.524  1.00  0.00    -0.340 OA
ATOM     13  H2  UNL     1      73.428  59.331  39.472  1.00  0.00     0.220 HD
ENDBRANCH   9  12
BRANCH  10  14
HETATM   14  O3  UNL     1      75.794  59.578  39.582  1.00  0.00    -0.287 OA
ATOM     15  H3  UNL     1      75.781  58.767  40.078  1.00  0.00     0.244 HD
ENDBRANCH  10  14
ENDBRANCH   8   9
ENDBRANCH   4   8
BRANCH   5  16
HETATM   16  O4  UNL     1      74.189  58.533  33.428  1.00  0.00    -0.389 OA
ATOM     17  H4  UNL     1      74.336  59.469  33.363  1.00  0.00     0.210 HD
ENDBRANCH   5  16
BRANCH   6  18
HETATM   18  O5  UNL     1      73.020  56.598  32.208  1.00  0.00    -0.390 OA
ATOM     19  H5  UNL     1      73.774  56.019  32.239  1.00  0.00     0.210 HD
ENDBRANCH   6  18
BRANCH   7  20
HETATM   20  O6  UNL     1      72.497  54.596  34.067  1.00  0.00    -0.390 OA
ATOM     21  H6  UNL     1      71.564  54.528  34.230  1.00  0.00     0.210 HD
ENDBRANCH   7  20
TORSDOF 7
ENDMDL
MODEL 2
REMARK VINA RESULT: -6.810336128      2.431      5.122
REMARK  7 active torsions:
REMARK  status: ('A' for Active; 'I' for Inactive)
REMARK    1  A    between atoms: C3_4  and  S1_5 
REMARK    2  A    between atoms: S1_5  and  C4_6 
REMARK    3  A    between atoms: C4_6  and  O2_7 
REMARK    4  A    between atoms: N1_9  and  O3_11 
REMARK    5  A    between atoms: C5_13  and  O4_14 
REMARK    6  A    between atoms: C6_16  and  O5_17 
REMARK    7  A    between atoms: C7_19  and  O6_20 
ROOT
HETATM    1  C1  UNL     1      76.616  56.937  35.337  1.00  0.00     0.042 C 
HETATM    2  C2  UNL     1      76.295  58.249  36.053  1.00  0.00     0.150 C 
HETATM    3  O1  UNL     1      75.185  58.765  35.482  1.00  0.00    -0.365 OA
HETATM    4  C3  UNL     1      74.524  59.786  36.060  1.00  0.00     0.223 C 
HETATM    5  C5  UNL     1      74.683  60.044  37.505  1.00  0.00     0.188 C 
HETATM    6  C6  UNL     1      75.806  59.291  38.166  1.00  0.00     0.181 C 
HETATM    7  C7  UNL     1      75.993  57.922  37.509  1.00  0.00     0.178 C 
ENDROOT
BRANCH   4   8
HETATM    8  S1  UNL     1      72.744  59.521  35.683  1.00  0.00    -0.050 SA
BRANCH   8   9
HETATM    9  C4  UNL     1      72.419  57.782  35.441  1.00  0.00     0.202 C 
HETATM   10  N1  UNL     1      71.737  57.449  34.399  1.00  0.00    -0.242 N 
ATOM     11  H1  UNL     1      71.405  58.164  33.752  1.00  0.00     0.197 HD
BRANCH   9  12
HETATM   12  O2  UNL     1      72.864  56.798  36.318  1.00  0.00    -0.340 OA
ATOM     13  H2  UNL     1      72.301  56.388  36.965  1.00  0.00     0.220 HD
ENDBRANCH   9  12
BRANCH  10  14
HETATM   14  O3  UNL     1      71.460  56.124  34.167  1.00  0.00    -0.287 OA
ATOM     15  H3  UNL     1      70.561  55.819  34.208  1.00  0.00     0.244 HD
ENDBRANCH  10  14
ENDBRANCH   8   9
ENDBRANCH   4   8
BRANCH   5  16
HETATM   16  O4  UNL     1      73.504  59.714  38.196  1.00  0.00    -0.389 OA
ATOM     17  H4  UNL     1      73.574  59.962  39.111  1.00  0.00     0.210 HD
ENDBRANCH   5  16
BRANCH   6  18
HETATM   18  O5  UNL     1      75.629  59.186  39.540  1.00  0.00    -0.390 OA
ATOM     19  H5  UNL     1      76.445  59.015  39.995  1.00  0.00     0.210 HD
ENDBRANCH   6  18
BRANCH   7  20
HETATM   20  O6  UNL     1      77.116  57.324  38.107  1.00  0.00    -0.390 OA
ATOM     21  H6  UNL     1      77.161  57.567  39.023  1.00  0.00     0.210 HD
ENDBRANCH   7  20
TORSDOF 7
ENDMDL
MODEL 3
REMARK VINA RESULT: -6.771069949      1.376      1.514
REMARK  7 active torsions:
REMARK  status: ('A' for Active; 'I' for Inactive)
REMARK    1  A    between atoms: C3_4  and  S1_5 
REMARK    2  A    between atoms: S1_5  and  C4_6 
REMARK    3  A    between atoms: C4_6  and  O2_7 
REMARK    4  A    between atoms: N1_9  and  O3_11 
REMARK    5  A    between atoms: C5_13  and  O4_14 
REMARK    6  A    between atoms: C6_16  and  O5_17 
REMARK    7  A    between atoms: C7_19  and  O6_20 
ROOT
HETATM    1  C1  UNL     1      70.989  56.308  35.190  1.00  0.00     0.042 C 
HETATM    2  C2  UNL     1      71.580  57.583  34.588  1.00  0.00     0.150 C 
HETATM    3  O1  UNL     1      72.494  58.062  35.461  1.00  0.00    -0.365 OA
HETATM    4  C3  UNL     1      73.351  59.034  35.097  1.00  0.00     0.223 C 
HETATM    5  C5  UNL     1      73.648  59.258  33.668  1.00  0.00     0.188 C 
HETATM    6  C6  UNL     1      72.737  58.542  32.708  1.00  0.00     0.181 C 
HETATM    7  C7  UNL     1      72.288  57.202  33.294  1.00  0.00     0.178 C 
ENDROOT
BRANCH   4   8
HETATM    8  S1  UNL     1      74.919  58.694  35.996  1.00  0.00    -0.050 SA
BRANCH   8   9
HETATM    9  C4  UNL     1      74.750  59.137  37.717  1.00  0.00     0.202 C 
HETATM   10  N1  UNL     1      75.832  59.238  38.409  1.00  0.00    -0.242 N 
ATOM     11  H1  UNL     1      76.739  59.068  37.973  1.00  0.00     0.197 HD
BRANCH   9  12
HETATM   12  O2  UNL     1      73.519  59.368  38.323  1.00  0.00    -0.340 OA
ATOM     13  H2  UNL     1      73.433  59.688  39.213  1.00  0.00     0.220 HD
ENDBRANCH   9  12
BRANCH  10  14
HETATM   14  O3  UNL     1      75.757  59.576  39.738  1.00  0.00    -0.287 OA
ATOM     15  H3  UNL     1      76.294  59.113  40.371  1.00  0.00     0.244 HD
ENDBRANCH  10  14
ENDBRANCH   8   9
ENDBRANCH   4   8
BRANCH   5  16
HETATM   16  O4  UNL     1      74.961  58.854  33.368  1.00  0.00    -0.389 OA
ATOM     17  H4  UNL     1      75.587  59.485  33.702  1.00  0.00     0.210 HD
ENDBRANCH   5  16
BRANCH   6  18
HETATM   18  O5  UNL     1      73.313  58.390  31.453  1.00  0.00    -0.390 OA
ATOM     19  H5  UNL     1      73.011  57.604  31.012  1.00  0.00     0.210 HD
ENDBRANCH   6  18
BRANCH   7  20
HETATM   20  O6  UNL     1      71.366  56.641  32.394  1.00  0.00    -0.390 OA
ATOM     21  H6  UNL     1      71.802  56.004  31.841  1.00  0.00     0.210 HD
ENDBRANCH   7  20
TORSDOF 7
ENDMDL
MODEL 4
REMARK VINA RESULT: -6.747435020      2.576      5.596
REMARK  7 active torsions:
REMARK  status: ('A' for Active; 'I' for Inactive)
REMARK    1  A    between atoms: C3_4  and  S1_5 
REMARK    2  A    between atoms: S1_5  and  C4_6 
REMARK    3  A    between atoms: C4_6  and  O2_7 
REMARK    4  A    between atoms: N1_9  and  O3_11 
REMARK    5  A    between atoms: C5_13  and  O4_14 
REMARK    6  A    between atoms: C6_16  and  O5_17 
REMARK    7  A    between atoms: C7_19  and  O6_20 
ROOT
HETATM    1  C1  UNL     1      77.966  58.355  37.207  1.00  0.00     0.042 C 
HETATM    2  C2  UNL     1      76.609  58.934  36.806  1.00  0.00     0.150 C 
HETATM    3  O1  UNL     1      76.189  58.268  35.708  1.00  0.00    -0.365 OA
HETATM    4  C3  UNL     1      74.921  58.388  35.273  1.00  0.00     0.223 C 
HETATM    5  C5  UNL     1      73.861  58.830  36.201  1.00  0.00     0.188 C 
HETATM    6  C6  UNL     1      74.352  59.381  37.512  1.00  0.00     0.181 C 
HETATM    7  C7  UNL     1      75.635  58.668  37.946  1.00  0.00     0.178 C 
ENDROOT
BRANCH   4   8
HETATM    8  S1  UNL     1      74.465  56.751  34.569  1.00  0.00    -0.050 SA
BRANCH   8   9
HETATM    9  C4  UNL     1      73.342  56.961  33.199  1.00  0.00     0.202 C 
HETATM   10  N1  UNL     1      72.088  56.772  33.429  1.00  0.00    -0.242 N 
ATOM     11  H1  UNL     1      71.770  56.512  34.362  1.00  0.00     0.197 HD
BRANCH   9  12
HETATM   12  O2  UNL     1      73.763  57.312  31.920  1.00  0.00    -0.340 OA
ATOM     13  H2  UNL     1      74.259  56.728  31.359  1.00  0.00     0.220 HD
ENDBRANCH   9  12
BRANCH  10  14
HETATM   14  O3  UNL     1      71.181  56.921  32.407  1.00  0.00    -0.287 OA
ATOM     15  H3  UNL     1      70.570  57.649  32.426  1.00  0.00     0.244 HD
ENDBRANCH  10  14
ENDBRANCH   8   9
ENDBRANCH   4   8
BRANCH   5  16
HETATM   16  O4  UNL     1      72.993  57.766  36.501  1.00  0.00    -0.389 OA
ATOM     17  H4  UNL     1      72.657  57.850  37.386  1.00  0.00     0.210 HD
ENDBRANCH   5  16
BRANCH   6  18
HETATM   18  O5  UNL     1      73.375  59.335  38.499  1.00  0.00    -0.390 OA
ATOM     19  H5  UNL     1      73.318  60.149  38.986  1.00  0.00     0.210 HD
ENDBRANCH   6  18
BRANCH   7  20
HETATM   20  O6  UNL     1      76.087  59.301  39.117  1.00  0.00    -0.390 OA
ATOM     21  H6  UNL     1      75.541  59.048  39.852  1.00  0.00     0.210 HD
ENDBRANCH   7  20
TORSDOF 7
ENDMDL
MODEL 5
REMARK VINA RESULT: -6.698272444      1.655      2.291
REMARK  7 active torsions:
REMARK  status: ('A' for Active; 'I' for Inactive)
REMARK    1  A    between atoms: C3_4  and  S1_5 
REMARK    2  A    between atoms: S1_5  and  C4_6 
REMARK    3  A    between atoms: C4_6  and  O2_7 
REMARK    4  A    between atoms: N1_9  and  O3_11 
REMARK    5  A    between atoms: C5_13  and  O4_14 
REMARK    6  A    between atoms: C6_16  and  O5_17 
REMARK    7  A    between atoms: C7_19  and  O6_20 
ROOT
HETATM    1  C1  UNL     1      70.830  58.845  34.174  1.00  0.00     0.042 C 
HETATM    2  C2  UNL     1      72.220  58.237  33.985  1.00  0.00     0.150 C 
HETATM    3  O1  UNL     1      72.863  58.310  35.171  1.00  0.00    -0.365 OA
HETATM    4  C3  UNL     1      74.009  57.634  35.375  1.00  0.00     0.223 C 
HETATM    5  C5  UNL     1      74.333  56.461  34.539  1.00  0.00     0.188 C 
HETATM    6  C6  UNL     1      73.461  56.283  33.326  1.00  0.00     0.181 C 
HETATM    7  C7  UNL     1      72.039  56.771  33.612  1.00  0.00     0.178 C 
ENDROOT
BRANCH   4   8
HETATM    8  S1  UNL     1      73.997  57.133  37.144  1.00  0.00    -0.050 SA
BRANCH   8   9
HETATM    9  C4  UNL     1      74.329  58.544  38.186  1.00  0.00     0.202 C 
HETATM   10  N1  UNL     1      75.476  58.588  38.772  1.00  0.00    -0.242 N 
ATOM     11  H1  UNL     1      76.153  57.838  38.634  1.00  0.00     0.197 HD
BRANCH   9  12
HETATM   12  O2  UNL     1      73.413  59.572  38.384  1.00  0.00    -0.340 OA
ATOM     13  H2  UNL     1      73.631  60.379  38.836  1.00  0.00     0.220 HD
ENDBRANCH   9  12
BRANCH  10  14
HETATM   14  O3  UNL     1      75.781  59.653  39.585  1.00  0.00    -0.287 OA
ATOM     15  H3  UNL     1      76.691  59.861  39.762  1.00  0.00     0.244 HD
ENDBRANCH  10  14
ENDBRANCH   8   9
ENDBRANCH   4   8
BRANCH   5  16
HETATM   16  O4  UNL     1      74.235  55.278  35.292  1.00  0.00    -0.389 OA
ATOM     17  H4  UNL     1      74.791  54.601  34.922  1.00  0.00     0.210 HD
ENDBRANCH   5  16
BRANCH   6  18
HETATM   18  O5  UNL     1      73.474  54.975  32.857  1.00  0.00    -0.390 OA
ATOM     19  H5  UNL     1      73.001  54.384  33.431  1.00  0.00     0.210 HD
ENDBRANCH   6  18
BRANCH   7  20
HETATM   20  O6  UNL     1      71.315  56.671  32.411  1.00  0.00    -0.390 OA
ATOM     21  H6  UNL     1      70.605  57.302  32.409  1.00  0.00     0.210 HD
ENDBRANCH   7  20
TORSDOF 7
ENDMDL
