MODEL 1
REMARK VINA RESULT: -5.168797510      0.000      0.000
REMARK  3 active torsions:
REMARK  status: ('A' for Active; 'I' for Inactive)
REMARK    1  A    between atoms: C2_2  and  N1_4 
REMARK    2  A    between atoms: N1_4  and  C4_7 
REMARK    3  A    between atoms: C4_7  and  C6_9 
ROOT
HETATM    1  C4  UNL     1     -22.648  16.637  10.536  1.00  0.00     0.212 C 
HETATM    2  C5  UNL     1     -23.427  17.721  11.158  1.00  0.00     0.042 C 
ENDROOT
BRANCH   1   3
HETATM    3  N1  UNL     1     -21.249  16.624  10.871  1.00  0.00    -0.066 N 
ATOM      4  H12 UNL     1     -21.076  16.077  11.715  1.00  0.00     0.278 HD
ATOM      5  H11 UNL     1     -20.939  17.536  11.204  1.00  0.00     0.278 HD
BRANCH   3   6
HETATM    6  C2  UNL     1     -20.445  16.167   9.783  1.00  0.00     0.178 C 
HETATM    7  C1  UNL     1     -20.642  16.893   8.486  1.00  0.00     0.039 C 
HETATM    8  C3  UNL     1     -18.980  16.217  10.215  1.00  0.00     0.039 C 
ENDBRANCH   3   6
ENDBRANCH   1   3
BRANCH   1   9
HETATM    9  C6  UNL     1     -23.184  15.265  10.574  1.00  0.00     0.216 C 
HETATM   10  C7  UNL     1     -24.541  15.158  11.238  1.00  0.00     0.037 C 
HETATM   11  C8  UNL     1     -24.873  13.710  10.945  1.00  0.00     0.029 C 
HETATM   12  C9  UNL     1     -24.341  13.560   9.546  1.00  0.00     0.233 C 
HETATM   13  N2  UNL     1     -23.463  14.679   9.282  1.00  0.00    -0.069 N 
ATOM     14  H22 UNL     1     -23.837  15.343   8.604  1.00  0.00     0.277 HD
ATOM     15  H21 UNL     1     -22.625  14.429   8.757  1.00  0.00     0.277 HD
ENDBRANCH   1   9
TORSDOF 3
ENDMDL
MODEL 2
REMARK VINA RESULT: -5.066829834      1.751      4.735
REMARK  3 active torsions:
REMARK  status: ('A' for Active; 'I' for Inactive)
REMARK    1  A    between atoms: C2_2  and  N1_4 
REMARK    2  A    between atoms: N1_4  and  C4_7 
REMARK    3  A    between atoms: C4_7  and  C6_9 
ROOT
HETATM    1  C4  UNL     1     -21.595  14.203   9.206  1.00  0.00     0.212 C 
HETATM    2  C5  UNL     1     -21.265  12.946   8.514  1.00  0.00     0.042 C 
ENDROOT
BRANCH   1   3
HETATM    3  N1  UNL     1     -22.490  14.066  10.324  1.00  0.00    -0.066 N 
ATOM      4  H12 UNL     1     -22.150  14.581  11.136  1.00  0.00     0.278 HD
ATOM      5  H11 UNL     1     -22.460  13.122  10.709  1.00  0.00     0.278 HD
BRANCH   3   6
HETATM    6  C2  UNL     1     -23.825  14.447   9.989  1.00  0.00     0.178 C 
HETATM    7  C1  UNL     1     -24.743  13.322   9.615  1.00  0.00     0.039 C 
HETATM    8  C3  UNL     1     -24.401  15.253  11.152  1.00  0.00     0.039 C 
ENDBRANCH   3   6
ENDBRANCH   1   3
BRANCH   1   9
HETATM    9  C6  UNL     1     -20.504  15.132   9.551  1.00  0.00     0.216 C 
HETATM   10  C7  UNL     1     -20.791  15.985  10.769  1.00  0.00     0.037 C 
HETATM   11  C8  UNL     1     -19.446  16.655  10.954  1.00  0.00     0.029 C 
HETATM   12  C9  UNL     1     -18.504  15.530  10.621  1.00  0.00     0.233 C 
HETATM   13  N2  UNL     1     -19.263  14.502   9.942  1.00  0.00    -0.069 N 
ATOM     14  H22 UNL     1     -19.391  13.654  10.494  1.00  0.00     0.277 HD
ATOM     15  H21 UNL     1     -18.763  14.067   9.167  1.00  0.00     0.277 HD
ENDBRANCH   1   9
TORSDOF 3
ENDMDL
MODEL 3
REMARK VINA RESULT: -4.962697504      1.691      2.517
REMARK  3 active torsions:
REMARK  status: ('A' for Active; 'I' for Inactive)
REMARK    1  A    between atoms: C2_2  and  N1_4 
REMARK    2  A    between atoms: N1_4  and  C4_7 
REMARK    3  A    between atoms: C4_7  and  C6_9 
ROOT
HETATM    1  C4  UNL     1     -21.347  15.963   9.978  1.00  0.00     0.212 C 
HETATM    2  C5  UNL     1     -19.875  15.981   9.950  1.00  0.00     0.042 C 
ENDROOT
BRANCH   1   3
HETATM    3  N1  UNL     1     -21.984  16.732   8.942  1.00  0.00    -0.066 N 
ATOM      4  H12 UNL     1     -22.288  17.641   9.289  1.00  0.00     0.278 HD
ATOM      5  H11 UNL     1     -22.894  16.341   8.697  1.00  0.00     0.278 HD
BRANCH   3   6
HETATM    6  C2  UNL     1     -21.151  16.867   7.790  1.00  0.00     0.178 C 
HETATM    7  C1  UNL     1     -21.471  15.949   6.649  1.00  0.00     0.039 C 
HETATM    8  C3  UNL     1     -21.189  18.326   7.339  1.00  0.00     0.039 C 
ENDBRANCH   3   6
ENDBRANCH   1   3
BRANCH   1   9
HETATM    9  C6  UNL     1     -22.040  14.673  10.140  1.00  0.00     0.216 C 
HETATM   10  C7  UNL     1     -23.461  14.673   9.618  1.00  0.00     0.037 C 
HETATM   11  C8  UNL     1     -23.800  13.203   9.754  1.00  0.00     0.029 C 
HETATM   12  C9  UNL     1     -22.502  12.559   9.349  1.00  0.00     0.233 C 
HETATM   13  N2  UNL     1     -21.471  13.574   9.390  1.00  0.00    -0.069 N 
ATOM     14  H22 UNL     1     -21.123  13.843   8.470  1.00  0.00     0.277 HD
ATOM     15  H21 UNL     1     -20.582  13.241   9.763  1.00  0.00     0.277 HD
ENDBRANCH   1   9
TORSDOF 3
ENDMDL
MODEL 4
REMARK VINA RESULT: -4.954804128      1.933      2.651
REMARK  3 active torsions:
REMARK  status: ('A' for Active; 'I' for Inactive)
REMARK    1  A    between atoms: C2_2  and  N1_4 
REMARK    2  A    between atoms: N1_4  and  C4_7 
REMARK    3  A    between atoms: C4_7  and  C6_9 
ROOT
HETATM    1  C4  UNL     1     -21.237  15.727   9.667  1.00  0.00     0.212 C 
HETATM    2  C5  UNL     1     -20.214  16.155  10.636  1.00  0.00     0.042 C 
ENDROOT
BRANCH   1   3
HETATM    3  N1  UNL     1     -20.809  15.722   8.294  1.00  0.00    -0.066 N 
ATOM      4  H12 UNL     1     -21.011  14.828   7.846  1.00  0.00     0.278 HD
ATOM      5  H11 UNL     1     -19.791  15.711   8.222  1.00  0.00     0.278 HD
BRANCH   3   6
HETATM    6  C2  UNL     1     -21.369  16.810   7.557  1.00  0.00     0.178 C 
HETATM    7  C1  UNL     1     -20.411  17.905   7.193  1.00  0.00     0.039 C 
HETATM    8  C3  UNL     1     -22.047  16.246   6.309  1.00  0.00     0.039 C 
ENDBRANCH   3   6
ENDBRANCH   1   3
BRANCH   1   9
HETATM    9  C6  UNL     1     -22.019  14.511   9.951  1.00  0.00     0.216 C 
HETATM   10  C7  UNL     1     -23.453  14.582   9.470  1.00  0.00     0.037 C 
HETATM   11  C8  UNL     1     -23.898  13.158   9.732  1.00  0.00     0.029 C 
HETATM   12  C9  UNL     1     -22.666  12.385   9.345  1.00  0.00     0.233 C 
HETATM   13  N2  UNL     1     -21.561  13.317   9.277  1.00  0.00    -0.069 N 
ATOM     14  H22 UNL     1     -21.225  13.485   8.328  1.00  0.00     0.277 HD
ATOM     15  H21 UNL     1     -20.688  12.945   9.650  1.00  0.00     0.277 HD
ENDBRANCH   1   9
TORSDOF 3
ENDMDL
MODEL 5
REMARK VINA RESULT: -4.941190782      1.768      4.517
REMARK  3 active torsions:
REMARK  status: ('A' for Active; 'I' for Inactive)
REMARK    1  A    between atoms: C2_2  and  N1_4 
REMARK    2  A    between atoms: N1_4  and  C4_7 
REMARK    3  A    between atoms: C4_7  and  C6_9 
ROOT
HETATM    1  C4  UNL     1     -22.061  15.833   9.422  1.00  0.00     0.212 C 
HETATM    2  C5  UNL     1     -22.514  16.791  10.444  1.00  0.00     0.042 C 
ENDROOT
BRANCH   1   3
HETATM    3  N1  UNL     1     -23.049  14.871   9.011  1.00  0.00    -0.066 N 
ATOM      4  H12 UNL     1     -22.810  14.456   8.110  1.00  0.00     0.278 HD
ATOM      5  H11 UNL     1     -23.924  15.326   8.750  1.00  0.00     0.278 HD
BRANCH   3   6
HETATM    6  C2  UNL     1     -23.262  13.867  10.004  1.00  0.00     0.178 C 
HETATM    7  C1  UNL     1     -24.679  13.708  10.469  1.00  0.00     0.039 C 
HETATM    8  C3  UNL     1     -22.713  12.543   9.475  1.00  0.00     0.039 C 
ENDBRANCH   3   6
ENDBRANCH   1   3
BRANCH   1   9
HETATM    9  C6  UNL     1     -21.338  16.340   8.243  1.00  0.00     0.216 C 
HETATM   10  C7  UNL     1     -21.911  15.867   6.924  1.00  0.00     0.037 C 
HETATM   11  C8  UNL     1     -21.090  16.694   5.958  1.00  0.00     0.029 C 
HETATM   12  C9  UNL     1     -21.003  18.006   6.688  1.00  0.00     0.233 C 
HETATM   13  N2  UNL     1     -21.385  17.774   8.065  1.00  0.00    -0.069 N 
ATOM     14  H22 UNL     1     -22.282  18.189   8.317  1.00  0.00     0.277 HD
ATOM     15  H21 UNL     1     -20.820  18.290   8.739  1.00  0.00     0.277 HD
ENDBRANCH   1   9
TORSDOF 3
ENDMDL
