MODEL 1
REMARK VINA RESULT: -8.906835479      0.000      0.000
REMARK  7 active torsions:
REMARK  status: ('A' for Active; 'I' for Inactive)
REMARK    1  A    between atoms: O1_2  and  C2_3 
REMARK    2  A    between atoms: N1_7  and  O2_8 
REMARK    3  A    between atoms: C6_10  and  N2_11 
REMARK       I    between atoms: N2_11  and  C7_12 
REMARK       I    between atoms: N2_11  and  C9_15 
REMARK    4  A    between atoms: C9_15  and  C10_17 
REMARK    5  A    between atoms: C10_17  and  C11_18 
REMARK    6  A    between atoms: C11_18  and  C12_19 
REMARK       I    between atoms: C12_19  and  N3_21 
REMARK    7  A    between atoms: C14_26  and  C15_27 
ROOT
HETATM    1  C12 UNL     1       4.545   6.814  21.825  1.00  0.00     0.236 C 
HETATM    2  O5  UNL     1       3.293   6.980  21.622  1.00  0.00    -0.273 OA
HETATM    3  N3  UNL     1       5.324   6.266  20.838  1.00  0.00    -0.158 N 
ATOM      4  H3  UNL     1       5.726   6.959  20.206  1.00  0.00     0.187 HD
HETATM    5  C13 UNL     1       5.647   5.072  20.553  1.00  0.00     0.703 A 
HETATM    6  N4  UNL     1       6.455   4.694  19.505  1.00  0.00    -0.173 N 
ATOM      7  H4  UNL     1       6.889   5.330  18.836  1.00  0.00     0.186 HD
HETATM    8  C14 UNL     1       6.582   3.378  19.501  1.00  0.00     0.146 A 
HETATM    9  N5  UNL     1       5.864   2.927  20.533  1.00  0.00    -0.268 N 
ATOM     10  H5  UNL     1       5.761   1.948  20.799  1.00  0.00     0.189 HD
HETATM   11  N6  UNL     1       5.307   3.955  21.158  1.00  0.00    -0.126 N 
HETATM   12  C21 UNL     1       4.467   3.759  22.321  1.00  0.00     0.197 C 
ENDROOT
BRANCH   1  13
HETATM   13  C11 UNL     1       5.062   7.241  23.149  1.00  0.00     0.113 C 
BRANCH  13  14
HETATM   14  C10 UNL     1       5.570   8.667  23.118  1.00  0.00     0.113 C 
BRANCH  14  15
HETATM   15  C9  UNL     1       6.878   8.758  23.855  1.00  0.00     0.232 C 
HETATM   16  N2  UNL     1       8.109   8.914  23.169  1.00  0.00    -0.233 N 
HETATM   17  C7  UNL     1       9.332   9.003  23.863  1.00  0.00     0.228 C 
HETATM   18  C8  UNL     1       9.452   8.952  25.331  1.00  0.00     0.118 C 
HETATM   19  O3  UNL     1      10.382   9.134  23.181  1.00  0.00    -0.273 OA
HETATM   20  O4  UNL     1       6.870   8.698  25.103  1.00  0.00    -0.273 OA
BRANCH  16  21
HETATM   21  C6  UNL     1       8.055   8.973  21.733  1.00  0.00     0.177 A 
HETATM   22  C2  UNL     1       7.951  10.199  21.130  1.00  0.00     0.115 A 
HETATM   23  C3  UNL     1       7.892  10.325  19.736  1.00  0.00     0.042 A 
HETATM   24  C4  UNL     1       7.943   9.165  18.999  1.00  0.00     0.023 A 
HETATM   25  C5  UNL     1       8.048   7.945  19.643  1.00  0.00     0.125 A 
HETATM   26  N1  UNL     1       8.102   7.871  20.981  1.00  0.00    -0.216 N 
BRANCH  22  27
HETATM   27  O1  UNL     1       7.899  11.372  21.858  1.00  0.00    -0.352 OA
HETATM   28  C1  UNL     1       7.868  12.642  21.240  1.00  0.00     0.210 C 
ENDBRANCH  22  27
BRANCH  26  29
HETATM   29  O2  UNL     1       8.207   6.606  21.548  1.00  0.00    -0.281 OA
ATOM     30  H2  UNL     1       7.532   6.344  22.163  1.00  0.00     0.245 HD
ENDBRANCH  26  29
ENDBRANCH  16  21
ENDBRANCH  14  15
ENDBRANCH  13  14
ENDBRANCH   1  13
BRANCH   8  31
HETATM   31  C15 UNL     1       7.364   2.576  18.544  1.00  0.00     0.013 A 
HETATM   32  C16 UNL     1       6.880   2.273  17.294  1.00  0.00     0.015 A 
HETATM   33  C17 UNL     1       7.659   1.508  16.419  1.00  0.00     0.004 A 
HETATM   34  C18 UNL     1       8.909   1.038  16.764  1.00  0.00     0.042 A 
HETATM   35  C19 UNL     1       9.379   1.351  18.020  1.00  0.00     0.117 A 
HETATM   36  F1  UNL     1      10.613   0.881  18.345  1.00  0.00    -0.206 F 
HETATM   37  C20 UNL     1       8.613   2.107  18.889  1.00  0.00     0.057 A 
ENDBRANCH   8  31
TORSDOF 7
ENDMDL
MODEL 2
REMARK VINA RESULT: -8.750728193      1.901      3.834
REMARK  7 active torsions:
REMARK  status: ('A' for Active; 'I' for Inactive)
REMARK    1  A    between atoms: O1_2  and  C2_3 
REMARK    2  A    between atoms: N1_7  and  O2_8 
REMARK    3  A    between atoms: C6_10  and  N2_11 
REMARK       I    between atoms: N2_11  and  C7_12 
REMARK       I    between atoms: N2_11  and  C9_15 
REMARK    4  A    between atoms: C9_15  and  C10_17 
REMARK    5  A    between atoms: C10_17  and  C11_18 
REMARK    6  A    between atoms: C11_18  and  C12_19 
REMARK       I    between atoms: C12_19  and  N3_21 
REMARK    7  A    between atoms: C14_26  and  C15_27 
ROOT
HETATM    1  C12 UNL     1       7.385  10.604  19.119  1.00  0.00     0.236 C 
HETATM    2  O5  UNL     1       7.163  11.221  18.021  1.00  0.00    -0.273 OA
HETATM    3  N3  UNL     1       7.986   9.372  19.094  1.00  0.00    -0.158 N 
ATOM      4  H3  UNL     1       9.004   9.414  19.149  1.00  0.00     0.187 HD
HETATM    5  C13 UNL     1       7.532   8.189  19.016  1.00  0.00     0.703 A 
HETATM    6  N4  UNL     1       8.294   7.043  19.004  1.00  0.00    -0.173 N 
ATOM      7  H4  UNL     1       9.311   7.011  19.055  1.00  0.00     0.186 HD
HETATM    8  C14 UNL     1       7.499   5.989  18.914  1.00  0.00     0.146 A 
HETATM    9  N5  UNL     1       6.250   6.461  18.872  1.00  0.00    -0.268 N 
ATOM     10  H5  UNL     1       5.406   5.893  18.804  1.00  0.00     0.189 HD
HETATM   11  N6  UNL     1       6.283   7.785  18.934  1.00  0.00    -0.126 N 
HETATM   12  C21 UNL     1       5.064   8.566  18.907  1.00  0.00     0.197 C 
ENDROOT
BRANCH   1  13
HETATM   13  C11 UNL     1       6.961  11.295  20.362  1.00  0.00     0.113 C 
BRANCH  13  14
HETATM   14  C10 UNL     1       6.443  10.318  21.396  1.00  0.00     0.113 C 
BRANCH  14  15
HETATM   15  C9  UNL     1       7.511  10.043  22.419  1.00  0.00     0.232 C 
HETATM   16  N2  UNL     1       7.433   8.934  23.298  1.00  0.00    -0.233 N 
HETATM   17  C7  UNL     1       8.437   8.678  24.252  1.00  0.00     0.228 C 
HETATM   18  C8  UNL     1       9.641   9.511  24.424  1.00  0.00     0.118 C 
HETATM   19  O3  UNL     1       8.291   7.676  25.000  1.00  0.00    -0.273 OA
HETATM   20  O4  UNL     1       8.490  10.816  22.487  1.00  0.00    -0.273 OA
BRANCH  16  21
HETATM   21  C6  UNL     1       6.281   8.081  23.175  1.00  0.00     0.177 A 
HETATM   22  C2  UNL     1       5.120   8.452  23.801  1.00  0.00     0.115 A 
HETATM   23  C3  UNL     1       3.963   7.665  23.722  1.00  0.00     0.042 A 
HETATM   24  C4  UNL     1       4.044   6.504  22.989  1.00  0.00     0.023 A 
HETATM   25  C5  UNL     1       5.233   6.162  22.371  1.00  0.00     0.125 A 
HETATM   26  N1  UNL     1       6.317   6.946  22.473  1.00  0.00    -0.216 N 
BRANCH  22  27
HETATM   27  O1  UNL     1       5.025   9.615  24.541  1.00  0.00    -0.352 OA
HETATM   28  C1  UNL     1       3.883   9.926  25.313  1.00  0.00     0.210 C 
ENDBRANCH  22  27
BRANCH  26  29
HETATM   29  O2  UNL     1       7.472   6.529  21.821  1.00  0.00    -0.281 OA
ATOM     30  H2  UNL     1       7.728   7.002  21.038  1.00  0.00     0.245 HD
ENDBRANCH  26  29
ENDBRANCH  16  21
ENDBRANCH  14  15
ENDBRANCH  13  14
ENDBRANCH   1  13
BRANCH   8  31
HETATM   31  C15 UNL     1       7.918   4.577  18.873  1.00  0.00     0.013 A 
HETATM   32  C16 UNL     1       7.178   3.589  19.478  1.00  0.00     0.015 A 
HETATM   33  C17 UNL     1       7.614   2.262  19.412  1.00  0.00     0.004 A 
HETATM   34  C18 UNL     1       8.772   1.898  18.757  1.00  0.00     0.042 A 
HETATM   35  C19 UNL     1       9.501   2.900  18.156  1.00  0.00     0.117 A 
HETATM   36  F1  UNL     1      10.640   2.525  17.514  1.00  0.00    -0.206 F 
HETATM   37  C20 UNL     1       9.074   4.214  18.218  1.00  0.00     0.057 A 
ENDBRANCH   8  31
TORSDOF 7
ENDMDL
MODEL 3
REMARK VINA RESULT: -8.672203302      3.976      7.484
REMARK  7 active torsions:
REMARK  status: ('A' for Active; 'I' for Inactive)
REMARK    1  A    between atoms: O1_2  and  C2_3 
REMARK    2  A    between atoms: N1_7  and  O2_8 
REMARK    3  A    between atoms: C6_10  and  N2_11 
REMARK       I    between atoms: N2_11  and  C7_12 
REMARK       I    between atoms: N2_11  and  C9_15 
REMARK    4  A    between atoms: C9_15  and  C10_17 
REMARK    5  A    between atoms: C10_17  and  C11_18 
REMARK    6  A    between atoms: C11_18  and  C12_19 
REMARK       I    between atoms: C12_19  and  N3_21 
REMARK    7  A    between atoms: C14_26  and  C15_27 
ROOT
HETATM    1  C12 UNL     1       6.988  11.608  20.770  1.00  0.00     0.236 C 
HETATM    2  O5  UNL     1       7.584  12.518  20.098  1.00  0.00    -0.273 OA
HETATM    3  N3  UNL     1       7.486  11.232  21.991  1.00  0.00    -0.158 N 
ATOM      4  H3  UNL     1       7.105  11.771  22.769  1.00  0.00     0.187 HD
HETATM    5  C13 UNL     1       8.325  10.349  22.349  1.00  0.00     0.703 A 
HETATM    6  N4  UNL     1       8.717  10.102  23.645  1.00  0.00    -0.173 N 
ATOM      7  H4  UNL     1       8.379  10.599  24.468  1.00  0.00     0.186 HD
HETATM    8  C14 UNL     1       9.601   9.118  23.657  1.00  0.00     0.146 A 
HETATM    9  N5  UNL     1       9.766   8.745  22.384  1.00  0.00    -0.268 N 
ATOM     10  H5  UNL     1      10.387   8.004  22.062  1.00  0.00     0.189 HD
HETATM   11  N6  UNL     1       8.994   9.493  21.608  1.00  0.00    -0.126 N 
HETATM   12  C21 UNL     1       8.972   9.307  20.172  1.00  0.00     0.197 C 
ENDROOT
BRANCH   1  13
HETATM   13  C11 UNL     1       5.774  11.019  20.152  1.00  0.00     0.113 C 
BRANCH  13  14
HETATM   14  C10 UNL     1       4.876  10.375  21.187  1.00  0.00     0.113 C 
BRANCH  14  15
HETATM   15  C9  UNL     1       5.083   8.885  21.185  1.00  0.00     0.232 C 
HETATM   16  N2  UNL     1       4.600   8.065  22.236  1.00  0.00    -0.233 N 
HETATM   17  C7  UNL     1       4.792   6.669  22.228  1.00  0.00     0.228 C 
HETATM   18  C8  UNL     1       5.491   5.940  21.155  1.00  0.00     0.118 C 
HETATM   19  O3  UNL     1       4.338   6.012  23.202  1.00  0.00    -0.273 OA
HETATM   20  O4  UNL     1       5.696   8.365  20.228  1.00  0.00    -0.273 OA
BRANCH  16  21
HETATM   21  C6  UNL     1       3.906   8.720  23.312  1.00  0.00     0.177 A 
HETATM   22  C2  UNL     1       2.548   8.871  23.222  1.00  0.00     0.115 A 
HETATM   23  C3  UNL     1       1.813   9.502  24.235  1.00  0.00     0.042 A 
HETATM   24  C4  UNL     1       2.516   9.965  25.323  1.00  0.00     0.023 A 
HETATM   25  C5  UNL     1       3.887   9.795  25.378  1.00  0.00     0.125 A 
HETATM   26  N1  UNL     1       4.551   9.184  24.386  1.00  0.00    -0.216 N 
BRANCH  22  27
HETATM   27  O1  UNL     1       1.829   8.411  22.135  1.00  0.00    -0.352 OA
HETATM   28  C1  UNL     1       1.027   7.249  22.198  1.00  0.00     0.210 C 
ENDBRANCH  22  27
BRANCH  26  29
HETATM   29  O2  UNL     1       5.928   9.055  24.521  1.00  0.00    -0.281 OA
ATOM     30  H2  UNL     1       6.475   9.549  23.921  1.00  0.00     0.245 HD
ENDBRANCH  26  29
ENDBRANCH  16  21
ENDBRANCH  14  15
ENDBRANCH  13  14
ENDBRANCH   1  13
BRANCH   8  31
HETATM   31  C15 UNL     1      10.265   8.550  24.842  1.00  0.00     0.013 A 
HETATM   32  C16 UNL     1       9.544   8.009  25.881  1.00  0.00     0.015 A 
HETATM   33  C17 UNL     1      10.218   7.481  26.987  1.00  0.00     0.004 A 
HETATM   34  C18 UNL     1      11.593   7.479  27.081  1.00  0.00     0.042 A 
HETATM   35  C19 UNL     1      12.300   8.025  26.031  1.00  0.00     0.117 A 
HETATM   36  F1  UNL     1      13.656   8.016  26.138  1.00  0.00    -0.206 F 
HETATM   37  C20 UNL     1      11.639   8.548  24.936  1.00  0.00     0.057 A 
ENDBRANCH   8  31
TORSDOF 7
ENDMDL
MODEL 4
REMARK VINA RESULT: -8.483289704      2.296      5.022
REMARK  7 active torsions:
REMARK  status: ('A' for Active; 'I' for Inactive)
REMARK    1  A    between atoms: O1_2  and  C2_3 
REMARK    2  A    between atoms: N1_7  and  O2_8 
REMARK    3  A    between atoms: C6_10  and  N2_11 
REMARK       I    between atoms: N2_11  and  C7_12 
REMARK       I    between atoms: N2_11  and  C9_15 
REMARK    4  A    between atoms: C9_15  and  C10_17 
REMARK    5  A    between atoms: C10_17  and  C11_18 
REMARK    6  A    between atoms: C11_18  and  C12_19 
REMARK       I    between atoms: C12_19  and  N3_21 
REMARK    7  A    between atoms: C14_26  and  C15_27 
ROOT
HETATM    1  C12 UNL     1       6.830   9.682  22.171  1.00  0.00     0.236 C 
HETATM    2  O5  UNL     1       7.803  10.430  22.531  1.00  0.00    -0.273 OA
HETATM    3  N3  UNL     1       7.039   8.338  21.998  1.00  0.00    -0.158 N 
ATOM      4  H3  UNL     1       6.881   7.790  22.844  1.00  0.00     0.187 HD
HETATM    5  C13 UNL     1       7.387   7.637  20.998  1.00  0.00     0.703 A 
HETATM    6  N4  UNL     1       7.551   6.271  21.001  1.00  0.00    -0.173 N 
ATOM      7  H4  UNL     1       7.412   5.662  21.807  1.00  0.00     0.186 HD
HETATM    8  C14 UNL     1       7.919   5.870  19.795  1.00  0.00     0.146 A 
HETATM    9  N5  UNL     1       7.985   6.968  19.038  1.00  0.00    -0.268 N 
ATOM     10  H5  UNL     1       8.242   6.991  18.051  1.00  0.00     0.189 HD
HETATM   11  N6  UNL     1       7.664   8.024  19.772  1.00  0.00    -0.126 N 
HETATM   12  C21 UNL     1       7.653   9.356  19.204  1.00  0.00     0.197 C 
ENDROOT
BRANCH   1  13
HETATM   13  C11 UNL     1       5.522  10.352  21.966  1.00  0.00     0.113 C 
BRANCH  13  14
HETATM   14  C10 UNL     1       4.423   9.354  21.671  1.00  0.00     0.113 C 
BRANCH  14  15
HETATM   15  C9  UNL     1       3.566   9.163  22.892  1.00  0.00     0.232 C 
HETATM   16  N2  UNL     1       2.984   7.908  23.205  1.00  0.00    -0.233 N 
HETATM   17  C7  UNL     1       2.186   7.732  24.351  1.00  0.00     0.228 C 
HETATM   18  C8  UNL     1       1.887   8.802  25.319  1.00  0.00     0.118 C 
HETATM   19  O3  UNL     1       1.700   6.588  24.555  1.00  0.00    -0.273 OA
HETATM   20  O4  UNL     1       3.369  10.139  23.647  1.00  0.00    -0.273 OA
BRANCH  16  21
HETATM   21  C6  UNL     1       3.243   6.822  22.297  1.00  0.00     0.177 A 
HETATM   22  C2  UNL     1       2.348   6.583  21.288  1.00  0.00     0.115 A 
HETATM   23  C3  UNL     1       2.541   5.540  20.372  1.00  0.00     0.042 A 
HETATM   24  C4  UNL     1       3.668   4.767  20.531  1.00  0.00     0.023 A 
HETATM   25  C5  UNL     1       4.548   5.039  21.562  1.00  0.00     0.125 A 
HETATM   26  N1  UNL     1       4.325   6.048  22.416  1.00  0.00    -0.216 N 
BRANCH  22  27
HETATM   27  O1  UNL     1       1.213   7.351  21.117  1.00  0.00    -0.352 OA
HETATM   28  C1  UNL     1       1.097   8.305  20.081  1.00  0.00     0.210 C 
ENDBRANCH  22  27
BRANCH  26  29
HETATM   29  O2  UNL     1       5.260   6.252  23.424  1.00  0.00    -0.281 OA
ATOM     30  H2  UNL     1       5.882   6.961  23.308  1.00  0.00     0.245 HD
ENDBRANCH  26  29
ENDBRANCH  16  21
ENDBRANCH  14  15
ENDBRANCH  13  14
ENDBRANCH   1  13
BRANCH   8  31
HETATM   31  C15 UNL     1       8.195   4.485  19.379  1.00  0.00     0.013 A 
HETATM   32  C16 UNL     1       7.613   3.413  20.013  1.00  0.00     0.015 A 
HETATM   33  C17 UNL     1       7.905   2.114  19.582  1.00  0.00     0.004 A 
HETATM   34  C18 UNL     1       8.763   1.861  18.533  1.00  0.00     0.042 A 
HETATM   35  C19 UNL     1       9.337   2.947  17.908  1.00  0.00     0.117 A 
HETATM   36  F1  UNL     1      10.181   2.680  16.875  1.00  0.00    -0.206 F 
HETATM   37  C20 UNL     1       9.052   4.232  18.330  1.00  0.00     0.057 A 
ENDBRANCH   8  31
TORSDOF 7
ENDMDL
MODEL 5
REMARK VINA RESULT: -8.467692702      3.250      6.613
REMARK  7 active torsions:
REMARK  status: ('A' for Active; 'I' for Inactive)
REMARK    1  A    between atoms: O1_2  and  C2_3 
REMARK    2  A    between atoms: N1_7  and  O2_8 
REMARK    3  A    between atoms: C6_10  and  N2_11 
REMARK       I    between atoms: N2_11  and  C7_12 
REMARK       I    between atoms: N2_11  and  C9_15 
REMARK    4  A    between atoms: C9_15  and  C10_17 
REMARK    5  A    between atoms: C10_17  and  C11_18 
REMARK    6  A    between atoms: C11_18  and  C12_19 
REMARK       I    between atoms: C12_19  and  N3_21 
REMARK    7  A    between atoms: C14_26  and  C15_27 
ROOT
HETATM    1  C12 UNL     1       3.496   7.114  22.931  1.00  0.00     0.236 C 
HETATM    2  O5  UNL     1       2.512   7.287  23.730  1.00  0.00    -0.273 OA
HETATM    3  N3  UNL     1       4.759   6.947  23.439  1.00  0.00    -0.158 N 
ATOM      4  H3  UNL     1       4.999   5.973  23.619  1.00  0.00     0.187 HD
HETATM    5  C13 UNL     1       5.690   7.760  23.728  1.00  0.00     0.703 A 
HETATM    6  N4  UNL     1       6.920   7.414  24.239  1.00  0.00    -0.173 N 
ATOM      7  H4  UNL     1       7.227   6.463  24.443  1.00  0.00     0.186 HD
HETATM    8  C14 UNL     1       7.643   8.506  24.422  1.00  0.00     0.146 A 
HETATM    9  N5  UNL     1       6.882   9.532  24.031  1.00  0.00    -0.268 N 
ATOM     10  H5  UNL     1       7.158  10.513  24.050  1.00  0.00     0.189 HD
HETATM   11  N6  UNL     1       5.710   9.071  23.616  1.00  0.00    -0.126 N 
HETATM   12  C21 UNL     1       4.680   9.968  23.135  1.00  0.00     0.197 C 
ENDROOT
BRANCH   1  13
HETATM   13  C11 UNL     1       3.177   7.109  21.482  1.00  0.00     0.113 C 
BRANCH  13  14
HETATM   14  C10 UNL     1       4.371   7.516  20.645  1.00  0.00     0.113 C 
BRANCH  14  15
HETATM   15  C9  UNL     1       4.824   6.354  19.804  1.00  0.00     0.232 C 
HETATM   16  N2  UNL     1       6.155   6.257  19.323  1.00  0.00    -0.233 N 
HETATM   17  C7  UNL     1       6.577   5.165  18.540  1.00  0.00     0.228 C 
HETATM   18  C8  UNL     1       5.704   4.041  18.155  1.00  0.00     0.118 C 
HETATM   19  O3  UNL     1       7.773   5.156  18.146  1.00  0.00    -0.273 OA
HETATM   20  O4  UNL     1       4.002   5.455  19.529  1.00  0.00    -0.273 OA
BRANCH  16  21
HETATM   21  C6  UNL     1       7.055   7.324  19.669  1.00  0.00     0.177 A 
HETATM   22  C2  UNL     1       7.103   8.430  18.863  1.00  0.00     0.115 A 
HETATM   23  C3  UNL     1       7.960   9.503  19.143  1.00  0.00     0.042 A 
HETATM   24  C4  UNL     1       8.751   9.396  20.263  1.00  0.00     0.023 A 
HETATM   25  C5  UNL     1       8.676   8.264  21.053  1.00  0.00     0.125 A 
HETATM   26  N1  UNL     1       7.840   7.261  20.748  1.00  0.00    -0.216 N 
BRANCH  22  27
HETATM   27  O1  UNL     1       6.314   8.550  17.734  1.00  0.00    -0.352 OA
HETATM   28  C1  UNL     1       5.465   9.658  17.523  1.00  0.00     0.210 C 
ENDBRANCH  22  27
BRANCH  26  29
HETATM   29  O2  UNL     1       7.827   6.159  21.595  1.00  0.00    -0.281 OA
ATOM     30  H2  UNL     1       7.073   5.582  21.552  1.00  0.00     0.245 HD
ENDBRANCH  26  29
ENDBRANCH  16  21
ENDBRANCH  14  15
ENDBRANCH  13  14
ENDBRANCH   1  13
BRANCH   8  31
HETATM   31  C15 UNL     1       9.017   8.569  24.950  1.00  0.00     0.013 A 
HETATM   32  C16 UNL     1       9.977   9.361  24.365  1.00  0.00     0.015 A 
HETATM   33  C17 UNL     1      11.268   9.389  24.902  1.00  0.00     0.004 A 
HETATM   34  C18 UNL     1      11.624   8.646  26.008  1.00  0.00     0.042 A 
HETATM   35  C19 UNL     1      10.649   7.859  26.582  1.00  0.00     0.117 A 
HETATM   36  F1  UNL     1      11.015   7.133  27.672  1.00  0.00    -0.206 F 
HETATM   37  C20 UNL     1       9.371   7.827  26.055  1.00  0.00     0.057 A 
ENDBRANCH   8  31
TORSDOF 7
ENDMDL
