MODEL 1
REMARK VINA RESULT: -7.722900658      0.000      0.000
REMARK  10 active torsions:
REMARK  status: ('A' for Active; 'I' for Inactive)
REMARK    1  A    between atoms: O1_2  and  C2_3 
REMARK    2  A    between atoms: C4_5  and  C5_6 
REMARK    3  A    between atoms: C5_6  and  O2_7 
REMARK    4  A    between atoms: C5_6  and  N1_9 
REMARK    5  A    between atoms: N1_9  and  C7_11 
REMARK    6  A    between atoms: C7_11  and  C8_12 
REMARK       I    between atoms: C8_12  and  N2_14 
REMARK    7  A    between atoms: N2_14  and  C9_16 
REMARK    8  A    between atoms: C15_25  and  S1_26 
REMARK    9  A    between atoms: S1_26  and  N4_29 
REMARK   10  A    between atoms: C18_32  and  O6_33 
ROOT
HETATM    1  C5  UNL     1       6.989   4.904  20.692  1.00  0.00     0.148 C 
ENDROOT
BRANCH   1   2
HETATM    2  C4  UNL     1       7.515   6.226  20.567  1.00  0.00     0.019 A 
HETATM    3  C3  UNL     1       7.516   6.940  19.391  1.00  0.00     0.055 A 
HETATM    4  C2  UNL     1       8.038   8.237  19.299  1.00  0.00     0.104 A 
HETATM    5  C18 UNL     1       8.557   8.787  20.433  1.00  0.00     0.124 A 
HETATM    6  C15 UNL     1       8.589   8.132  21.644  1.00  0.00     0.111 A 
HETATM    7  C14 UNL     1       8.071   6.869  21.698  1.00  0.00     0.043 A 
BRANCH   4   8
HETATM    8  O1  UNL     1       8.012   8.903  18.095  1.00  0.00    -0.353 OA
HETATM    9  C1  UNL     1       6.780   9.279  17.532  1.00  0.00     0.210 C 
ENDBRANCH   4   8
BRANCH   5  10
HETATM   10  O6  UNL     1       9.074  10.073  20.341  1.00  0.00    -0.352 OA
HETATM   11  C19 UNL     1       8.158  11.144  20.224  1.00  0.00     0.210 C 
ENDBRANCH   5  10
BRANCH   6  12
HETATM   12  S1  UNL     1       9.278   8.917  23.063  1.00  0.00     0.245 S 
HETATM   13  O4  UNL     1       8.771  10.294  23.264  1.00  0.00    -0.206 OA
HETATM   14  O5  UNL     1      10.779   9.006  22.830  1.00  0.00    -0.206 OA
BRANCH  12  15
HETATM   15  N4  UNL     1       9.039   8.001  24.474  1.00  0.00    -0.215 NA
HETATM   16  C16 UNL     1      10.157   7.944  25.360  1.00  0.00     0.129 C 
HETATM   17  C17 UNL     1       7.809   8.263  25.145  1.00  0.00     0.129 C 
ENDBRANCH  12  15
ENDBRANCH   6  12
ENDBRANCH   1   2
BRANCH   1  18
HETATM   18  O2  UNL     1       7.890   3.982  20.880  1.00  0.00    -0.346 OA
ATOM     19  H2  UNL     1       8.454   4.131  21.630  1.00  0.00     0.219 HD
ENDBRANCH   1  18
BRANCH   1  20
HETATM   20  N1  UNL     1       5.686   4.427  20.648  1.00  0.00    -0.357 N 
HETATM   21  C6  UNL     1       4.937   3.673  21.601  1.00  0.00     0.152 C 
BRANCH  20  22
HETATM   22  C7  UNL     1       4.892   4.742  19.404  1.00  0.00     0.227 C 
BRANCH  22  23
HETATM   23  C8  UNL     1       5.027   3.619  18.456  1.00  0.00     0.241 C 
HETATM   24  O3  UNL     1       4.200   2.649  18.525  1.00  0.00    -0.271 OA
HETATM   25  N2  UNL     1       6.009   3.525  17.465  1.00  0.00    -0.312 N 
ATOM     26  H2  UNL     1       5.791   3.903  16.543  1.00  0.00     0.170 HD
BRANCH  25  27
HETATM   27  C9  UNL     1       7.170   2.991  17.638  1.00  0.00     0.107 A 
HETATM   28  C10 UNL     1       8.253   3.440  16.894  1.00  0.00     0.051 A 
HETATM   29  C11 UNL     1       9.499   2.872  17.076  1.00  0.00     0.047 A 
HETATM   30  C12 UNL     1       9.687   1.859  17.992  1.00  0.00     0.131 A 
HETATM   31  F1  UNL     1      10.908   1.315  18.158  1.00  0.00    -0.205 F 
HETATM   32  C13 UNL     1       8.583   1.449  18.706  1.00  0.00     0.132 A 
HETATM   33  N3  UNL     1       7.373   2.007  18.522  1.00  0.00    -0.349 N 
ATOM     34  H3  UNL     1       6.584   1.670  19.075  1.00  0.00     0.167 HD
ENDBRANCH  25  27
ENDBRANCH  22  23
ENDBRANCH  20  22
ENDBRANCH   1  20
TORSDOF 10
ENDMDL
MODEL 2
REMARK VINA RESULT: -7.662551945      3.383      7.409
REMARK  10 active torsions:
REMARK  status: ('A' for Active; 'I' for Inactive)
REMARK    1  A    between atoms: O1_2  and  C2_3 
REMARK    2  A    between atoms: C4_5  and  C5_6 
REMARK    3  A    between atoms: C5_6  and  O2_7 
REMARK    4  A    between atoms: C5_6  and  N1_9 
REMARK    5  A    between atoms: N1_9  and  C7_11 
REMARK    6  A    between atoms: C7_11  and  C8_12 
REMARK       I    between atoms: C8_12  and  N2_14 
REMARK    7  A    between atoms: N2_14  and  C9_16 
REMARK    8  A    between atoms: C15_25  and  S1_26 
REMARK    9  A    between atoms: S1_26  and  N4_29 
REMARK   10  A    between atoms: C18_32  and  O6_33 
ROOT
HETATM    1  C5  UNL     1       7.159   6.661  21.389  1.00  0.00     0.148 C 
ENDROOT
BRANCH   1   2
HETATM    2  C4  UNL     1       7.081   6.205  20.037  1.00  0.00     0.019 A 
HETATM    3  C3  UNL     1       6.633   6.982  18.995  1.00  0.00     0.055 A 
HETATM    4  C2  UNL     1       6.570   6.508  17.678  1.00  0.00     0.104 A 
HETATM    5  C18 UNL     1       6.974   5.227  17.451  1.00  0.00     0.124 A 
HETATM    6  C15 UNL     1       7.435   4.393  18.446  1.00  0.00     0.111 A 
HETATM    7  C14 UNL     1       7.484   4.887  19.718  1.00  0.00     0.043 A 
BRANCH   4   8
HETATM    8  O1  UNL     1       6.112   7.331  16.674  1.00  0.00    -0.353 OA
HETATM    9  C1  UNL     1       5.738   8.653  16.970  1.00  0.00     0.210 C 
ENDBRANCH   4   8
BRANCH   5  10
HETATM   10  O6  UNL     1       6.911   4.758  16.145  1.00  0.00    -0.352 OA
HETATM   11  C19 UNL     1       5.635   4.464  15.611  1.00  0.00     0.210 C 
ENDBRANCH   5  10
BRANCH   6  12
HETATM   12  S1  UNL     1       7.940   2.749  18.066  1.00  0.00     0.245 S 
HETATM   13  O4  UNL     1       6.877   1.954  17.409  1.00  0.00    -0.206 OA
HETATM   14  O5  UNL     1       8.270   2.073  19.390  1.00  0.00    -0.206 OA
BRANCH  12  15
HETATM   15  N4  UNL     1       9.352   2.721  17.119  1.00  0.00    -0.215 NA
HETATM   16  C16 UNL     1      10.480   2.092  17.726  1.00  0.00     0.129 C 
HETATM   17  C17 UNL     1       9.146   2.315  15.768  1.00  0.00     0.129 C 
ENDBRANCH  12  15
ENDBRANCH   6  12
ENDBRANCH   1   2
BRANCH   1  18
HETATM   18  O2  UNL     1       8.229   6.274  22.026  1.00  0.00    -0.346 OA
ATOM     19  H2  UNL     1       8.082   6.045  22.936  1.00  0.00     0.219 HD
ENDBRANCH   1  18
BRANCH   1  20
HETATM   20  N1  UNL     1       6.297   7.443  22.146  1.00  0.00    -0.357 N 
HETATM   21  C6  UNL     1       4.913   7.274  22.454  1.00  0.00     0.152 C 
BRANCH  20  22
HETATM   22  C7  UNL     1       6.883   8.685  22.771  1.00  0.00     0.227 C 
BRANCH  22  23
HETATM   23  C8  UNL     1       6.948   8.496  24.233  1.00  0.00     0.241 C 
HETATM   24  O3  UNL     1       6.300   9.295  24.988  1.00  0.00    -0.271 OA
HETATM   25  N2  UNL     1       7.678   7.493  24.877  1.00  0.00    -0.312 N 
ATOM     26  H2  UNL     1       7.204   6.610  25.072  1.00  0.00     0.170 HD
BRANCH  25  27
HETATM   27  C9  UNL     1       8.910   7.608  25.242  1.00  0.00     0.107 A 
HETATM   28  C10 UNL     1       9.799   8.321  24.450  1.00  0.00     0.051 A 
HETATM   29  C11 UNL     1      11.119   8.449  24.836  1.00  0.00     0.047 A 
HETATM   30  C12 UNL     1      11.572   7.875  26.005  1.00  0.00     0.131 A 
HETATM   31  F1  UNL     1      12.862   8.007  26.369  1.00  0.00    -0.205 F 
HETATM   32  C13 UNL     1      10.652   7.178  26.756  1.00  0.00     0.132 A 
HETATM   33  N3  UNL     1       9.368   7.059  26.373  1.00  0.00    -0.349 N 
ATOM     34  H3  UNL     1       8.723   6.532  26.963  1.00  0.00     0.167 HD
ENDBRANCH  25  27
ENDBRANCH  22  23
ENDBRANCH  20  22
ENDBRANCH   1  20
TORSDOF 10
ENDMDL
MODEL 3
REMARK VINA RESULT: -7.481477513      4.785      8.398
REMARK  10 active torsions:
REMARK  status: ('A' for Active; 'I' for Inactive)
REMARK    1  A    between atoms: O1_2  and  C2_3 
REMARK    2  A    between atoms: C4_5  and  C5_6 
REMARK    3  A    between atoms: C5_6  and  O2_7 
REMARK    4  A    between atoms: C5_6  and  N1_9 
REMARK    5  A    between atoms: N1_9  and  C7_11 
REMARK    6  A    between atoms: C7_11  and  C8_12 
REMARK       I    between atoms: C8_12  and  N2_14 
REMARK    7  A    between atoms: N2_14  and  C9_16 
REMARK    8  A    between atoms: C15_25  and  S1_26 
REMARK    9  A    between atoms: S1_26  and  N4_29 
REMARK   10  A    between atoms: C18_32  and  O6_33 
ROOT
HETATM    1  C5  UNL     1       5.598   8.806  23.634  1.00  0.00     0.148 C 
ENDROOT
BRANCH   1   2
HETATM    2  C4  UNL     1       4.399   8.086  23.925  1.00  0.00     0.019 A 
HETATM    3  C3  UNL     1       3.314   8.636  24.565  1.00  0.00     0.055 A 
HETATM    4  C2  UNL     1       2.149   7.905  24.834  1.00  0.00     0.104 A 
HETATM    5  C18 UNL     1       2.119   6.602  24.436  1.00  0.00     0.124 A 
HETATM    6  C15 UNL     1       3.168   5.986  23.790  1.00  0.00     0.111 A 
HETATM    7  C14 UNL     1       4.288   6.728  23.543  1.00  0.00     0.043 A 
BRANCH   4   8
HETATM    8  O1  UNL     1       1.094   8.509  25.478  1.00  0.00    -0.353 OA
HETATM    9  C1  UNL     1       0.481   9.638  24.908  1.00  0.00     0.210 C 
ENDBRANCH   4   8
BRANCH   5  10
HETATM   10  O6  UNL     1       0.965   5.878  24.704  1.00  0.00    -0.352 OA
HETATM   11  C19 UNL     1      -0.152   6.084  23.861  1.00  0.00     0.210 C 
ENDBRANCH   5  10
BRANCH   6  12
HETATM   12  S1  UNL     1       3.046   4.296  23.308  1.00  0.00     0.245 S 
HETATM   13  O4  UNL     1       2.631   3.406  24.416  1.00  0.00    -0.206 OA
HETATM   14  O5  UNL     1       4.437   3.864  22.864  1.00  0.00    -0.206 OA
BRANCH  12  15
HETATM   15  N4  UNL     1       2.006   4.089  21.979  1.00  0.00    -0.215 NA
HETATM   16  C16 UNL     1       2.094   5.097  20.973  1.00  0.00     0.129 C 
HETATM   17  C17 UNL     1       1.991   2.767  21.444  1.00  0.00     0.129 C 
ENDBRANCH  12  15
ENDBRANCH   6  12
ENDBRANCH   1   2
BRANCH   1  18
HETATM   18  O2  UNL     1       6.216   9.268  24.685  1.00  0.00    -0.346 OA
ATOM     19  H2  UNL     1       7.005   9.761  24.492  1.00  0.00     0.219 HD
ENDBRANCH   1  18
BRANCH   1  20
HETATM   20  N1  UNL     1       6.223   9.102  22.430  1.00  0.00    -0.357 N 
HETATM   21  C6  UNL     1       6.012  10.173  21.510  1.00  0.00     0.152 C 
BRANCH  20  22
HETATM   22  C7  UNL     1       7.318   8.164  21.988  1.00  0.00     0.227 C 
BRANCH  22  23
HETATM   23  C8  UNL     1       8.620   8.837  22.160  1.00  0.00     0.241 C 
HETATM   24  O3  UNL     1       9.454   8.825  21.194  1.00  0.00    -0.271 OA
HETATM   25  N2  UNL     1       9.027   9.503  23.320  1.00  0.00    -0.312 N 
ATOM     26  H2  UNL     1       8.824  10.500  23.392  1.00  0.00     0.170 HD
BRANCH  25  27
HETATM   27  C9  UNL     1       9.643   8.941  24.305  1.00  0.00     0.107 A 
HETATM   28  C10 UNL     1      11.026   8.826  24.277  1.00  0.00     0.051 A 
HETATM   29  C11 UNL     1      11.690   8.225  25.328  1.00  0.00     0.047 A 
HETATM   30  C12 UNL     1      10.997   7.734  26.414  1.00  0.00     0.131 A 
HETATM   31  F1  UNL     1      11.658   7.151  27.432  1.00  0.00    -0.205 F 
HETATM   32  C13 UNL     1       9.627   7.872  26.395  1.00  0.00     0.132 A 
HETATM   33  N3  UNL     1       8.988   8.458  25.366  1.00  0.00    -0.349 N 
ATOM     34  H3  UNL     1       7.971   8.537  25.397  1.00  0.00     0.167 HD
ENDBRANCH  25  27
ENDBRANCH  22  23
ENDBRANCH  20  22
ENDBRANCH   1  20
TORSDOF 10
ENDMDL
MODEL 4
REMARK VINA RESULT: -7.425816289      3.027      7.258
REMARK  10 active torsions:
REMARK  status: ('A' for Active; 'I' for Inactive)
REMARK    1  A    between atoms: O1_2  and  C2_3 
REMARK    2  A    between atoms: C4_5  and  C5_6 
REMARK    3  A    between atoms: C5_6  and  O2_7 
REMARK    4  A    between atoms: C5_6  and  N1_9 
REMARK    5  A    between atoms: N1_9  and  C7_11 
REMARK    6  A    between atoms: C7_11  and  C8_12 
REMARK       I    between atoms: C8_12  and  N2_14 
REMARK    7  A    between atoms: N2_14  and  C9_16 
REMARK    8  A    between atoms: C15_25  and  S1_26 
REMARK    9  A    between atoms: S1_26  and  N4_29 
REMARK   10  A    between atoms: C18_32  and  O6_33 
ROOT
HETATM    1  C5  UNL     1       7.308   7.148  21.760  1.00  0.00     0.148 C 
ENDROOT
BRANCH   1   2
HETATM    2  C4  UNL     1       7.179   6.716  20.405  1.00  0.00     0.019 A 
HETATM    3  C3  UNL     1       6.774   7.535  19.378  1.00  0.00     0.055 A 
HETATM    4  C2  UNL     1       6.658   7.083  18.056  1.00  0.00     0.104 A 
HETATM    5  C18 UNL     1       6.966   5.779  17.810  1.00  0.00     0.124 A 
HETATM    6  C15 UNL     1       7.379   4.902  18.789  1.00  0.00     0.111 A 
HETATM    7  C14 UNL     1       7.481   5.376  20.065  1.00  0.00     0.043 A 
BRANCH   4   8
HETATM    8  O1  UNL     1       6.247   7.949  17.069  1.00  0.00    -0.353 OA
HETATM    9  C1  UNL     1       6.074   9.312  17.362  1.00  0.00     0.210 C 
ENDBRANCH   4   8
BRANCH   5  10
HETATM   10  O6  UNL     1       6.851   5.331  16.500  1.00  0.00    -0.352 OA
HETATM   11  C19 UNL     1       5.551   5.102  15.993  1.00  0.00     0.210 C 
ENDBRANCH   5  10
BRANCH   6  12
HETATM   12  S1  UNL     1       7.759   3.230  18.383  1.00  0.00     0.245 S 
HETATM   13  O4  UNL     1       6.597   2.488  17.841  1.00  0.00    -0.206 OA
HETATM   14  O5  UNL     1       8.180   2.548  19.678  1.00  0.00    -0.206 OA
BRANCH  12  15
HETATM   15  N4  UNL     1       9.069   3.120  17.306  1.00  0.00    -0.215 NA
HETATM   16  C16 UNL     1      10.215   2.435  17.809  1.00  0.00     0.129 C 
HETATM   17  C17 UNL     1       8.713   2.717  15.985  1.00  0.00     0.129 C 
ENDBRANCH  12  15
ENDBRANCH   6  12
ENDBRANCH   1   2
BRANCH   1  18
HETATM   18  O2  UNL     1       8.279   6.576  22.417  1.00  0.00    -0.346 OA
ATOM     19  H2  UNL     1       8.501   7.001  23.237  1.00  0.00     0.219 HD
ENDBRANCH   1  18
BRANCH   1  20
HETATM   20  N1  UNL     1       6.583   8.070  22.504  1.00  0.00    -0.357 N 
HETATM   21  C6  UNL     1       5.589   7.880  23.510  1.00  0.00     0.152 C 
BRANCH  20  22
HETATM   22  C7  UNL     1       6.868   9.527  22.238  1.00  0.00     0.227 C 
BRANCH  22  23
HETATM   23  C8  UNL     1       8.328   9.740  22.273  1.00  0.00     0.241 C 
HETATM   24  O3  UNL     1       9.002   9.578  21.202  1.00  0.00    -0.271 OA
HETATM   25  N2  UNL     1       9.053  10.115  23.408  1.00  0.00    -0.312 N 
ATOM     26  H2  UNL     1       9.191  11.111  23.578  1.00  0.00     0.170 HD
BRANCH  25  27
HETATM   27  C9  UNL     1       9.560   9.284  24.256  1.00  0.00     0.107 A 
HETATM   28  C10 UNL     1      10.936   9.106  24.307  1.00  0.00     0.051 A 
HETATM   29  C11 UNL     1      11.484   8.219  25.213  1.00  0.00     0.047 A 
HETATM   30  C12 UNL     1      10.681   7.500  26.073  1.00  0.00     0.131 A 
HETATM   31  F1  UNL     1      11.229   6.638  26.951  1.00  0.00    -0.205 F 
HETATM   32  C13 UNL     1       9.323   7.713  25.983  1.00  0.00     0.132 A 
HETATM   33  N3  UNL     1       8.797   8.579  25.099  1.00  0.00    -0.349 N 
ATOM     34  H3  UNL     1       7.785   8.701  25.069  1.00  0.00     0.167 HD
ENDBRANCH  25  27
ENDBRANCH  22  23
ENDBRANCH  20  22
ENDBRANCH   1  20
TORSDOF 10
ENDMDL
MODEL 5
REMARK VINA RESULT: -7.387102470      3.461      8.104
REMARK  10 active torsions:
REMARK  status: ('A' for Active; 'I' for Inactive)
REMARK    1  A    between atoms: O1_2  and  C2_3 
REMARK    2  A    between atoms: C4_5  and  C5_6 
REMARK    3  A    between atoms: C5_6  and  O2_7 
REMARK    4  A    between atoms: C5_6  and  N1_9 
REMARK    5  A    between atoms: N1_9  and  C7_11 
REMARK    6  A    between atoms: C7_11  and  C8_12 
REMARK       I    between atoms: C8_12  and  N2_14 
REMARK    7  A    between atoms: N2_14  and  C9_16 
REMARK    8  A    between atoms: C15_25  and  S1_26 
REMARK    9  A    between atoms: S1_26  and  N4_29 
REMARK   10  A    between atoms: C18_32  and  O6_33 
ROOT
HETATM    1  C5  UNL     1       7.816   6.105  20.379  1.00  0.00     0.148 C 
ENDROOT
BRANCH   1   2
HETATM    2  C4  UNL     1       7.901   5.341  19.175  1.00  0.00     0.019 A 
HETATM    3  C3  UNL     1       8.732   4.257  19.016  1.00  0.00     0.055 A 
HETATM    4  C2  UNL     1       8.793   3.525  17.823  1.00  0.00     0.104 A 
HETATM    5  C18 UNL     1       7.987   3.924  16.799  1.00  0.00     0.124 A 
HETATM    6  C15 UNL     1       7.129   4.999  16.889  1.00  0.00     0.111 A 
HETATM    7  C14 UNL     1       7.095   5.690  18.066  1.00  0.00     0.043 A 
BRANCH   4   8
HETATM    8  O1  UNL     1       9.645   2.449  17.720  1.00  0.00    -0.353 OA
HETATM    9  C1  UNL     1       9.425   1.307  18.509  1.00  0.00     0.210 C 
ENDBRANCH   4   8
BRANCH   5  10
HETATM   10  O6  UNL     1       8.047   3.198  15.617  1.00  0.00    -0.352 OA
HETATM   11  C19 UNL     1       7.364   1.961  15.568  1.00  0.00     0.210 C 
ENDBRANCH   5  10
BRANCH   6  12
HETATM   12  S1  UNL     1       6.119   5.447  15.517  1.00  0.00     0.245 S 
HETATM   13  O4  UNL     1       6.896   5.689  14.280  1.00  0.00    -0.206 OA
HETATM   14  O5  UNL     1       5.425   6.750  15.889  1.00  0.00    -0.206 OA
BRANCH  12  15
HETATM   15  N4  UNL     1       4.904   4.296  15.220  1.00  0.00    -0.215 NA
HETATM   16  C16 UNL     1       4.198   3.844  16.375  1.00  0.00     0.129 C 
HETATM   17  C17 UNL     1       4.043   4.616  14.130  1.00  0.00     0.129 C 
ENDBRANCH  12  15
ENDBRANCH   6  12
ENDBRANCH   1   2
BRANCH   1  18
HETATM   18  O2  UNL     1       7.866   5.395  21.472  1.00  0.00    -0.346 OA
ATOM     19  H2  UNL     1       7.834   5.904  22.273  1.00  0.00     0.219 HD
ENDBRANCH   1  18
BRANCH   1  20
HETATM   20  N1  UNL     1       7.689   7.471  20.593  1.00  0.00    -0.357 N 
HETATM   21  C6  UNL     1       6.562   8.336  20.449  1.00  0.00     0.152 C 
BRANCH  20  22
HETATM   22  C7  UNL     1       8.923   8.199  21.064  1.00  0.00     0.227 C 
BRANCH  22  23
HETATM   23  C8  UNL     1       8.583   8.981  22.269  1.00  0.00     0.241 C 
HETATM   24  O3  UNL     1       8.544  10.254  22.188  1.00  0.00    -0.271 OA
HETATM   25  N2  UNL     1       8.294   8.432  23.522  1.00  0.00    -0.312 N 
ATOM     26  H2  UNL     1       7.319   8.218  23.735  1.00  0.00     0.170 HD
BRANCH  25  27
HETATM   27  C9  UNL     1       9.177   8.178  24.428  1.00  0.00     0.107 A 
HETATM   28  C10 UNL     1      10.489   8.594  24.246  1.00  0.00     0.051 A 
HETATM   29  C11 UNL     1      11.439   8.326  25.212  1.00  0.00     0.047 A 
HETATM   30  C12 UNL     1      11.103   7.646  26.364  1.00  0.00     0.131 A 
HETATM   31  F1  UNL     1      12.040   7.391  27.297  1.00  0.00    -0.205 F 
HETATM   32  C13 UNL     1       9.789   7.255  26.497  1.00  0.00     0.132 A 
HETATM   33  N3  UNL     1       8.871   7.521  25.552  1.00  0.00    -0.349 N 
ATOM     34  H3  UNL     1       7.909   7.210  25.696  1.00  0.00     0.167 HD
ENDBRANCH  25  27
ENDBRANCH  22  23
ENDBRANCH  20  22
ENDBRANCH   1  20
TORSDOF 10
ENDMDL
