MODEL 1
REMARK VINA RESULT: -6.691338178      0.000      0.000
REMARK  7 active torsions:
REMARK  status: ('A' for Active; 'I' for Inactive)
REMARK    1  A    between atoms: C2_2  and  C3_3 
REMARK    2  A    between atoms: C2_2  and  C7_20 
REMARK    3  A    between atoms: C3_3  and  C4_4 
REMARK    4  A    between atoms: C4_4  and  N1_5 
REMARK    5  A    between atoms: N1_5  and  N2_7 
REMARK    6  A    between atoms: N2_7  and  C5_9 
REMARK    7  A    between atoms: N5_16  and  N6_17 
ROOT
HETATM    1  N2  UNL     1      14.029  31.689  -0.753  1.00  0.00    -0.133 N 
ATOM      2  H2  UNL     1      14.106  32.669  -0.482  1.00  0.00     0.205 HD
ENDROOT
BRANCH   1   3
HETATM    3  N1  UNL     1      12.984  31.404  -1.534  1.00  0.00    -0.319 N 
ATOM      4  H1  UNL     1      12.082  31.756  -1.212  1.00  0.00     0.181 HD
BRANCH   3   5
HETATM    5  C4  UNL     1      12.964  30.668  -2.769  1.00  0.00     0.167 C 
BRANCH   5   6
HETATM    6  C3  UNL     1      13.654  31.448  -3.862  1.00  0.00    -0.003 C 
BRANCH   6   7
HETATM    7  C2  UNL     1      14.239  30.879  -4.890  1.00  0.00    -0.082 C 
HETATM    8  C1  UNL     1      15.319  29.869  -4.706  1.00  0.00     0.043 C 
BRANCH   7   9
HETATM    9  C7  UNL     1      13.839  31.227  -6.257  1.00  0.00     0.014 C 
HETATM   10  C8  UNL     1      12.340  31.480  -6.374  1.00  0.00     0.009 C 
HETATM   11  C9  UNL     1      11.954  31.633  -7.826  1.00  0.00     0.001 C 
HETATM   12  C10 UNL     1      13.156  31.805  -8.721  1.00  0.00     0.000 C 
HETATM   13  C11 UNL     1      14.158  30.710  -8.609  1.00  0.00     0.001 C 
HETATM   14  C12 UNL     1      14.130  30.085  -7.240  1.00  0.00     0.009 C 
ENDBRANCH   7   9
ENDBRANCH   6   7
ENDBRANCH   5   6
ENDBRANCH   3   5
ENDBRANCH   1   3
BRANCH   1  15
HETATM   15  C5  UNL     1      14.940  30.941  -0.294  1.00  0.00     0.734 A 
HETATM   16  N3  UNL     1      14.954  30.008   0.671  1.00  0.00    -0.127 N 
HETATM   17  N4  UNL     1      16.171  29.464   0.807  1.00  0.00    -0.260 N 
ATOM     18  H3  UNL     1      14.141  29.746   1.229  1.00  0.00     0.206 HD
HETATM   19  C6  UNL     1      16.966  30.058  -0.089  1.00  0.00     0.229 A 
ATOM     20  H4  UNL     1      16.440  28.736   1.469  1.00  0.00     0.190 HD
HETATM   21  S1  UNL     1      18.570  29.783  -0.366  1.00  0.00    -0.037 SA
HETATM   22  N5  UNL     1      16.248  30.951  -0.765  1.00  0.00    -0.062 N 
BRANCH  22  23
HETATM   23  N6  UNL     1      16.667  31.804  -1.798  1.00  0.00    -0.322 N 
ATOM     24  H62 UNL     1      17.284  32.615  -1.739  1.00  0.00     0.178 HD
ATOM     25  H61 UNL     1      16.370  31.677  -2.766  1.00  0.00     0.178 HD
ENDBRANCH  22  23
ENDBRANCH   1  15
TORSDOF 7
ENDMDL
MODEL 2
REMARK VINA RESULT: -6.539120896      2.019      2.960
REMARK  7 active torsions:
REMARK  status: ('A' for Active; 'I' for Inactive)
REMARK    1  A    between atoms: C2_2  and  C3_3 
REMARK    2  A    between atoms: C2_2  and  C7_20 
REMARK    3  A    between atoms: C3_3  and  C4_4 
REMARK    4  A    between atoms: C4_4  and  N1_5 
REMARK    5  A    between atoms: N1_5  and  N2_7 
REMARK    6  A    between atoms: N2_7  and  C5_9 
REMARK    7  A    between atoms: N5_16  and  N6_17 
ROOT
HETATM    1  N2  UNL     1      15.435  29.423  -1.597  1.00  0.00    -0.133 N 
ATOM      2  H2  UNL     1      15.806  29.046  -0.725  1.00  0.00     0.205 HD
ENDROOT
BRANCH   1   3
HETATM    3  N1  UNL     1      15.826  28.776  -2.697  1.00  0.00    -0.319 N 
ATOM      4  H1  UNL     1      15.810  27.757  -2.642  1.00  0.00     0.181 HD
BRANCH   3   5
HETATM    5  C4  UNL     1      16.267  29.326  -3.951  1.00  0.00     0.167 C 
BRANCH   5   6
HETATM    6  C3  UNL     1      15.094  29.539  -4.877  1.00  0.00    -0.003 C 
BRANCH   6   7
HETATM    7  C2  UNL     1      15.170  30.245  -5.981  1.00  0.00    -0.082 C 
HETATM    8  C1  UNL     1      16.484  30.650  -6.554  1.00  0.00     0.043 C 
BRANCH   7   9
HETATM    9  C7  UNL     1      13.950  30.656  -6.683  1.00  0.00     0.014 C 
HETATM   10  C8  UNL     1      14.245  31.245  -8.059  1.00  0.00     0.009 C 
HETATM   11  C9  UNL     1      12.985  31.833  -8.650  1.00  0.00     0.001 C 
HETATM   12  C10 UNL     1      11.751  31.417  -7.890  1.00  0.00     0.000 C 
HETATM   13  C11 UNL     1      11.792  31.745  -6.438  1.00  0.00     0.001 C 
HETATM   14  C12 UNL     1      13.208  31.765  -5.925  1.00  0.00     0.009 C 
ENDBRANCH   7   9
ENDBRANCH   6   7
ENDBRANCH   5   6
ENDBRANCH   3   5
ENDBRANCH   1   3
BRANCH   1  15
HETATM   15  C5  UNL     1      14.679  30.428  -1.460  1.00  0.00     0.734 A 
HETATM   16  N3  UNL     1      13.350  30.558  -1.325  1.00  0.00    -0.127 N 
HETATM   17  N4  UNL     1      12.994  31.844  -1.206  1.00  0.00    -0.260 N 
ATOM     18  H3  UNL     1      12.695  29.776  -1.314  1.00  0.00     0.206 HD
HETATM   19  C6  UNL     1      14.117  32.566  -1.266  1.00  0.00     0.229 A 
ATOM     20  H4  UNL     1      12.046  32.203  -1.092  1.00  0.00     0.190 HD
HETATM   21  S1  UNL     1      14.278  34.207  -1.174  1.00  0.00    -0.037 SA
HETATM   22  N5  UNL     1      15.147  31.736  -1.418  1.00  0.00    -0.062 N 
BRANCH  22  23
HETATM   23  N6  UNL     1      16.511  32.051  -1.528  1.00  0.00    -0.322 N 
ATOM     24  H62 UNL     1      17.141  32.393  -0.803  1.00  0.00     0.178 HD
ATOM     25  H61 UNL     1      17.024  31.958  -2.404  1.00  0.00     0.178 HD
ENDBRANCH  22  23
ENDBRANCH   1  15
TORSDOF 7
ENDMDL
MODEL 3
REMARK VINA RESULT: -6.458292442     10.188     11.309
REMARK  7 active torsions:
REMARK  status: ('A' for Active; 'I' for Inactive)
REMARK    1  A    between atoms: C2_2  and  C3_3 
REMARK    2  A    between atoms: C2_2  and  C7_20 
REMARK    3  A    between atoms: C3_3  and  C4_4 
REMARK    4  A    between atoms: C4_4  and  N1_5 
REMARK    5  A    between atoms: N1_5  and  N2_7 
REMARK    6  A    between atoms: N2_7  and  C5_9 
REMARK    7  A    between atoms: N5_16  and  N6_17 
ROOT
HETATM    1  N2  UNL     1      24.960  34.614  -5.286  1.00  0.00    -0.133 N 
ATOM      2  H2  UNL     1      25.279  34.215  -6.169  1.00  0.00     0.205 HD
ENDROOT
BRANCH   1   3
HETATM    3  N1  UNL     1      23.751  35.177  -5.332  1.00  0.00    -0.319 N 
ATOM      4  H1  UNL     1      23.720  36.133  -5.687  1.00  0.00     0.181 HD
BRANCH   3   5
HETATM    5  C4  UNL     1      22.485  34.613  -4.945  1.00  0.00     0.167 C 
BRANCH   5   6
HETATM    6  C3  UNL     1      21.593  35.674  -4.346  1.00  0.00    -0.003 C 
BRANCH   6   7
HETATM    7  C2  UNL     1      20.725  36.362  -5.049  1.00  0.00    -0.082 C 
HETATM    8  C1  UNL     1      19.658  35.688  -5.840  1.00  0.00     0.043 C 
BRANCH   7   9
HETATM    9  C7  UNL     1      20.785  37.827  -5.072  1.00  0.00     0.014 C 
HETATM   10  C8  UNL     1      21.941  38.372  -4.239  1.00  0.00     0.009 C 
HETATM   11  C9  UNL     1      21.837  39.875  -4.132  1.00  0.00     0.001 C 
HETATM   12  C10 UNL     1      20.837  40.448  -5.103  1.00  0.00     0.000 C 
HETATM   13  C11 UNL     1      19.470  39.868  -4.981  1.00  0.00     0.001 C 
HETATM   14  C12 UNL     1      19.524  38.455  -4.464  1.00  0.00     0.009 C 
ENDBRANCH   7   9
ENDBRANCH   6   7
ENDBRANCH   5   6
ENDBRANCH   3   5
ENDBRANCH   1   3
BRANCH   1  15
HETATM   15  C5  UNL     1      25.776  34.495  -4.326  1.00  0.00     0.734 A 
HETATM   16  N3  UNL     1      25.615  34.223  -3.022  1.00  0.00    -0.127 N 
HETATM   17  N4  UNL     1      26.791  34.197  -2.380  1.00  0.00    -0.260 N 
ATOM     18  H3  UNL     1      24.713  34.057  -2.577  1.00  0.00     0.206 HD
HETATM   19  C6  UNL     1      27.737  34.458  -3.288  1.00  0.00     0.229 A 
ATOM     20  H4  UNL     1      26.936  34.012  -1.388  1.00  0.00     0.190 HD
HETATM   21  S1  UNL     1      29.369  34.555  -3.058  1.00  0.00    -0.037 SA
HETATM   22  N5  UNL     1      27.151  34.642  -4.469  1.00  0.00    -0.062 N 
BRANCH  22  23
HETATM   23  N6  UNL     1      27.751  34.938  -5.703  1.00  0.00    -0.322 N 
ATOM     24  H62 UNL     1      28.744  34.981  -5.929  1.00  0.00     0.178 HD
ATOM     25  H61 UNL     1      27.206  35.153  -6.538  1.00  0.00     0.178 HD
ENDBRANCH  22  23
ENDBRANCH   1  15
TORSDOF 7
ENDMDL
MODEL 4
REMARK VINA RESULT: -6.406707130      8.360      9.697
REMARK  7 active torsions:
REMARK  status: ('A' for Active; 'I' for Inactive)
REMARK    1  A    between atoms: C2_2  and  C3_3 
REMARK    2  A    between atoms: C2_2  and  C7_20 
REMARK    3  A    between atoms: C3_3  and  C4_4 
REMARK    4  A    between atoms: C4_4  and  N1_5 
REMARK    5  A    between atoms: N1_5  and  N2_7 
REMARK    6  A    between atoms: N2_7  and  C5_9 
REMARK    7  A    between atoms: N5_16  and  N6_17 
ROOT
HETATM    1  N2  UNL     1      22.532  35.521  -3.193  1.00  0.00    -0.133 N 
ATOM      2  H2  UNL     1      22.170  34.794  -2.576  1.00  0.00     0.205 HD
ENDROOT
BRANCH   1   3
HETATM    3  N1  UNL     1      21.967  36.721  -3.036  1.00  0.00    -0.319 N 
ATOM      4  H1  UNL     1      21.467  36.864  -2.158  1.00  0.00     0.181 HD
BRANCH   3   5
HETATM    5  C4  UNL     1      21.969  37.837  -3.943  1.00  0.00     0.167 C 
BRANCH   5   6
HETATM    6  C3  UNL     1      20.623  37.978  -4.613  1.00  0.00    -0.003 C 
BRANCH   6   7
HETATM    7  C2  UNL     1      19.569  38.474  -4.008  1.00  0.00    -0.082 C 
HETATM    8  C1  UNL     1      19.460  39.928  -3.706  1.00  0.00     0.043 C 
BRANCH   7   9
HETATM    9  C7  UNL     1      18.462  37.597  -3.611  1.00  0.00     0.014 C 
HETATM   10  C8  UNL     1      18.385  36.338  -4.470  1.00  0.00     0.009 C 
HETATM   11  C9  UNL     1      17.120  35.577  -4.157  1.00  0.00     0.001 C 
HETATM   12  C10 UNL     1      16.449  36.075  -2.902  1.00  0.00     0.000 C 
HETATM   13  C11 UNL     1      16.135  37.531  -2.918  1.00  0.00     0.001 C 
HETATM   14  C12 UNL     1      17.103  38.286  -3.790  1.00  0.00     0.009 C 
ENDBRANCH   7   9
ENDBRANCH   6   7
ENDBRANCH   5   6
ENDBRANCH   3   5
ENDBRANCH   1   3
BRANCH   1  15
HETATM   15  C5  UNL     1      23.443  35.139  -3.983  1.00  0.00     0.734 A 
HETATM   16  N3  UNL     1      24.779  35.078  -3.872  1.00  0.00    -0.127 N 
HETATM   17  N4  UNL     1      25.341  34.594  -4.988  1.00  0.00    -0.260 N 
ATOM     18  H3  UNL     1      25.300  35.363  -3.043  1.00  0.00     0.206 HD
HETATM   19  C6  UNL     1      24.347  34.336  -5.844  1.00  0.00     0.229 A 
ATOM     20  H4  UNL     1      26.337  34.450  -5.153  1.00  0.00     0.190 HD
HETATM   21  S1  UNL     1      24.454  33.726  -7.374  1.00  0.00    -0.037 SA
HETATM   22  N5  UNL     1      23.193  34.656  -5.262  1.00  0.00    -0.062 N 
BRANCH  22  23
HETATM   23  N6  UNL     1      21.895  34.552  -5.786  1.00  0.00    -0.322 N 
ATOM     24  H62 UNL     1      21.155  35.254  -5.786  1.00  0.00     0.178 HD
ATOM     25  H61 UNL     1      21.556  33.706  -6.243  1.00  0.00     0.178 HD
ENDBRANCH  22  23
ENDBRANCH   1  15
TORSDOF 7
ENDMDL
MODEL 5
REMARK VINA RESULT: -6.364088484      8.858     10.122
REMARK  7 active torsions:
REMARK  status: ('A' for Active; 'I' for Inactive)
REMARK    1  A    between atoms: C2_2  and  C3_3 
REMARK    2  A    between atoms: C2_2  and  C7_20 
REMARK    3  A    between atoms: C3_3  and  C4_4 
REMARK    4  A    between atoms: C4_4  and  N1_5 
REMARK    5  A    between atoms: N1_5  and  N2_7 
REMARK    6  A    between atoms: N2_7  and  C5_9 
REMARK    7  A    between atoms: N5_16  and  N6_17 
ROOT
HETATM    1  N2  UNL     1      20.268  32.893  -6.672  1.00  0.00    -0.133 N 
ATOM      2  H2  UNL     1      20.213  32.117  -6.013  1.00  0.00     0.205 HD
ENDROOT
BRANCH   1   3
HETATM    3  N1  UNL     1      19.214  33.713  -6.661  1.00  0.00    -0.319 N 
ATOM      4  H1  UNL     1      18.300  33.259  -6.644  1.00  0.00     0.181 HD
BRANCH   3   5
HETATM    5  C4  UNL     1      19.198  35.151  -6.671  1.00  0.00     0.167 C 
BRANCH   5   6
HETATM    6  C3  UNL     1      19.606  35.694  -5.322  1.00  0.00    -0.003 C 
BRANCH   6   7
HETATM    7  C2  UNL     1      20.739  36.323  -5.115  1.00  0.00    -0.082 C 
HETATM    8  C1  UNL     1      22.006  35.578  -4.870  1.00  0.00     0.043 C 
BRANCH   7   9
HETATM    9  C7  UNL     1      20.785  37.788  -5.120  1.00  0.00     0.014 C 
HETATM   10  C8  UNL     1      21.949  38.334  -4.299  1.00  0.00     0.009 C 
HETATM   11  C9  UNL     1      21.832  39.834  -4.171  1.00  0.00     0.001 C 
HETATM   12  C10 UNL     1      20.809  40.410  -5.116  1.00  0.00     0.000 C 
HETATM   13  C11 UNL     1      19.451  39.814  -4.979  1.00  0.00     0.001 C 
HETATM   14  C12 UNL     1      19.528  38.395  -4.481  1.00  0.00     0.009 C 
ENDBRANCH   7   9
ENDBRANCH   6   7
ENDBRANCH   5   6
ENDBRANCH   3   5
ENDBRANCH   1   3
BRANCH   1  15
HETATM   15  C5  UNL     1      21.325  32.923  -7.367  1.00  0.00     0.734 A 
HETATM   16  N3  UNL     1      21.571  33.278  -8.637  1.00  0.00    -0.127 N 
HETATM   17  N4  UNL     1      22.870  33.143  -8.940  1.00  0.00    -0.260 N 
ATOM     18  H3  UNL     1      20.860  33.607  -9.290  1.00  0.00     0.206 HD
HETATM   19  C6  UNL     1      23.481  32.690  -7.841  1.00  0.00     0.229 A 
ATOM     20  H4  UNL     1      23.308  33.347  -9.838  1.00  0.00     0.190 HD
HETATM   21  S1  UNL     1      25.081  32.342  -7.637  1.00  0.00    -0.037 SA
HETATM   22  N5  UNL     1      22.572  32.550  -6.878  1.00  0.00    -0.062 N 
BRANCH  22  23
HETATM   23  N6  UNL     1      22.760  32.104  -5.561  1.00  0.00    -0.322 N 
ATOM     24  H62 UNL     1      22.093  31.630  -4.951  1.00  0.00     0.178 HD
ATOM     25  H61 UNL     1      23.643  32.223  -5.064  1.00  0.00     0.178 HD
ENDBRANCH  22  23
ENDBRANCH   1  15
TORSDOF 7
ENDMDL
