MODEL 1
REMARK VINA RESULT: -6.639203574      0.000      0.000
REMARK  2 active torsions:
REMARK  status: ('A' for Active; 'I' for Inactive)
REMARK    1  A    between atoms: N2_13  and  N3_15 
REMARK    2  A    between atoms: C8_18  and  N4_19 
ROOT
HETATM    1  C1  UNL     1     -13.523 -27.181  -6.100  1.00  0.00     0.042 C 
HETATM    2  C2  UNL     1     -12.406 -27.318  -5.095  1.00  0.00     0.158 C 
HETATM    3  O1  UNL     1     -11.186 -27.318  -5.760  1.00  0.00    -0.320 OA
HETATM    4  C3  UNL     1     -10.254 -26.719  -4.960  1.00  0.00     0.389 C 
HETATM    5  N1  UNL     1      -8.982 -27.372  -4.812  1.00  0.00     0.021 N 
ATOM      6  H11 UNL     1      -8.861 -28.379  -4.911  1.00  0.00     0.288 HD
ATOM      7  H12 UNL     1      -8.508 -27.466  -3.914  1.00  0.00     0.288 HD
HETATM    8  C4  UNL     1      -8.561 -26.416  -5.836  1.00  0.00     0.230 C 
HETATM    9  C5  UNL     1      -8.712 -26.922  -7.248  1.00  0.00     0.078 C 
HETATM   10  C6  UNL     1      -7.209 -25.811  -5.621  1.00  0.00     0.078 C 
HETATM   11  O2  UNL     1      -9.637 -25.579  -5.528  1.00  0.00    -0.289 OA
HETATM   12  C7  UNL     1     -10.923 -26.300  -3.709  1.00  0.00     0.127 C 
HETATM   13  N2  UNL     1     -10.473 -26.115  -2.537  1.00  0.00    -0.306 N 
ATOM     14  H2  UNL     1     -11.146 -25.820  -1.830  1.00  0.00     0.186 HD
HETATM   15  C8  UNL     1     -12.326 -26.133  -4.163  1.00  0.00     0.238 C 
ENDROOT
BRANCH  13  16
HETATM   16  N3  UNL     1      -9.173 -26.272  -2.122  1.00  0.00    -0.345 N 
ATOM     17  H32 UNL     1      -8.554 -25.483  -2.310  1.00  0.00     0.176 HD
ATOM     18  H31 UNL     1      -8.776 -27.085  -1.652  1.00  0.00     0.176 HD
ENDBRANCH  13  16
BRANCH  15  19
HETATM   19  N4  UNL     1     -13.265 -26.125  -3.119  1.00  0.00    -0.142 N 
HETATM   20  O3  UNL     1     -13.414 -27.114  -2.398  1.00  0.00    -0.536 OA
HETATM   21  O4  UNL     1     -14.036 -25.035  -2.871  1.00  0.00    -0.536 OA
ENDBRANCH  15  19
TORSDOF 2
ENDMDL
MODEL 2
REMARK VINA RESULT: -6.251670388      2.264      3.094
REMARK  2 active torsions:
REMARK  status: ('A' for Active; 'I' for Inactive)
REMARK    1  A    between atoms: N2_13  and  N3_15 
REMARK    2  A    between atoms: C8_18  and  N4_19 
ROOT
HETATM    1  C1  UNL     1     -13.956 -25.843  -2.483  1.00  0.00     0.042 C 
HETATM    2  C2  UNL     1     -13.073 -25.944  -3.701  1.00  0.00     0.158 C 
HETATM    3  O1  UNL     1     -11.837 -25.373  -3.422  1.00  0.00    -0.320 OA
HETATM    4  C3  UNL     1     -10.876 -26.054  -4.115  1.00  0.00     0.389 C 
HETATM    5  N1  UNL     1      -9.894 -25.283  -4.829  1.00  0.00     0.021 N 
ATOM      6  H11 UNL     1     -10.076 -24.344  -5.181  1.00  0.00     0.288 HD
ATOM      7  H12 UNL     1      -9.590 -25.511  -5.774  1.00  0.00     0.288 HD
HETATM    8  C4  UNL     1      -9.075 -25.543  -3.645  1.00  0.00     0.230 C 
HETATM    9  C5  UNL     1      -9.194 -24.490  -2.572  1.00  0.00     0.078 C 
HETATM   10  C6  UNL     1      -7.641 -25.868  -3.926  1.00  0.00     0.078 C 
HETATM   11  O2  UNL     1      -9.873 -26.639  -3.307  1.00  0.00    -0.289 OA
HETATM   12  C7  UNL     1     -11.537 -27.135  -4.876  1.00  0.00     0.127 C 
HETATM   13  N2  UNL     1     -11.204 -27.736  -5.945  1.00  0.00    -0.306 N 
ATOM     14  H2  UNL     1     -11.838 -28.461  -6.278  1.00  0.00     0.186 HD
HETATM   15  C8  UNL     1     -12.752 -27.376  -4.058  1.00  0.00     0.238 C 
ENDROOT
BRANCH  13  16
HETATM   16  N3  UNL     1     -10.079 -27.509  -6.698  1.00  0.00    -0.345 N 
ATOM     17  H32 UNL     1      -9.473 -26.757  -6.368  1.00  0.00     0.176 HD
ATOM     18  H31 UNL     1      -9.796 -28.011  -7.540  1.00  0.00     0.176 HD
ENDBRANCH  13  16
BRANCH  15  19
HETATM   19  N4  UNL     1     -13.768 -28.067  -4.738  1.00  0.00    -0.142 N 
HETATM   20  O3  UNL     1     -14.488 -28.874  -4.146  1.00  0.00    -0.536 OA
HETATM   21  O4  UNL     1     -13.990 -27.870  -6.063  1.00  0.00    -0.536 OA
ENDBRANCH  15  19
TORSDOF 2
ENDMDL
MODEL 3
REMARK VINA RESULT: -6.039384166      3.033      4.263
REMARK  2 active torsions:
REMARK  status: ('A' for Active; 'I' for Inactive)
REMARK    1  A    between atoms: N2_13  and  N3_15 
REMARK    2  A    between atoms: C8_18  and  N4_19 
ROOT
HETATM    1  C1  UNL     1      -7.395 -26.860  -7.884  1.00  0.00     0.042 C 
HETATM    2  C2  UNL     1      -8.015 -27.076  -6.526  1.00  0.00     0.158 C 
HETATM    3  O1  UNL     1      -7.093 -27.696  -5.691  1.00  0.00    -0.320 OA
HETATM    4  C3  UNL     1      -7.293 -27.253  -4.414  1.00  0.00     0.389 C 
HETATM    5  N1  UNL     1      -7.326 -28.233  -3.364  1.00  0.00     0.021 N 
ATOM      6  H11 UNL     1      -7.606 -29.201  -3.517  1.00  0.00     0.288 HD
ATOM      7  H12 UNL     1      -8.015 -28.218  -2.613  1.00  0.00     0.288 HD
HETATM    8  C4  UNL     1      -5.933 -27.830  -3.173  1.00  0.00     0.230 C 
HETATM    9  C5  UNL     1      -4.943 -28.643  -3.968  1.00  0.00     0.078 C 
HETATM   10  C6  UNL     1      -5.501 -27.699  -1.745  1.00  0.00     0.078 C 
HETATM   11  O2  UNL     1      -6.170 -26.620  -3.830  1.00  0.00    -0.289 OA
HETATM   12  C7  UNL     1      -8.406 -26.279  -4.435  1.00  0.00     0.127 C 
HETATM   13  N2  UNL     1      -9.231 -25.927  -3.537  1.00  0.00    -0.306 N 
ATOM     14  H2  UNL     1      -9.919 -25.222  -3.799  1.00  0.00     0.186 HD
HETATM   15  C8  UNL     1      -8.335 -25.775  -5.829  1.00  0.00     0.238 C 
ENDROOT
BRANCH  13  16
HETATM   16  N3  UNL     1      -9.292 -26.397  -2.248  1.00  0.00    -0.345 N 
ATOM     17  H32 UNL     1      -9.319 -27.412  -2.151  1.00  0.00     0.176 HD
ATOM     18  H31 UNL     1      -9.312 -25.838  -1.395  1.00  0.00     0.176 HD
ENDBRANCH  13  16
BRANCH  15  19
HETATM   19  N4  UNL     1      -9.507 -25.135  -6.263  1.00  0.00    -0.142 N 
HETATM   20  O3  UNL     1     -10.615 -25.622  -6.031  1.00  0.00    -0.536 OA
HETATM   21  O4  UNL     1      -9.459 -23.964  -6.948  1.00  0.00    -0.536 OA
ENDBRANCH  15  19
TORSDOF 2
ENDMDL
MODEL 4
REMARK VINA RESULT: -6.033886041      2.319      5.109
REMARK  2 active torsions:
REMARK  status: ('A' for Active; 'I' for Inactive)
REMARK    1  A    between atoms: N2_13  and  N3_15 
REMARK    2  A    between atoms: C8_18  and  N4_19 
ROOT
HETATM    1  C1  UNL     1      -9.591 -25.257  -2.798  1.00  0.00     0.042 C 
HETATM    2  C2  UNL     1     -10.267 -26.348  -3.590  1.00  0.00     0.158 C 
HETATM    3  O1  UNL     1     -11.422 -26.749  -2.930  1.00  0.00    -0.320 OA
HETATM    4  C3  UNL     1     -12.354 -27.110  -3.862  1.00  0.00     0.389 C 
HETATM    5  N1  UNL     1     -13.067 -28.340  -3.653  1.00  0.00     0.021 N 
ATOM      6  H11 UNL     1     -12.679 -29.123  -3.126  1.00  0.00     0.288 HD
ATOM      7  H12 UNL     1     -13.244 -29.012  -4.399  1.00  0.00     0.288 HD
HETATM    8  C4  UNL     1     -14.100 -27.455  -3.116  1.00  0.00     0.230 C 
HETATM    9  C5  UNL     1     -13.990 -27.210  -1.633  1.00  0.00     0.078 C 
HETATM   10  C6  UNL     1     -15.502 -27.812  -3.502  1.00  0.00     0.078 C 
HETATM   11  O2  UNL     1     -13.558 -26.368  -3.806  1.00  0.00    -0.289 OA
HETATM   12  C7  UNL     1     -11.762 -26.917  -5.203  1.00  0.00     0.127 C 
HETATM   13  N2  UNL     1     -12.007 -27.473  -6.318  1.00  0.00    -0.306 N 
ATOM     14  H2  UNL     1     -11.453 -27.161  -7.116  1.00  0.00     0.186 HD
HETATM   15  C8  UNL     1     -10.753 -25.861  -4.934  1.00  0.00     0.238 C 
ENDROOT
BRANCH  13  16
HETATM   16  N3  UNL     1     -12.942 -28.449  -6.561  1.00  0.00    -0.345 N 
ATOM     17  H32 UNL     1     -13.111 -29.096  -5.790  1.00  0.00     0.176 HD
ATOM     18  H31 UNL     1     -13.472 -28.586  -7.421  1.00  0.00     0.176 HD
ENDBRANCH  13  16
BRANCH  15  19
HETATM   19  N4  UNL     1      -9.765 -25.753  -5.927  1.00  0.00    -0.142 N 
HETATM   20  O3  UNL     1      -9.099 -26.734  -6.263  1.00  0.00    -0.536 OA
HETATM   21  O4  UNL     1      -9.512 -24.571  -6.545  1.00  0.00    -0.536 OA
ENDBRANCH  15  19
TORSDOF 2
ENDMDL
MODEL 5
REMARK VINA RESULT: -5.975414426      2.844      4.108
REMARK  2 active torsions:
REMARK  status: ('A' for Active; 'I' for Inactive)
REMARK    1  A    between atoms: N2_13  and  N3_15 
REMARK    2  A    between atoms: C8_18  and  N4_19 
ROOT
HETATM    1  C1  UNL     1      -9.034 -23.533  -3.040  1.00  0.00     0.042 C 
HETATM    2  C2  UNL     1      -8.716 -24.800  -3.794  1.00  0.00     0.158 C 
HETATM    3  O1  UNL     1      -7.435 -25.225  -3.463  1.00  0.00    -0.320 OA
HETATM    4  C3  UNL     1      -7.406 -26.590  -3.493  1.00  0.00     0.389 C 
HETATM    5  N1  UNL     1      -6.305 -27.221  -4.168  1.00  0.00     0.021 N 
ATOM      6  H11 UNL     1      -5.794 -26.776  -4.930  1.00  0.00     0.288 HD
ATOM      7  H12 UNL     1      -6.421 -28.017  -4.794  1.00  0.00     0.288 HD
HETATM    8  C4  UNL     1      -5.765 -27.345  -2.814  1.00  0.00     0.230 C 
HETATM    9  C5  UNL     1      -4.902 -26.184  -2.388  1.00  0.00     0.078 C 
HETATM   10  C6  UNL     1      -5.097 -28.651  -2.516  1.00  0.00     0.078 C 
HETATM   11  O2  UNL     1      -7.042 -27.197  -2.268  1.00  0.00    -0.289 OA
HETATM   12  C7  UNL     1      -8.757 -27.070  -3.856  1.00  0.00     0.127 C 
HETATM   13  N2  UNL     1      -9.145 -28.141  -4.416  1.00  0.00    -0.306 N 
ATOM     14  H2  UNL     1     -10.150 -28.243  -4.561  1.00  0.00     0.186 HD
HETATM   15  C8  UNL     1      -9.608 -25.948  -3.387  1.00  0.00     0.238 C 
ENDROOT
BRANCH  13  16
HETATM   16  N3  UNL     1      -8.353 -29.176  -4.848  1.00  0.00    -0.345 N 
ATOM     17  H32 UNL     1      -8.801 -30.093  -4.871  1.00  0.00     0.176 HD
ATOM     18  H31 UNL     1      -7.379 -29.117  -5.143  1.00  0.00     0.176 HD
ENDBRANCH  13  16
BRANCH  15  19
HETATM   19  N4  UNL     1     -10.895 -25.937  -3.949  1.00  0.00    -0.142 N 
HETATM   20  O3  UNL     1     -11.897 -25.962  -3.232  1.00  0.00    -0.536 OA
HETATM   21  O4  UNL     1     -11.077 -25.898  -5.294  1.00  0.00    -0.536 OA
ENDBRANCH  15  19
TORSDOF 2
ENDMDL
