MODEL 1
REMARK VINA RESULT: -6.008563677      0.000      0.000
REMARK  4 active torsions:
REMARK  status: ('A' for Active; 'I' for Inactive)
REMARK    1  A    between atoms: C1_2  and  C2_4 
REMARK    2  A    between atoms: C5_7  and  O3_8 
REMARK    3  A    between atoms: C7_11  and  O4_12 
REMARK    4  A    between atoms: O4_12  and  C8_13 
ROOT
HETATM    1  C2  UNL     1      -1.012   5.844   8.748  1.00  0.00     0.116 C 
HETATM    2  C3  UNL     1      -1.920   7.074   8.752  1.00  0.00     0.020 C 
HETATM    3  C4  UNL     1      -2.466   7.140   7.318  1.00  0.00     0.033 C 
HETATM    4  C5  UNL     1      -2.701   5.730   6.875  1.00  0.00     0.120 C 
HETATM    5  C6  UNL     1      -3.074   4.787   7.994  1.00  0.00     0.064 C 
HETATM    6  C7  UNL     1      -1.894   4.629   8.931  1.00  0.00     0.138 C 
ENDROOT
BRANCH   6   7
HETATM    7  O4  UNL     1      -2.300   4.444  10.242  1.00  0.00    -0.380 OA
BRANCH   7   8
HETATM    8  C8  UNL     1      -2.227   3.130  10.582  1.00  0.00     0.122 C 
HETATM    9  C9  UNL     1      -3.074   2.738  11.810  1.00  0.00     0.032 C 
HETATM   10  C10 UNL     1      -2.003   1.660  12.025  1.00  0.00     0.005 C 
HETATM   11  C11 UNL     1      -1.037   2.657  11.386  1.00  0.00     0.032 C 
ENDBRANCH   7   8
ENDBRANCH   6   7
BRANCH   1  12
HETATM   12  C1  UNL     1       0.043   5.963   9.767  1.00  0.00     0.179 C 
HETATM   13  O1  UNL     1       0.980   5.136   9.804  1.00  0.00    -0.648 OA
HETATM   14  O2  UNL     1      -0.003   6.984  10.680  1.00  0.00    -0.648 OA
ENDBRANCH   1  12
BRANCH   4  15
HETATM   15  O3  UNL     1      -3.771   5.745   5.953  1.00  0.00    -0.395 OA
ATOM     16  H3  UNL     1      -3.702   4.962   5.421  1.00  0.00     0.210 HD
ENDBRANCH   4  15
TORSDOF 4
ENDMDL
MODEL 2
REMARK VINA RESULT: -5.858149827      4.576      6.276
REMARK  4 active torsions:
REMARK  status: ('A' for Active; 'I' for Inactive)
REMARK    1  A    between atoms: C1_2  and  C2_4 
REMARK    2  A    between atoms: C5_7  and  O3_8 
REMARK    3  A    between atoms: C7_11  and  O4_12 
REMARK    4  A    between atoms: O4_12  and  C8_13 
ROOT
HETATM    1  C2  UNL     1      -6.075   0.645   9.855  1.00  0.00     0.116 C 
HETATM    2  C3  UNL     1      -6.109  -0.854   9.555  1.00  0.00     0.020 C 
HETATM    3  C4  UNL     1      -6.290  -0.927   8.032  1.00  0.00     0.033 C 
HETATM    4  C5  UNL     1      -5.482   0.188   7.444  1.00  0.00     0.120 C 
HETATM    5  C6  UNL     1      -4.252   0.544   8.241  1.00  0.00     0.064 C 
HETATM    6  C7  UNL     1      -4.669   1.129   9.575  1.00  0.00     0.138 C 
ENDROOT
BRANCH   6   7
HETATM    7  O4  UNL     1      -3.772   0.810  10.581  1.00  0.00    -0.380 OA
BRANCH   7   8
HETATM    8  C8  UNL     1      -2.850   1.797  10.727  1.00  0.00     0.122 C 
HETATM    9  C9  UNL     1      -1.402   1.374  10.403  1.00  0.00     0.032 C 
HETATM   10  C10 UNL     1      -1.011   2.443  11.432  1.00  0.00     0.005 C 
HETATM   11  C11 UNL     1      -2.335   2.105  12.116  1.00  0.00     0.032 C 
ENDBRANCH   7   8
ENDBRANCH   6   7
BRANCH   1  12
HETATM   12  C1  UNL     1      -6.528   0.920  11.227  1.00  0.00     0.179 C 
HETATM   13  O1  UNL     1      -7.150   0.049  11.872  1.00  0.00    -0.648 OA
HETATM   14  O2  UNL     1      -6.267   2.138  11.801  1.00  0.00    -0.648 OA
ENDBRANCH   1  12
BRANCH   4  15
HETATM   15  O3  UNL     1      -5.058  -0.225   6.161  1.00  0.00    -0.395 OA
ATOM     16  H3  UNL     1      -4.615   0.511   5.756  1.00  0.00     0.210 HD
ENDBRANCH   4  15
TORSDOF 4
ENDMDL
MODEL 3
REMARK VINA RESULT: -5.770837634      4.227      6.228
REMARK  4 active torsions:
REMARK  status: ('A' for Active; 'I' for Inactive)
REMARK    1  A    between atoms: C1_2  and  C2_4 
REMARK    2  A    between atoms: C5_7  and  O3_8 
REMARK    3  A    between atoms: C7_11  and  O4_12 
REMARK    4  A    between atoms: O4_12  and  C8_13 
ROOT
HETATM    1  C2  UNL     1      -4.376  -0.013   8.277  1.00  0.00     0.116 C 
HETATM    2  C3  UNL     1      -5.865   0.194   7.996  1.00  0.00     0.020 C 
HETATM    3  C4  UNL     1      -6.549  -0.968   8.730  1.00  0.00     0.033 C 
HETATM    4  C5  UNL     1      -5.798  -1.181  10.007  1.00  0.00     0.120 C 
HETATM    5  C6  UNL     1      -5.182   0.075  10.575  1.00  0.00     0.064 C 
HETATM    6  C7  UNL     1      -4.090   0.564   9.646  1.00  0.00     0.138 C 
ENDROOT
BRANCH   6   7
HETATM    7  O4  UNL     1      -3.996   1.946   9.645  1.00  0.00    -0.380 OA
BRANCH   7   8
HETATM    8  C8  UNL     1      -2.862   2.346  10.278  1.00  0.00     0.122 C 
HETATM    9  C9  UNL     1      -1.936   1.195  10.723  1.00  0.00     0.032 C 
HETATM   10  C10 UNL     1      -1.520   2.154  11.846  1.00  0.00     0.005 C 
HETATM   11  C11 UNL     1      -2.942   2.704  11.746  1.00  0.00     0.032 C 
ENDBRANCH   7   8
ENDBRANCH   6   7
BRANCH   1  12
HETATM   12  C1  UNL     1      -3.550   0.571   7.209  1.00  0.00     0.179 C 
HETATM   13  O1  UNL     1      -2.328   0.317   7.147  1.00  0.00    -0.648 OA
HETATM   14  O2  UNL     1      -4.123   1.398   6.279  1.00  0.00    -0.648 OA
ENDBRANCH   1  12
BRANCH   4  15
HETATM   15  O3  UNL     1      -6.711  -1.680  10.961  1.00  0.00    -0.395 OA
ATOM     16  H3  UNL     1      -7.439  -1.072  11.007  1.00  0.00     0.210 HD
ENDBRANCH   4  15
TORSDOF 4
ENDMDL
MODEL 4
REMARK VINA RESULT: -5.760137304      1.199      1.401
REMARK  4 active torsions:
REMARK  status: ('A' for Active; 'I' for Inactive)
REMARK    1  A    between atoms: C1_2  and  C2_4 
REMARK    2  A    between atoms: C5_7  and  O3_8 
REMARK    3  A    between atoms: C7_11  and  O4_12 
REMARK    4  A    between atoms: O4_12  and  C8_13 
ROOT
HETATM    1  C2  UNL     1      -1.967   5.556   7.814  1.00  0.00     0.116 C 
HETATM    2  C3  UNL     1      -3.182   6.429   7.495  1.00  0.00     0.020 C 
HETATM    3  C4  UNL     1      -3.565   6.026   6.064  1.00  0.00     0.033 C 
HETATM    4  C5  UNL     1      -3.343   4.550   5.952  1.00  0.00     0.120 C 
HETATM    5  C6  UNL     1      -3.552   3.796   7.242  1.00  0.00     0.064 C 
HETATM    6  C7  UNL     1      -2.484   4.200   8.238  1.00  0.00     0.138 C 
ENDROOT
BRANCH   6   7
HETATM    7  O4  UNL     1      -2.960   4.181   9.539  1.00  0.00    -0.380 OA
BRANCH   7   8
HETATM    8  C8  UNL     1      -2.516   3.075  10.192  1.00  0.00     0.122 C 
HETATM    9  C9  UNL     1      -3.086   2.899  11.615  1.00  0.00     0.032 C 
HETATM   10  C10 UNL     1      -1.758   2.187  11.904  1.00  0.00     0.005 C 
HETATM   11  C11 UNL     1      -1.159   3.127  10.859  1.00  0.00     0.032 C 
ENDBRANCH   7   8
ENDBRANCH   6   7
BRANCH   1  12
HETATM   12  C1  UNL     1      -1.106   6.198   8.820  1.00  0.00     0.179 C 
HETATM   13  O1  UNL     1       0.131   6.023   8.794  1.00  0.00    -0.648 OA
HETATM   14  O2  UNL     1      -1.663   6.989   9.790  1.00  0.00    -0.648 OA
ENDBRANCH   1  12
BRANCH   4  15
HETATM   15  O3  UNL     1      -4.267   4.050   5.008  1.00  0.00    -0.395 OA
ATOM     16  H3  UNL     1      -4.437   3.141   5.227  1.00  0.00     0.210 HD
ENDBRANCH   4  15
TORSDOF 4
ENDMDL
MODEL 5
REMARK VINA RESULT: -5.627500205      4.281      6.196
REMARK  4 active torsions:
REMARK  status: ('A' for Active; 'I' for Inactive)
REMARK    1  A    between atoms: C1_2  and  C2_4 
REMARK    2  A    between atoms: C5_7  and  O3_8 
REMARK    3  A    between atoms: C7_11  and  O4_12 
REMARK    4  A    between atoms: O4_12  and  C8_13 
ROOT
HETATM    1  C2  UNL     1      -4.536   0.086   7.929  1.00  0.00     0.116 C 
HETATM    2  C3  UNL     1      -5.915   0.735   8.058  1.00  0.00     0.020 C 
HETATM    3  C4  UNL     1      -6.803  -0.383   8.622  1.00  0.00     0.033 C 
HETATM    4  C5  UNL     1      -5.968  -1.152   9.599  1.00  0.00     0.120 C 
HETATM    5  C6  UNL     1      -4.920  -0.323  10.300  1.00  0.00     0.064 C 
HETATM    6  C7  UNL     1      -3.885   0.134   9.293  1.00  0.00     0.138 C 
ENDROOT
BRANCH   6   7
HETATM    7  O4  UNL     1      -3.374   1.382   9.609  1.00  0.00    -0.380 OA
BRANCH   7   8
HETATM    8  C8  UNL     1      -2.534   1.296  10.674  1.00  0.00     0.122 C 
HETATM    9  C9  UNL     1      -2.737   2.391  11.741  1.00  0.00     0.032 C 
HETATM   10  C10 UNL     1      -1.239   2.202  12.015  1.00  0.00     0.005 C 
HETATM   11  C11 UNL     1      -1.131   1.844  10.533  1.00  0.00     0.032 C 
ENDBRANCH   7   8
ENDBRANCH   6   7
BRANCH   1  12
HETATM   12  C1  UNL     1      -3.743   0.739   6.876  1.00  0.00     0.179 C 
HETATM   13  O1  UNL     1      -4.255   1.625   6.158  1.00  0.00    -0.648 OA
HETATM   14  O2  UNL     1      -2.436   0.373   6.681  1.00  0.00    -0.648 OA
ENDBRANCH   1  12
BRANCH   4  15
HETATM   15  O3  UNL     1      -6.835  -1.671  10.585  1.00  0.00    -0.395 OA
ATOM     16  H3  UNL     1      -7.604  -1.113  10.614  1.00  0.00     0.210 HD
ENDBRANCH   4  15
TORSDOF 4
ENDMDL
