MODEL 1
REMARK VINA RESULT: -5.489306082      0.000      0.000
REMARK  2 active torsions:
REMARK  status: ('A' for Active; 'I' for Inactive)
REMARK       I    between atoms: N1_1  and  C1_5 
REMARK       I    between atoms: C1_5  and  N2_6 
REMARK       I    between atoms: C1_5  and  N3_10 
REMARK    1  A    between atoms: N3_10  and  C2_12 
REMARK    2  A    between atoms: N4_14  and  O1_15 
ROOT
HETATM    1  N1  UNL     1     -16.992  -3.737 -15.858  1.00  0.00    -0.033 N 
ATOM      2  H11 UNL     1     -16.906  -3.346 -14.919  1.00  0.00     0.278 HD
ATOM      3  H12 UNL     1     -17.539  -3.126 -16.463  1.00  0.00     0.278 HD
ATOM      4  H13 UNL     1     -16.102  -3.702 -16.353  1.00  0.00     0.278 HD
HETATM    5  C1  UNL     1     -17.541  -5.102 -15.847  1.00  0.00     0.481 C 
HETATM    6  N2  UNL     1     -17.660  -5.649 -17.159  1.00  0.00    -0.033 N 
ATOM      7  H21 UNL     1     -18.041  -6.595 -17.152  1.00  0.00     0.278 HD
ATOM      8  H22 UNL     1     -16.770  -5.614 -17.655  1.00  0.00     0.278 HD
ATOM      9  H23 UNL     1     -18.207  -5.038 -17.765  1.00  0.00     0.278 HD
HETATM   10  N3  UNL     1     -16.682  -5.940 -15.052  1.00  0.00    -0.325 N 
ATOM     11  H3  UNL     1     -16.235  -6.748 -15.484  1.00  0.00     0.165 HD
ENDROOT
BRANCH  10  12
HETATM   12  C2  UNL     1     -16.443  -5.666 -13.678  1.00  0.00     0.136 A 
HETATM   13  C3  UNL     1     -17.293  -5.893 -12.620  1.00  0.00     0.190 A 
HETATM   14  N4  UNL     1     -16.664  -5.485 -11.487  1.00  0.00    -0.155 N 
HETATM   15  N5  UNL     1     -15.478  -5.027 -11.845  1.00  0.00     0.007 NA
HETATM   16  N6  UNL     1     -15.329  -5.128 -13.156  1.00  0.00    -0.266 N 
ATOM     17  H6  UNL     1     -14.504  -4.844 -13.684  1.00  0.00     0.186 HD
BRANCH  14  18
HETATM   18  O1  UNL     1     -17.190  -5.547 -10.204  1.00  0.00    -0.270 OA
ATOM     19  H1  UNL     1     -16.986  -4.951  -9.493  1.00  0.00     0.246 HD
ENDBRANCH  14  18
ENDBRANCH  10  12
TORSDOF 2
ENDMDL
MODEL 2
REMARK VINA RESULT: -4.950859042      3.604      6.169
REMARK  2 active torsions:
REMARK  status: ('A' for Active; 'I' for Inactive)
REMARK       I    between atoms: N1_1  and  C1_5 
REMARK       I    between atoms: C1_5  and  N2_6 
REMARK       I    between atoms: C1_5  and  N3_10 
REMARK    1  A    between atoms: N3_10  and  C2_12 
REMARK    2  A    between atoms: N4_14  and  O1_15 
ROOT
HETATM    1  N1  UNL     1     -15.669  -7.192  -7.501  1.00  0.00    -0.033 N 
ATOM      2  H11 UNL     1     -15.292  -7.197  -8.449  1.00  0.00     0.278 HD
ATOM      3  H12 UNL     1     -15.161  -7.839  -6.898  1.00  0.00     0.278 HD
ATOM      4  H13 UNL     1     -15.451  -6.318  -7.023  1.00  0.00     0.278 HD
HETATM    5  C1  UNL     1     -17.115  -7.466  -7.473  1.00  0.00     0.481 C 
HETATM    6  N2  UNL     1     -17.642  -7.459  -6.147  1.00  0.00    -0.033 N 
ATOM      7  H21 UNL     1     -18.643  -7.649  -6.127  1.00  0.00     0.278 HD
ATOM      8  H22 UNL     1     -17.423  -6.585  -5.669  1.00  0.00     0.278 HD
ATOM      9  H23 UNL     1     -17.133  -8.105  -5.544  1.00  0.00     0.278 HD
HETATM   10  N3  UNL     1     -17.790  -6.473  -8.265  1.00  0.00    -0.325 N 
ATOM     11  H3  UNL     1     -18.486  -5.872  -7.824  1.00  0.00     0.165 HD
ENDROOT
BRANCH  10  12
HETATM   12  C2  UNL     1     -17.509  -6.311  -9.649  1.00  0.00     0.136 A 
HETATM   13  C3  UNL     1     -17.975  -7.077 -10.693  1.00  0.00     0.190 A 
HETATM   14  N4  UNL     1     -17.459  -6.571 -11.843  1.00  0.00    -0.155 N 
HETATM   15  N5  UNL     1     -16.706  -5.538 -11.509  1.00  0.00     0.007 NA
HETATM   16  N6  UNL     1     -16.725  -5.368 -10.197  1.00  0.00    -0.266 N 
ATOM     17  H6  UNL     1     -16.226  -4.641  -9.685  1.00  0.00     0.186 HD
BRANCH  14  18
HETATM   18  O1  UNL     1     -17.692  -7.066 -13.119  1.00  0.00    -0.270 OA
ATOM     19  H1  UNL     1     -17.958  -7.954 -13.327  1.00  0.00     0.246 HD
ENDBRANCH  14  18
ENDBRANCH  10  12
TORSDOF 2
ENDMDL
MODEL 3
REMARK VINA RESULT: -4.883641728      2.633      4.639
REMARK  2 active torsions:
REMARK  status: ('A' for Active; 'I' for Inactive)
REMARK       I    between atoms: N1_1  and  C1_5 
REMARK       I    between atoms: C1_5  and  N2_6 
REMARK       I    between atoms: C1_5  and  N3_10 
REMARK    1  A    between atoms: N3_10  and  C2_12 
REMARK    2  A    between atoms: N4_14  and  O1_15 
ROOT
HETATM    1  N1  UNL     1     -17.549  -6.387  -9.336  1.00  0.00    -0.033 N 
ATOM      2  H11 UNL     1     -16.707  -6.003  -9.765  1.00  0.00     0.278 HD
ATOM      3  H12 UNL     1     -17.357  -6.740  -8.399  1.00  0.00     0.278 HD
ATOM      4  H13 UNL     1     -18.210  -5.648  -9.099  1.00  0.00     0.278 HD
HETATM    5  C1  UNL     1     -18.183  -7.418 -10.172  1.00  0.00     0.481 C 
HETATM    6  N2  UNL     1     -19.360  -7.955  -9.571  1.00  0.00    -0.033 N 
ATOM      7  H21 UNL     1     -19.799  -8.670 -10.151  1.00  0.00     0.278 HD
ATOM      8  H22 UNL     1     -20.021  -7.216  -9.334  1.00  0.00     0.278 HD
ATOM      9  H23 UNL     1     -19.168  -8.308  -8.634  1.00  0.00     0.278 HD
HETATM   10  N3  UNL     1     -18.512  -6.842 -11.448  1.00  0.00    -0.325 N 
ATOM     11  H3  UNL     1     -19.486  -6.826 -11.751  1.00  0.00     0.165 HD
ENDROOT
BRANCH  10  12
HETATM   12  C2  UNL     1     -17.511  -6.294 -12.296  1.00  0.00     0.136 A 
HETATM   13  C3  UNL     1     -17.459  -6.348 -13.670  1.00  0.00     0.190 A 
HETATM   14  N4  UNL     1     -16.335  -5.697 -14.069  1.00  0.00    -0.155 N 
HETATM   15  N5  UNL     1     -15.727  -5.267 -12.977  1.00  0.00     0.007 NA
HETATM   16  N6  UNL     1     -16.420  -5.617 -11.905  1.00  0.00    -0.266 N 
ATOM     17  H6  UNL     1     -16.167  -5.406 -10.940  1.00  0.00     0.186 HD
BRANCH  14  18
HETATM   18  O1  UNL     1     -15.921  -5.531 -15.383  1.00  0.00    -0.270 OA
ATOM     19  H1  UNL     1     -16.309  -5.950 -16.142  1.00  0.00     0.246 HD
ENDBRANCH  14  18
ENDBRANCH  10  12
TORSDOF 2
ENDMDL
MODEL 4
REMARK VINA RESULT: -4.871996395      2.890      5.088
REMARK  2 active torsions:
REMARK  status: ('A' for Active; 'I' for Inactive)
REMARK       I    between atoms: N1_1  and  C1_5 
REMARK       I    between atoms: C1_5  and  N2_6 
REMARK       I    between atoms: C1_5  and  N3_10 
REMARK    1  A    between atoms: N3_10  and  C2_12 
REMARK    2  A    between atoms: N4_14  and  O1_15 
ROOT
HETATM    1  N1  UNL     1     -17.311  -7.865  -8.584  1.00  0.00    -0.033 N 
ATOM      2  H11 UNL     1     -16.457  -7.455  -8.963  1.00  0.00     0.278 HD
ATOM      3  H12 UNL     1     -17.101  -8.646  -7.963  1.00  0.00     0.278 HD
ATOM      4  H13 UNL     1     -17.753  -7.238  -7.912  1.00  0.00     0.278 HD
HETATM    5  C1  UNL     1     -18.256  -8.265  -9.638  1.00  0.00     0.481 C 
HETATM    6  N2  UNL     1     -19.450  -8.838  -9.108  1.00  0.00    -0.033 N 
ATOM      7  H21 UNL     1     -20.105  -9.115  -9.839  1.00  0.00     0.278 HD
ATOM      8  H22 UNL     1     -19.892  -8.211  -8.436  1.00  0.00     0.278 HD
ATOM      9  H23 UNL     1     -19.239  -9.620  -8.487  1.00  0.00     0.278 HD
HETATM   10  N3  UNL     1     -18.586  -7.108 -10.427  1.00  0.00    -0.325 N 
ATOM     11  H3  UNL     1     -19.558  -6.802 -10.482  1.00  0.00     0.165 HD
ENDROOT
BRANCH  10  12
HETATM   12  C2  UNL     1     -17.589  -6.380 -11.132  1.00  0.00     0.136 A 
HETATM   13  C3  UNL     1     -17.397  -6.327 -12.494  1.00  0.00     0.190 A 
HETATM   14  N4  UNL     1     -16.335  -5.516 -12.733  1.00  0.00    -0.155 N 
HETATM   15  N5  UNL     1     -15.897  -5.094 -11.560  1.00  0.00     0.007 NA
HETATM   16  N6  UNL     1     -16.638  -5.603 -10.589  1.00  0.00    -0.266 N 
ATOM     17  H6  UNL     1     -16.509  -5.433  -9.592  1.00  0.00     0.186 HD
BRANCH  14  18
HETATM   18  O1  UNL     1     -15.822  -5.205 -13.985  1.00  0.00    -0.270 OA
ATOM     19  H1  UNL     1     -14.982  -4.793 -14.151  1.00  0.00     0.246 HD
ENDBRANCH  14  18
ENDBRANCH  10  12
TORSDOF 2
ENDMDL
MODEL 5
REMARK VINA RESULT: -4.689926624      3.514      5.713
REMARK  2 active torsions:
REMARK  status: ('A' for Active; 'I' for Inactive)
REMARK       I    between atoms: N1_1  and  C1_5 
REMARK       I    between atoms: C1_5  and  N2_6 
REMARK       I    between atoms: C1_5  and  N3_10 
REMARK    1  A    between atoms: N3_10  and  C2_12 
REMARK    2  A    between atoms: N4_14  and  O1_15 
ROOT
HETATM    1  N1  UNL     1     -17.448  -9.155  -8.498  1.00  0.00    -0.033 N 
ATOM      2  H11 UNL     1     -16.693  -8.710  -9.021  1.00  0.00     0.278 HD
ATOM      3  H12 UNL     1     -17.180 -10.088  -8.186  1.00  0.00     0.278 HD
ATOM      4  H13 UNL     1     -17.577  -8.710  -7.589  1.00  0.00     0.278 HD
HETATM    5  C1  UNL     1     -18.709  -9.190  -9.255  1.00  0.00     0.481 C 
HETATM    6  N2  UNL     1     -19.764  -9.811  -8.523  1.00  0.00    -0.033 N 
ATOM      7  H21 UNL     1     -20.638  -9.836  -9.049  1.00  0.00     0.278 HD
ATOM      8  H22 UNL     1     -19.893  -9.367  -7.615  1.00  0.00     0.278 HD
ATOM      9  H23 UNL     1     -19.496 -10.745  -8.211  1.00  0.00     0.278 HD
HETATM   10  N3  UNL     1     -19.084  -7.843  -9.593  1.00  0.00    -0.325 N 
ATOM     11  H3  UNL     1     -19.974  -7.474  -9.256  1.00  0.00     0.165 HD
ENDROOT
BRANCH  10  12
HETATM   12  C2  UNL     1     -18.243  -7.013 -10.384  1.00  0.00     0.136 A 
HETATM   13  C3  UNL     1     -17.238  -6.182  -9.946  1.00  0.00     0.190 A 
HETATM   14  N4  UNL     1     -16.694  -5.579 -11.035  1.00  0.00    -0.155 N 
HETATM   15  N5  UNL     1     -17.346  -6.027 -12.094  1.00  0.00     0.007 NA
HETATM   16  N6  UNL     1     -18.278  -6.889 -11.720  1.00  0.00    -0.266 N 
ATOM     17  H6  UNL     1     -18.919  -7.378 -12.345  1.00  0.00     0.186 HD
BRANCH  14  18
HETATM   18  O1  UNL     1     -15.650  -4.665 -11.015  1.00  0.00    -0.270 OA
ATOM     19  H1  UNL     1     -15.236  -4.282 -11.779  1.00  0.00     0.246 HD
ENDBRANCH  14  18
ENDBRANCH  10  12
TORSDOF 2
ENDMDL
