MODEL 1
REMARK VINA RESULT: -7.001236113      0.000      0.000
REMARK  10 active torsions:
REMARK  status: ('A' for Active; 'I' for Inactive)
REMARK    1  A    between atoms: C2_2  and  N1_3 
REMARK    2  A    between atoms: N1_3  and  C3_5 
REMARK    3  A    between atoms: C5_7  and  O1_8 
REMARK    4  A    between atoms: C6_10  and  C7_11 
REMARK    5  A    between atoms: C7_11  and  O2_12 
REMARK    6  A    between atoms: C11_16  and  O3_18 
REMARK    7  A    between atoms: C16_23  and  C17_24 
REMARK    8  A    between atoms: C17_24  and  O4_25 
REMARK    9  A    between atoms: C19_29  and  N2_30 
REMARK   10  A    between atoms: C20_34  and  O6_35 
ROOT
HETATM    1  C3  UNL     1      14.853  -7.515  25.166  1.00  0.00     0.122 C 
HETATM    2  C4  UNL     1      14.909  -8.204  23.826  1.00  0.00     0.061 C 
HETATM    3  C5  UNL     1      16.292  -7.797  23.305  1.00  0.00     0.134 C 
HETATM    4  C6  UNL     1      17.146  -7.985  24.542  1.00  0.00     0.045 C 
HETATM    5  C9  UNL     1      17.561  -9.429  24.655  1.00  0.00     0.026 C 
HETATM    6  C10 UNL     1      18.149  -9.758  25.989  1.00  0.00     0.040 A 
HETATM    7  C11 UNL     1      17.234 -10.694  26.796  1.00  0.00     0.073 A 
HETATM    8  C12 UNL     1      16.125 -11.361  26.083  1.00  0.00     0.047 C 
HETATM    9  C13 UNL     1      17.395  -9.312  27.171  1.00  0.00     0.054 A 
HETATM   10  C14 UNL     1      16.525  -8.161  26.941  1.00  0.00    -0.029 C 
HETATM   11  C15 UNL     1      15.942  -7.630  28.026  1.00  0.00     0.022 C 
HETATM   12  C16 UNL     1      16.167  -8.174  29.392  1.00  0.00     0.129 A 
HETATM   13  O5  UNL     1      17.332  -7.400  29.967  1.00  0.00    -0.360 OA
HETATM   14  C18 UNL     1      17.328  -8.845  29.625  1.00  0.00     0.195 A 
HETATM   15  C19 UNL     1      18.246  -9.080  28.446  1.00  0.00     0.231 C 
HETATM   16  C20 UNL     1      16.277  -7.486  25.641  1.00  0.00     0.114 C 
ENDROOT
BRANCH   1  17
HETATM   17  N1  UNL     1      13.908  -7.973  26.092  1.00  0.00    -0.395 N 
ATOM     18  H1  UNL     1      14.126  -8.766  26.695  1.00  0.00     0.159 HD
BRANCH  17  19
HETATM   19  C2  UNL     1      12.659  -7.335  26.191  1.00  0.00     0.051 C 
HETATM   20  C1  UNL     1      11.557  -7.931  25.356  1.00  0.00     0.054 C 
ENDBRANCH  17  19
ENDBRANCH   1  17
BRANCH  16  21
HETATM   21  O6  UNL     1      16.586  -6.095  25.772  1.00  0.00    -0.382 OA
ATOM     22  H6  UNL     1      17.530  -6.049  25.678  1.00  0.00     0.211 HD
ENDBRANCH  16  21
BRANCH   3  23
HETATM   23  O1  UNL     1      16.723  -8.586  22.270  1.00  0.00    -0.395 OA
ATOM     24  H1  UNL     1      17.420  -8.184  21.765  1.00  0.00     0.210 HD
ENDBRANCH   3  23
BRANCH   4  25
HETATM   25  C7  UNL     1      18.394  -7.160  24.339  1.00  0.00     0.182 C 
BRANCH  25  26
HETATM   26  O2  UNL     1      18.375  -6.307  23.276  1.00  0.00    -0.395 OA
HETATM   27  C8  UNL     1      19.550  -6.436  22.554  1.00  0.00     0.201 C 
ENDBRANCH  25  26
ENDBRANCH   4  25
BRANCH   7  28
HETATM   28  O3  UNL     1      18.015 -11.642  27.523  1.00  0.00    -0.389 OA
ATOM     29  H3  UNL     1      17.804 -11.601  28.449  1.00  0.00     0.210 HD
ENDBRANCH   7  28
BRANCH  15  30
HETATM   30  N2  UNL     1      19.187  -8.022  28.273  1.00  0.00    -0.071 N 
ATOM     31  H23 UNL     1      20.067  -8.368  27.891  1.00  0.00     0.274 HD
ATOM     32  H22 UNL     1      18.913  -7.404  27.509  1.00  0.00     0.274 HD
ATOM     33  H21 UNL     1      19.337  -7.501  29.137  1.00  0.00     0.274 HD
ENDBRANCH  15  30
BRANCH  12  34
HETATM   34  C17 UNL     1      15.057  -8.014  30.382  1.00  0.00     0.209 C 
BRANCH  34  35
HETATM   35  O4  UNL     1      14.239  -9.136  30.394  1.00  0.00    -0.397 OA
ATOM     36  H4  UNL     1      13.413  -8.948  30.823  1.00  0.00     0.209 HD
ENDBRANCH  34  35
ENDBRANCH  12  34
TORSDOF 10
ENDMDL
MODEL 2
REMARK VINA RESULT: -6.909741817      1.910      4.604
REMARK  10 active torsions:
REMARK  status: ('A' for Active; 'I' for Inactive)
REMARK    1  A    between atoms: C2_2  and  N1_3 
REMARK    2  A    between atoms: N1_3  and  C3_5 
REMARK    3  A    between atoms: C5_7  and  O1_8 
REMARK    4  A    between atoms: C6_10  and  C7_11 
REMARK    5  A    between atoms: C7_11  and  O2_12 
REMARK    6  A    between atoms: C11_16  and  O3_18 
REMARK    7  A    between atoms: C16_23  and  C17_24 
REMARK    8  A    between atoms: C17_24  and  O4_25 
REMARK    9  A    between atoms: C19_29  and  N2_30 
REMARK   10  A    between atoms: C20_34  and  O6_35 
ROOT
HETATM    1  C3  UNL     1      19.301  -9.110  26.371  1.00  0.00     0.122 C 
HETATM    2  C4  UNL     1      19.857  -8.737  25.021  1.00  0.00     0.061 C 
HETATM    3  C5  UNL     1      19.321  -9.856  24.122  1.00  0.00     0.134 C 
HETATM    4  C6  UNL     1      17.887  -9.962  24.598  1.00  0.00     0.045 C 
HETATM    5  C9  UNL     1      17.043  -8.931  23.895  1.00  0.00     0.026 C 
HETATM    6  C10 UNL     1      15.693  -8.768  24.516  1.00  0.00     0.040 A 
HETATM    7  C11 UNL     1      15.544  -7.397  25.196  1.00  0.00     0.073 A 
HETATM    8  C12 UNL     1      16.557  -6.363  24.898  1.00  0.00     0.047 C 
HETATM    9  C13 UNL     1      15.654  -8.602  25.977  1.00  0.00     0.054 A 
HETATM   10  C14 UNL     1      16.798  -9.170  26.686  1.00  0.00    -0.029 C 
HETATM   11  C15 UNL     1      16.725  -9.177  28.026  1.00  0.00     0.022 C 
HETATM   12  C16 UNL     1      15.545  -8.642  28.756  1.00  0.00     0.129 A 
HETATM   13  O5  UNL     1      14.612  -9.815  28.964  1.00  0.00    -0.360 OA
HETATM   14  C18 UNL     1      14.348  -8.631  28.107  1.00  0.00     0.195 A 
HETATM   15  C19 UNL     1      14.338  -9.058  26.656  1.00  0.00     0.231 C 
HETATM   16  C20 UNL     1      17.998  -9.795  26.072  1.00  0.00     0.114 C 
ENDROOT
BRANCH   1  17
HETATM   17  N1  UNL     1      19.257  -8.115  27.354  1.00  0.00    -0.395 N 
ATOM     18  H1  UNL     1      18.458  -7.484  27.407  1.00  0.00     0.159 HD
BRANCH  17  19
HETATM   19  C2  UNL     1      20.318  -7.987  28.267  1.00  0.00     0.051 C 
HETATM   20  C1  UNL     1      20.000  -8.360  29.691  1.00  0.00     0.054 C 
ENDBRANCH  17  19
ENDBRANCH   1  17
BRANCH  16  21
HETATM   21  O6  UNL     1      18.155 -11.117  26.597  1.00  0.00    -0.382 OA
ATOM     22  H6  UNL     1      18.692 -11.568  25.956  1.00  0.00     0.211 HD
ENDBRANCH  16  21
BRANCH   3  23
HETATM   23  O1  UNL     1      19.388  -9.546  22.788  1.00  0.00    -0.395 OA
ATOM     24  H1  UNL     1      18.536  -9.540  22.368  1.00  0.00     0.210 HD
ENDBRANCH   3  23
BRANCH   4  25
HETATM   25  C7  UNL     1      17.390 -11.327  24.183  1.00  0.00     0.182 C 
BRANCH  25  26
HETATM   26  O2  UNL     1      18.346 -12.206  23.772  1.00  0.00    -0.395 OA
HETATM   27  C8  UNL     1      17.896 -13.504  23.959  1.00  0.00     0.201 C 
ENDBRANCH  25  26
ENDBRANCH   4  25
BRANCH   7  28
HETATM   28  O3  UNL     1      14.224  -6.889  24.998  1.00  0.00    -0.389 OA
ATOM     29  H3  UNL     1      14.142  -6.027  25.389  1.00  0.00     0.210 HD
ENDBRANCH   7  28
BRANCH  15  30
HETATM   30  N2  UNL     1      14.119 -10.460  26.507  1.00  0.00    -0.071 N 
ATOM     31  H23 UNL     1      13.740 -10.679  25.586  1.00  0.00     0.274 HD
ATOM     32  H22 UNL     1      15.001 -10.968  26.442  1.00  0.00     0.274 HD
ATOM     33  H21 UNL     1      13.528 -10.834  27.249  1.00  0.00     0.274 HD
ENDBRANCH  15  30
BRANCH  12  34
HETATM   34  C17 UNL     1      15.784  -8.079  30.121  1.00  0.00     0.209 C 
BRANCH  34  35
HETATM   35  O4  UNL     1      14.582  -7.798  30.758  1.00  0.00    -0.397 OA
ATOM     36  H4  UNL     1      14.715  -7.197  31.481  1.00  0.00     0.209 HD
ENDBRANCH  34  35
ENDBRANCH  12  34
TORSDOF 10
ENDMDL
MODEL 3
REMARK VINA RESULT: -6.769875577      2.384      4.205
REMARK  10 active torsions:
REMARK  status: ('A' for Active; 'I' for Inactive)
REMARK    1  A    between atoms: C2_2  and  N1_3 
REMARK    2  A    between atoms: N1_3  and  C3_5 
REMARK    3  A    between atoms: C5_7  and  O1_8 
REMARK    4  A    between atoms: C6_10  and  C7_11 
REMARK    5  A    between atoms: C7_11  and  O2_12 
REMARK    6  A    between atoms: C11_16  and  O3_18 
REMARK    7  A    between atoms: C16_23  and  C17_24 
REMARK    8  A    between atoms: C17_24  and  O4_25 
REMARK    9  A    between atoms: C19_29  and  N2_30 
REMARK   10  A    between atoms: C20_34  and  O6_35 
ROOT
HETATM    1  C3  UNL     1      18.245  -6.959  25.483  1.00  0.00     0.122 C 
HETATM    2  C4  UNL     1      19.553  -7.642  25.175  1.00  0.00     0.061 C 
HETATM    3  C5  UNL     1      20.070  -8.007  26.570  1.00  0.00     0.134 C 
HETATM    4  C6  UNL     1      18.814  -8.543  27.226  1.00  0.00     0.045 C 
HETATM    5  C9  UNL     1      18.633  -9.993  26.862  1.00  0.00     0.026 C 
HETATM    6  C10 UNL     1      17.277 -10.513  27.216  1.00  0.00     0.040 A 
HETATM    7  C11 UNL     1      16.445 -10.827  25.962  1.00  0.00     0.073 A 
HETATM    8  C12 UNL     1      17.145 -10.879  24.662  1.00  0.00     0.047 C 
HETATM    9  C13 UNL     1      16.127  -9.697  26.798  1.00  0.00     0.054 A 
HETATM   10  C14 UNL     1      16.419  -8.276  26.621  1.00  0.00    -0.029 C 
HETATM   11  C15 UNL     1      15.367  -7.476  26.392  1.00  0.00     0.022 C 
HETATM   12  C16 UNL     1      13.976  -7.999  26.325  1.00  0.00     0.129 A 
HETATM   13  O5  UNL     1      13.417  -7.888  27.726  1.00  0.00    -0.360 OA
HETATM   14  C18 UNL     1      13.697  -9.150  26.995  1.00  0.00     0.195 A 
HETATM   15  C19 UNL     1      14.851  -9.866  27.661  1.00  0.00     0.231 C 
HETATM   16  C20 UNL     1      17.751  -7.626  26.734  1.00  0.00     0.114 C 
ENDROOT
BRANCH   1  17
HETATM   17  N1  UNL     1      17.315  -6.839  24.444  1.00  0.00    -0.395 N 
ATOM     18  H1  UNL     1      16.462  -6.297  24.582  1.00  0.00     0.159 HD
BRANCH  17  19
HETATM   19  C2  UNL     1      17.558  -7.469  23.211  1.00  0.00     0.051 C 
HETATM   20  C1  UNL     1      16.344  -8.009  22.504  1.00  0.00     0.054 C 
ENDBRANCH  17  19
ENDBRANCH   1  17
BRANCH  16  21
HETATM   21  O6  UNL     1      17.675  -6.574  27.700  1.00  0.00    -0.382 OA
ATOM     22  H6  UNL     1      18.000  -6.961  28.504  1.00  0.00     0.211 HD
ENDBRANCH  16  21
BRANCH   3  23
HETATM   23  O1  UNL     1      21.065  -8.951  26.539  1.00  0.00    -0.395 OA
ATOM     24  H1  UNL     1      20.866  -9.714  27.070  1.00  0.00     0.210 HD
ENDBRANCH   3  23
BRANCH   4  25
HETATM   25  C7  UNL     1      19.034  -8.464  28.717  1.00  0.00     0.182 C 
BRANCH  25  26
HETATM   26  O2  UNL     1      20.068  -7.675  29.124  1.00  0.00    -0.395 OA
HETATM   27  C8  UNL     1      20.631  -8.202  30.276  1.00  0.00     0.201 C 
ENDBRANCH  25  26
ENDBRANCH   4  25
BRANCH   7  28
HETATM   28  O3  UNL     1      15.666 -12.005  26.169  1.00  0.00    -0.389 OA
ATOM     29  H3  UNL     1      16.100 -12.758  25.783  1.00  0.00     0.210 HD
ENDBRANCH   7  28
BRANCH  15  30
HETATM   30  N2  UNL     1      15.055  -9.431  29.004  1.00  0.00    -0.071 N 
ATOM     31  H23 UNL     1      15.940  -8.935  29.103  1.00  0.00     0.274 HD
ATOM     32  H22 UNL     1      14.418  -8.673  29.249  1.00  0.00     0.274 HD
ATOM     33  H21 UNL     1      14.986 -10.202  29.668  1.00  0.00     0.274 HD
ENDBRANCH  15  30
BRANCH  12  34
HETATM   34  C17 UNL     1      13.010  -7.259  25.454  1.00  0.00     0.209 C 
BRANCH  34  35
HETATM   35  O4  UNL     1      12.787  -5.977  25.940  1.00  0.00    -0.397 OA
ATOM     36  H4  UNL     1      12.724  -5.352  25.228  1.00  0.00     0.209 HD
ENDBRANCH  34  35
ENDBRANCH  12  34
TORSDOF 10
ENDMDL
MODEL 4
REMARK VINA RESULT: -6.618785653      1.894      5.568
REMARK  10 active torsions:
REMARK  status: ('A' for Active; 'I' for Inactive)
REMARK    1  A    between atoms: C2_2  and  N1_3 
REMARK    2  A    between atoms: N1_3  and  C3_5 
REMARK    3  A    between atoms: C5_7  and  O1_8 
REMARK    4  A    between atoms: C6_10  and  C7_11 
REMARK    5  A    between atoms: C7_11  and  O2_12 
REMARK    6  A    between atoms: C11_16  and  O3_18 
REMARK    7  A    between atoms: C16_23  and  C17_24 
REMARK    8  A    between atoms: C17_24  and  O4_25 
REMARK    9  A    between atoms: C19_29  and  N2_30 
REMARK   10  A    between atoms: C20_34  and  O6_35 
ROOT
HETATM    1  C3  UNL     1      17.384  -7.671  28.225  1.00  0.00     0.122 C 
HETATM    2  C4  UNL     1      16.657  -8.375  29.342  1.00  0.00     0.061 C 
HETATM    3  C5  UNL     1      15.227  -8.464  28.799  1.00  0.00     0.134 C 
HETATM    4  C6  UNL     1      15.475  -8.891  27.367  1.00  0.00     0.045 C 
HETATM    5  C9  UNL     1      15.640 -10.387  27.308  1.00  0.00     0.026 C 
HETATM    6  C10 UNL     1      16.180 -10.857  25.995  1.00  0.00     0.040 A 
HETATM    7  C11 UNL     1      17.606 -11.415  26.135  1.00  0.00     0.073 A 
HETATM    8  C12 UNL     1      18.109 -11.695  27.496  1.00  0.00     0.047 C 
HETATM    9  C13 UNL     1      17.365 -10.155  25.479  1.00  0.00     0.054 A 
HETATM   10  C14 UNL     1      17.524  -8.787  25.967  1.00  0.00    -0.029 C 
HETATM   11  C15 UNL     1      18.503  -8.064  25.401  1.00  0.00     0.022 C 
HETATM   12  C16 UNL     1      19.378  -8.615  24.333  1.00  0.00     0.129 A 
HETATM   13  O5  UNL     1      18.716  -8.255  23.020  1.00  0.00    -0.360 OA
HETATM   14  C18 UNL     1      18.884  -9.626  23.567  1.00  0.00     0.195 A 
HETATM   15  C19 UNL     1      17.528 -10.184  23.937  1.00  0.00     0.231 C 
HETATM   16  C20 UNL     1      16.674  -8.103  26.975  1.00  0.00     0.114 C 
ENDROOT
BRANCH   1  17
HETATM   17  N1  UNL     1      18.780  -7.765  28.199  1.00  0.00    -0.395 N 
ATOM     18  H1  UNL     1      19.307  -7.338  27.437  1.00  0.00     0.159 HD
BRANCH  17  19
HETATM   19  C2  UNL     1      19.455  -8.448  29.225  1.00  0.00     0.051 C 
HETATM   20  C1  UNL     1      20.624  -9.290  28.789  1.00  0.00     0.054 C 
ENDBRANCH  17  19
ENDBRANCH   1  17
BRANCH  16  21
HETATM   21  O6  UNL     1      16.167  -6.890  26.410  1.00  0.00    -0.382 OA
ATOM     22  H6  UNL     1      16.628  -6.798  25.584  1.00  0.00     0.211 HD
ENDBRANCH  16  21
BRANCH   3  23
HETATM   23  O1  UNL     1      14.458  -9.379  29.472  1.00  0.00    -0.395 OA
ATOM     24  H1  UNL     1      13.649  -9.587  29.018  1.00  0.00     0.210 HD
ENDBRANCH   3  23
BRANCH   4  25
HETATM   25  C7  UNL     1      14.235  -8.531  26.584  1.00  0.00     0.182 C 
BRANCH  25  26
HETATM   26  O2  UNL     1      13.397  -7.636  27.178  1.00  0.00    -0.395 OA
HETATM   27  C8  UNL     1      12.610  -7.025  26.216  1.00  0.00     0.201 C 
ENDBRANCH  25  26
ENDBRANCH   4  25
BRANCH   7  28
HETATM   28  O3  UNL     1      17.778 -12.548  25.285  1.00  0.00    -0.389 OA
ATOM     29  H3  UNL     1      16.968 -12.743  24.828  1.00  0.00     0.210 HD
ENDBRANCH   7  28
BRANCH  15  30
HETATM   30  N2  UNL     1      16.463  -9.503  23.276  1.00  0.00    -0.071 N 
ATOM     31  H23 UNL     1      15.565  -9.945  23.468  1.00  0.00     0.274 HD
ATOM     32  H22 UNL     1      16.287  -8.592  23.700  1.00  0.00     0.274 HD
ATOM     33  H21 UNL     1      16.629  -9.420  22.274  1.00  0.00     0.274 HD
ENDBRANCH  15  30
BRANCH  12  34
HETATM   34  C17 UNL     1      20.767  -8.069  24.239  1.00  0.00     0.209 C 
BRANCH  34  35
HETATM   35  O4  UNL     1      21.546  -8.842  23.386  1.00  0.00    -0.397 OA
ATOM     36  H4  UNL     1      21.037  -9.143  22.643  1.00  0.00     0.209 HD
ENDBRANCH  34  35
ENDBRANCH  12  34
TORSDOF 10
ENDMDL
MODEL 5
REMARK VINA RESULT: -6.504015643      2.499      3.989
REMARK  10 active torsions:
REMARK  status: ('A' for Active; 'I' for Inactive)
REMARK    1  A    between atoms: C2_2  and  N1_3 
REMARK    2  A    between atoms: N1_3  and  C3_5 
REMARK    3  A    between atoms: C5_7  and  O1_8 
REMARK    4  A    between atoms: C6_10  and  C7_11 
REMARK    5  A    between atoms: C7_11  and  O2_12 
REMARK    6  A    between atoms: C11_16  and  O3_18 
REMARK    7  A    between atoms: C16_23  and  C17_24 
REMARK    8  A    between atoms: C17_24  and  O4_25 
REMARK    9  A    between atoms: C19_29  and  N2_30 
REMARK   10  A    between atoms: C20_34  and  O6_35 
ROOT
HETATM    1  C3  UNL     1      17.170 -10.128  23.217  1.00  0.00     0.122 C 
HETATM    2  C4  UNL     1      18.479  -9.940  22.492  1.00  0.00     0.061 C 
HETATM    3  C5  UNL     1      18.225  -8.664  21.682  1.00  0.00     0.134 C 
HETATM    4  C6  UNL     1      17.537  -7.788  22.707  1.00  0.00     0.045 C 
HETATM    5  C9  UNL     1      18.570  -7.098  23.558  1.00  0.00     0.026 C 
HETATM    6  C10 UNL     1      17.982  -6.456  24.774  1.00  0.00     0.040 A 
HETATM    7  C11 UNL     1      18.425  -7.169  26.062  1.00  0.00     0.073 A 
HETATM    8  C12 UNL     1      19.546  -8.126  25.972  1.00  0.00     0.047 C 
HETATM    9  C13 UNL     1      17.071  -7.281  25.582  1.00  0.00     0.054 A 
HETATM   10  C14 UNL     1      16.413  -8.359  24.848  1.00  0.00    -0.029 C 
HETATM   11  C15 UNL     1      15.461  -9.034  25.510  1.00  0.00     0.022 C 
HETATM   12  C16 UNL     1      15.087  -8.706  26.912  1.00  0.00     0.129 A 
HETATM   13  O5  UNL     1      13.949  -7.714  26.822  1.00  0.00    -0.360 OA
HETATM   14  C18 UNL     1      15.309  -7.435  27.347  1.00  0.00     0.195 A 
HETATM   15  C19 UNL     1      16.022  -6.491  26.405  1.00  0.00     0.231 C 
HETATM   16  C20 UNL     1      16.648  -8.737  23.430  1.00  0.00     0.114 C 
ENDROOT
BRANCH   1  17
HETATM   17  N1  UNL     1      17.164 -10.964  24.339  1.00  0.00    -0.395 N 
ATOM     18  H1  UNL     1      16.291 -11.153  24.831  1.00  0.00     0.159 HD
BRANCH  17  19
HETATM   19  C2  UNL     1      18.365 -11.541  24.788  1.00  0.00     0.051 C 
HETATM   20  C1  UNL     1      18.482 -11.726  26.278  1.00  0.00     0.054 C 
ENDBRANCH  17  19
ENDBRANCH   1  17
BRANCH  16  21
HETATM   21  O6  UNL     1      15.402  -8.706  22.728  1.00  0.00    -0.382 OA
ATOM     22  H6  UNL     1      14.974  -9.522  22.962  1.00  0.00     0.211 HD
ENDBRANCH  16  21
BRANCH   3  23
HETATM   23  O1  UNL     1      19.381  -8.087  21.221  1.00  0.00    -0.395 OA
ATOM     24  H1  UNL     1      19.456  -7.170  21.457  1.00  0.00     0.210 HD
ENDBRANCH   3  23
BRANCH   4  25
HETATM   25  C7  UNL     1      16.786  -6.726  21.940  1.00  0.00     0.182 C 
BRANCH  25  26
HETATM   26  O2  UNL     1      17.553  -5.852  21.231  1.00  0.00    -0.395 OA
HETATM   27  C8  UNL     1      17.035  -5.706  19.954  1.00  0.00     0.201 C 
ENDBRANCH  25  26
ENDBRANCH   4  25
BRANCH   7  28
HETATM   28  O3  UNL     1      18.651  -6.216  27.101  1.00  0.00    -0.389 OA
ATOM     29  H3  UNL     1      19.531  -6.309  27.447  1.00  0.00     0.210 HD
ENDBRANCH   7  28
BRANCH  15  30
HETATM   30  N2  UNL     1      15.117  -5.775  25.567  1.00  0.00    -0.071 N 
ATOM     31  H23 UNL     1      15.282  -5.980  24.583  1.00  0.00     0.274 HD
ATOM     32  H22 UNL     1      14.168  -6.141  25.650  1.00  0.00     0.274 HD
ATOM     33  H21 UNL     1      15.144  -4.772  25.746  1.00  0.00     0.274 HD
ENDBRANCH  15  30
BRANCH  12  34
HETATM   34  C17 UNL     1      14.573  -9.824  27.761  1.00  0.00     0.209 C 
BRANCH  34  35
HETATM   35  O4  UNL     1      14.545  -9.456  29.100  1.00  0.00    -0.397 OA
ATOM     36  H4  UNL     1      15.299  -8.922  29.320  1.00  0.00     0.209 HD
ENDBRANCH  34  35
ENDBRANCH  12  34
TORSDOF 10
ENDMDL
