MODEL 1
REMARK VINA RESULT: -4.418140389      0.000      0.000
REMARK  2 active torsions:
REMARK  status: ('A' for Active; 'I' for Inactive)
REMARK    1  A    between atoms: N2_4  and  N3_6 
REMARK    2  A    between atoms: N3_6  and  C1_8 
ROOT
HETATM    1  N3  UNL     1      31.777  33.635  27.799  1.00  0.00    -0.296 N 
ATOM      2  H3  UNL     1      32.240  34.542  27.867  1.00  0.00     0.184 HD
ENDROOT
BRANCH   1   3
HETATM    3  N2  UNL     1      30.621  33.523  27.026  1.00  0.00    -0.252 N 
HETATM    4  N1  UNL     1      29.978  34.546  26.666  1.00  0.00    -0.331 N 
ATOM      5  H12 UNL     1      30.321  35.463  26.952  1.00  0.00     0.178 HD
ATOM      6  H11 UNL     1      29.132  34.464  26.101  1.00  0.00     0.178 HD
ATOM      7  H2  UNL     1      30.291  32.598  26.748  1.00  0.00     0.207 HD
ENDBRANCH   1   3
BRANCH   1   8
HETATM    8  C1  UNL     1      32.332  32.523  28.496  1.00  0.00     0.232 A 
HETATM    9  C2  UNL     1      31.407  31.763  29.405  1.00  0.00     0.188 A 
HETATM   10  N4  UNL     1      31.743  30.748  28.457  1.00  0.00    -0.335 N 
HETATM   11  N5  UNL     1      32.504  31.342  27.694  1.00  0.00    -0.314 N 
ATOM     12  H4  UNL     1      31.431  29.778  28.422  1.00  0.00     0.179 HD
ATOM     13  H5  UNL     1      33.031  31.100  26.854  1.00  0.00     0.182 HD
ENDBRANCH   1   8
TORSDOF 2
ENDMDL
MODEL 2
REMARK VINA RESULT: -4.125145366      8.743     10.140
REMARK  2 active torsions:
REMARK  status: ('A' for Active; 'I' for Inactive)
REMARK    1  A    between atoms: N2_4  and  N3_6 
REMARK    2  A    between atoms: N3_6  and  C1_8 
ROOT
HETATM    1  N3  UNL     1      37.518  25.859  32.605  1.00  0.00    -0.296 N 
ATOM      2  H3  UNL     1      37.323  25.007  33.132  1.00  0.00     0.184 HD
ENDROOT
BRANCH   1   3
HETATM    3  N2  UNL     1      37.186  25.908  31.250  1.00  0.00    -0.252 N 
HETATM    4  N1  UNL     1      36.393  26.782  30.806  1.00  0.00    -0.331 N 
ATOM      5  H12 UNL     1      35.996  27.457  31.460  1.00  0.00     0.178 HD
ATOM      6  H11 UNL     1      36.150  26.818  29.816  1.00  0.00     0.178 HD
ATOM      7  H2  UNL     1      37.592  25.225  30.610  1.00  0.00     0.207 HD
ENDBRANCH   1   3
BRANCH   1   8
HETATM    8  C1  UNL     1      38.120  26.962  33.276  1.00  0.00     0.232 A 
HETATM    9  C2  UNL     1      37.227  27.792  34.155  1.00  0.00     0.188 A 
HETATM   10  N4  UNL     1      38.158  27.292  35.117  1.00  0.00    -0.335 N 
HETATM   11  N5  UNL     1      38.908  26.605  34.425  1.00  0.00    -0.314 N 
ATOM     12  H4  UNL     1      38.193  27.462  36.122  1.00  0.00     0.179 HD
ATOM     13  H5  UNL     1      39.734  26.030  34.593  1.00  0.00     0.182 HD
ENDBRANCH   1   8
TORSDOF 2
ENDMDL
MODEL 3
REMARK VINA RESULT: -4.099541214      8.668      9.569
REMARK  2 active torsions:
REMARK  status: ('A' for Active; 'I' for Inactive)
REMARK    1  A    between atoms: N2_4  and  N3_6 
REMARK    2  A    between atoms: N3_6  and  C1_8 
ROOT
HETATM    1  N3  UNL     1      36.535  27.505  32.341  1.00  0.00    -0.296 N 
ATOM      2  H3  UNL     1      35.800  28.111  32.706  1.00  0.00     0.184 HD
ENDROOT
BRANCH   1   3
HETATM    3  N2  UNL     1      36.388  26.956  31.067  1.00  0.00    -0.252 N 
HETATM    4  N1  UNL     1      35.483  26.112  30.823  1.00  0.00    -0.331 N 
ATOM      5  H12 UNL     1      34.856  25.838  31.580  1.00  0.00     0.178 HD
ATOM      6  H11 UNL     1      35.375  25.711  29.892  1.00  0.00     0.178 HD
ATOM      7  H2  UNL     1      37.022  27.242  30.321  1.00  0.00     0.207 HD
ENDBRANCH   1   3
BRANCH   1   8
HETATM    8  C1  UNL     1      37.680  27.247  33.148  1.00  0.00     0.232 A 
HETATM    9  C2  UNL     1      37.587  27.626  34.599  1.00  0.00     0.188 A 
HETATM   10  N4  UNL     1      37.766  26.212  34.704  1.00  0.00    -0.335 N 
HETATM   11  N5  UNL     1      37.846  25.869  33.526  1.00  0.00    -0.314 N 
ATOM     12  H4  UNL     1      37.814  25.635  35.543  1.00  0.00     0.179 HD
ATOM     13  H5  UNL     1      37.975  24.986  33.030  1.00  0.00     0.182 HD
ENDBRANCH   1   8
TORSDOF 2
ENDMDL
MODEL 4
REMARK VINA RESULT: -4.087186893      9.501     11.214
REMARK  2 active torsions:
REMARK  status: ('A' for Active; 'I' for Inactive)
REMARK    1  A    between atoms: N2_4  and  N3_6 
REMARK    2  A    between atoms: N3_6  and  C1_8 
ROOT
HETATM    1  N3  UNL     1      37.622  26.146  35.323  1.00  0.00    -0.296 N 
ATOM      2  H3  UNL     1      37.695  26.496  36.278  1.00  0.00     0.184 HD
ENDROOT
BRANCH   1   3
HETATM    3  N2  UNL     1      37.219  24.826  35.115  1.00  0.00    -0.252 N 
HETATM    4  N1  UNL     1      37.045  24.039  36.085  1.00  0.00    -0.331 N 
ATOM      5  H12 UNL     1      37.205  24.388  37.029  1.00  0.00     0.178 HD
ATOM      6  H11 UNL     1      36.750  23.074  35.933  1.00  0.00     0.178 HD
ATOM      7  H2  UNL     1      37.064  24.493  34.163  1.00  0.00     0.207 HD
ENDBRANCH   1   3
BRANCH   1   8
HETATM    8  C1  UNL     1      37.935  27.019  34.242  1.00  0.00     0.232 A 
HETATM    9  C2  UNL     1      37.724  26.483  32.853  1.00  0.00     0.188 A 
HETATM   10  N4  UNL     1      36.801  27.573  32.861  1.00  0.00    -0.335 N 
HETATM   11  N5  UNL     1      36.950  28.037  33.991  1.00  0.00    -0.314 N 
ATOM     12  H4  UNL     1      36.177  27.888  32.118  1.00  0.00     0.179 HD
ATOM     13  H5  UNL     1      36.548  28.810  34.522  1.00  0.00     0.182 HD
ENDBRANCH   1   8
TORSDOF 2
ENDMDL
MODEL 5
REMARK VINA RESULT: -4.078606688      1.453      1.620
REMARK  2 active torsions:
REMARK  status: ('A' for Active; 'I' for Inactive)
REMARK    1  A    between atoms: N2_4  and  N3_6 
REMARK    2  A    between atoms: N3_6  and  C1_8 
ROOT
HETATM    1  N3  UNL     1      31.207  33.416  27.447  1.00  0.00    -0.296 N 
ATOM      2  H3  UNL     1      32.037  33.732  26.945  1.00  0.00     0.184 HD
ENDROOT
BRANCH   1   3
HETATM    3  N2  UNL     1      29.959  33.910  27.067  1.00  0.00    -0.252 N 
HETATM    4  N1  UNL     1      29.859  34.907  26.301  1.00  0.00    -0.331 N 
ATOM      5  H12 UNL     1      30.715  35.348  25.963  1.00  0.00     0.178 HD
ATOM      6  H11 UNL     1      28.947  35.268  26.022  1.00  0.00     0.178 HD
ATOM      7  H2  UNL     1      29.113  33.456  27.413  1.00  0.00     0.207 HD
ENDBRANCH   1   3
BRANCH   1   8
HETATM    8  C1  UNL     1      31.358  32.486  28.516  1.00  0.00     0.232 A 
HETATM    9  C2  UNL     1      32.657  31.731  28.579  1.00  0.00     0.188 A 
HETATM   10  N4  UNL     1      32.707  32.451  29.812  1.00  0.00    -0.335 N 
HETATM   11  N5  UNL     1      31.651  33.083  29.791  1.00  0.00    -0.314 N 
ATOM     12  H4  UNL     1      33.433  32.443  30.528  1.00  0.00     0.179 HD
ATOM     13  H5  UNL     1      31.184  33.745  30.411  1.00  0.00     0.182 HD
ENDBRANCH   1   8
TORSDOF 2
ENDMDL
