MODEL 1
REMARK VINA RESULT: -4.677654858      0.000      0.000
REMARK  2 active torsions:
REMARK  status: ('A' for Active; 'I' for Inactive)
REMARK    1  A    between atoms: N2_4  and  N3_6 
REMARK    2  A    between atoms: N4_8  and  C1_10 
ROOT
HETATM    1  N3  UNL     1      30.537  33.475  27.392  1.00  0.00    -0.231 N 
ATOM      2  H3  UNL     1      29.795  32.873  27.746  1.00  0.00     0.209 HD
HETATM    3  N4  UNL     1      31.712  33.339  27.779  1.00  0.00    -0.289 N 
ATOM      4  H4  UNL     1      32.396  33.981  27.378  1.00  0.00     0.184 HD
ENDROOT
BRANCH   1   5
HETATM    5  N2  UNL     1      30.264  34.478  26.456  1.00  0.00    -0.235 N 
HETATM    6  N1  UNL     1      29.153  35.102  26.606  1.00  0.00    -0.330 N 
ATOM      7  H12 UNL     1      28.518  34.869  27.369  1.00  0.00     0.178 HD
ATOM      8  H11 UNL     1      28.954  35.833  25.923  1.00  0.00     0.178 HD
ATOM      9  H2  UNL     1      30.910  34.700  25.699  1.00  0.00     0.209 HD
ENDBRANCH   1   5
BRANCH   3  10
HETATM   10  C1  UNL     1      32.213  32.393  28.719  1.00  0.00     0.325 A 
HETATM   11  C2  UNL     1      31.350  31.876  29.769  1.00  0.00     0.290 A 
HETATM   12  N5  UNL     1      32.366  32.948  30.087  1.00  0.00    -0.048 N 
ATOM     13  H52 UNL     1      33.130  33.062  30.753  1.00  0.00     0.279 HD
ATOM     14  H51 UNL     1      32.347  33.875  30.511  1.00  0.00     0.279 HD
ENDBRANCH   3  10
TORSDOF 2
ENDMDL
MODEL 2
REMARK VINA RESULT: -4.360390022      9.505      9.905
REMARK  2 active torsions:
REMARK  status: ('A' for Active; 'I' for Inactive)
REMARK    1  A    between atoms: N2_4  and  N3_6 
REMARK    2  A    between atoms: N4_8  and  C1_10 
ROOT
HETATM    1  N3  UNL     1      36.627  26.702  31.283  1.00  0.00    -0.231 N 
ATOM      2  H3  UNL     1      36.450  27.664  30.993  1.00  0.00     0.209 HD
HETATM    3  N4  UNL     1      37.273  26.455  32.318  1.00  0.00    -0.289 N 
ATOM      4  H4  UNL     1      37.406  25.469  32.540  1.00  0.00     0.184 HD
ENDROOT
BRANCH   1   5
HETATM    5  N2  UNL     1      36.151  25.625  30.530  1.00  0.00    -0.235 N 
HETATM    6  N1  UNL     1      34.878  25.549  30.393  1.00  0.00    -0.330 N 
ATOM      7  H12 UNL     1      34.262  26.243  30.817  1.00  0.00     0.178 HD
ATOM      8  H11 UNL     1      34.531  24.763  29.844  1.00  0.00     0.178 HD
ATOM      9  H2  UNL     1      36.780  24.939  30.112  1.00  0.00     0.209 HD
ENDBRANCH   1   5
BRANCH   3  10
HETATM   10  C1  UNL     1      37.846  27.388  33.229  1.00  0.00     0.325 A 
HETATM   11  C2  UNL     1      37.732  27.177  34.663  1.00  0.00     0.290 A 
HETATM   12  N5  UNL     1      36.836  28.179  33.974  1.00  0.00    -0.048 N 
ATOM     13  H52 UNL     1      36.614  29.168  34.089  1.00  0.00     0.279 HD
ATOM     14  H51 UNL     1      35.831  28.340  33.905  1.00  0.00     0.279 HD
ENDBRANCH   3  10
TORSDOF 2
ENDMDL
MODEL 3
REMARK VINA RESULT: -4.241000515      9.510     10.298
REMARK  2 active torsions:
REMARK  status: ('A' for Active; 'I' for Inactive)
REMARK    1  A    between atoms: N2_4  and  N3_6 
REMARK    2  A    between atoms: N4_8  and  C1_10 
ROOT
HETATM    1  N3  UNL     1      36.586  26.693  31.340  1.00  0.00    -0.231 N 
ATOM      2  H3  UNL     1      36.370  27.679  31.193  1.00  0.00     0.209 HD
HETATM    3  N4  UNL     1      37.307  26.331  32.288  1.00  0.00    -0.289 N 
ATOM      4  H4  UNL     1      37.477  25.329  32.366  1.00  0.00     0.184 HD
ENDROOT
BRANCH   1   5
HETATM    5  N2  UNL     1      36.082  25.711  30.482  1.00  0.00    -0.235 N 
HETATM    6  N1  UNL     1      34.804  25.623  30.414  1.00  0.00    -0.330 N 
ATOM      7  H12 UNL     1      34.204  26.242  30.960  1.00  0.00     0.178 HD
ATOM      8  H11 UNL     1      34.437  24.906  29.788  1.00  0.00     0.178 HD
ATOM      9  H2  UNL     1      36.695  25.100  29.942  1.00  0.00     0.209 HD
ENDBRANCH   1   5
BRANCH   3  10
HETATM   10  C1  UNL     1      37.923  27.153  33.275  1.00  0.00     0.325 A 
HETATM   11  C2  UNL     1      39.327  26.970  33.609  1.00  0.00     0.290 A 
HETATM   12  N5  UNL     1      38.257  26.422  34.523  1.00  0.00    -0.048 N 
ATOM     13  H52 UNL     1      38.019  26.509  35.512  1.00  0.00     0.279 HD
ATOM     14  H51 UNL     1      38.029  25.514  34.926  1.00  0.00     0.279 HD
ENDBRANCH   3  10
TORSDOF 2
ENDMDL
MODEL 4
REMARK VINA RESULT: -4.143484004      9.839     11.470
REMARK  2 active torsions:
REMARK  status: ('A' for Active; 'I' for Inactive)
REMARK    1  A    between atoms: N2_4  and  N3_6 
REMARK    2  A    between atoms: N4_8  and  C1_10 
ROOT
HETATM    1  N3  UNL     1      37.836  26.132  33.654  1.00  0.00    -0.231 N 
ATOM      2  H3  UNL     1      38.347  26.960  33.349  1.00  0.00     0.209 HD
HETATM    3  N4  UNL     1      37.206  25.433  32.840  1.00  0.00    -0.289 N 
ATOM      4  H4  UNL     1      36.721  24.622  33.224  1.00  0.00     0.184 HD
ENDROOT
BRANCH   1   5
HETATM    5  N2  UNL     1      37.824  25.751  34.999  1.00  0.00    -0.235 N 
HETATM    6  N1  UNL     1      37.185  24.672  35.275  1.00  0.00    -0.330 N 
ATOM      7  H12 UNL     1      36.719  24.136  34.543  1.00  0.00     0.178 HD
ATOM      8  H11 UNL     1      37.176  24.395  36.256  1.00  0.00     0.178 HD
ATOM      9  H2  UNL     1      38.296  26.297  35.720  1.00  0.00     0.209 HD
ENDBRANCH   1   5
BRANCH   3  10
HETATM   10  C1  UNL     1      37.082  25.633  31.435  1.00  0.00     0.325 A 
HETATM   11  C2  UNL     1      36.162  26.633  30.916  1.00  0.00     0.290 A 
HETATM   12  N5  UNL     1      35.782  25.171  30.888  1.00  0.00    -0.048 N 
ATOM     13  H52 UNL     1      35.478  24.504  30.179  1.00  0.00     0.279 HD
ATOM     14  H51 UNL     1      35.001  24.608  31.225  1.00  0.00     0.279 HD
ENDBRANCH   3  10
TORSDOF 2
ENDMDL
MODEL 5
REMARK VINA RESULT: -4.064783502      9.923     11.046
REMARK  2 active torsions:
REMARK  status: ('A' for Active; 'I' for Inactive)
REMARK    1  A    between atoms: N2_4  and  N3_6 
REMARK    2  A    between atoms: N4_8  and  C1_10 
ROOT
HETATM    1  N3  UNL     1      37.909  26.213  33.151  1.00  0.00    -0.231 N 
ATOM      2  H3  UNL     1      38.510  25.630  32.569  1.00  0.00     0.209 HD
HETATM    3  N4  UNL     1      36.923  26.799  32.669  1.00  0.00    -0.289 N 
ATOM      4  H4  UNL     1      36.372  27.362  33.317  1.00  0.00     0.184 HD
ENDROOT
BRANCH   1   5
HETATM    5  N2  UNL     1      38.170  26.376  34.516  1.00  0.00    -0.235 N 
HETATM    6  N1  UNL     1      37.553  25.577  35.308  1.00  0.00    -0.330 N 
ATOM      7  H12 UNL     1      36.913  24.869  34.947  1.00  0.00     0.178 HD
ATOM      8  H11 UNL     1      37.744  25.696  36.303  1.00  0.00     0.178 HD
ATOM      9  H2  UNL     1      38.813  27.087  34.861  1.00  0.00     0.209 HD
ENDBRANCH   1   5
BRANCH   3  10
HETATM   10  C1  UNL     1      36.474  26.776  31.317  1.00  0.00     0.325 A 
HETATM   11  C2  UNL     1      35.675  25.663  30.830  1.00  0.00     0.290 A 
HETATM   12  N5  UNL     1      37.145  25.741  30.492  1.00  0.00    -0.048 N 
ATOM     13  H52 UNL     1      37.706  25.730  29.640  1.00  0.00     0.279 HD
ATOM     14  H51 UNL     1      37.957  25.132  30.595  1.00  0.00     0.279 HD
ENDBRANCH   3  10
TORSDOF 2
ENDMDL
