MODEL 1
REMARK VINA RESULT: -5.230910900      0.000      0.000
REMARK  0 active torsions:
REMARK  status: ('A' for Active; 'I' for Inactive)
REMARK       I    between atoms: N1_1  and  C1_4 
ROOT
HETATM    1  N1  UNL     1      27.852  27.466   2.037  1.00  0.00    -0.234 N 
ATOM      2  H11 UNL     1      27.337  27.832   2.837  1.00  0.00     0.174 HD
ATOM      3  H12 UNL     1      27.440  26.901   1.294  1.00  0.00     0.174 HD
HETATM    4  C1  UNL     1      29.108  27.744   1.974  1.00  0.00     0.682 C 
HETATM    5  N2  UNL     1      29.790  27.259   0.914  1.00  0.00    -0.155 N 
ATOM      6  H2  UNL     1      29.216  26.759   0.235  1.00  0.00     0.187 HD
HETATM    7  C2  UNL     1      31.102  27.322   0.597  1.00  0.00     0.275 C 
HETATM    8  O1  UNL     1      31.464  26.867  -0.525  1.00  0.00    -0.266 OA
HETATM    9  C3  UNL     1      32.142  27.829   1.349  1.00  0.00     0.167 C 
HETATM   10  N3  UNL     1      32.011  28.580   2.467  1.00  0.00    -0.313 N 
ATOM     11  H3  UNL     1      32.883  28.957   2.838  1.00  0.00     0.170 HD
HETATM   12  C4  UNL     1      30.898  28.910   3.172  1.00  0.00     0.338 C 
HETATM   13  O2  UNL     1      31.118  29.702   4.126  1.00  0.00    -0.246 OA
HETATM   14  N4  UNL     1      29.655  28.493   2.959  1.00  0.00    -0.141 N 
ATOM     15  H4  UNL     1      28.989  28.794   3.670  1.00  0.00     0.189 HD
ENDROOT
TORSDOF 0
ENDMDL
MODEL 2
REMARK VINA RESULT: -5.095211005      0.638      3.055
REMARK  0 active torsions:
REMARK  status: ('A' for Active; 'I' for Inactive)
REMARK       I    between atoms: N1_1  and  C1_4 
ROOT
HETATM    1  N1  UNL     1      27.794  27.466   2.009  1.00  0.00    -0.234 N 
ATOM      2  H11 UNL     1      27.397  26.875   1.279  1.00  0.00     0.174 HD
ATOM      3  H12 UNL     1      27.258  27.887   2.767  1.00  0.00     0.174 HD
HETATM    4  C1  UNL     1      29.062  27.687   1.957  1.00  0.00     0.682 C 
HETATM    5  N2  UNL     1      29.588  28.469   2.924  1.00  0.00    -0.155 N 
ATOM      6  H2  UNL     1      28.921  28.765   3.637  1.00  0.00     0.187 HD
HETATM    7  C2  UNL     1      30.845  28.928   3.110  1.00  0.00     0.275 C 
HETATM    8  O1  UNL     1      31.092  29.568   4.172  1.00  0.00    -0.266 OA
HETATM    9  C3  UNL     1      31.938  28.797   2.278  1.00  0.00     0.167 C 
HETATM   10  N3  UNL     1      32.016  27.972   1.208  1.00  0.00    -0.313 N 
ATOM     11  H3  UNL     1      32.934  27.925   0.767  1.00  0.00     0.170 HD
HETATM   12  C4  UNL     1      31.062  27.196   0.631  1.00  0.00     0.338 C 
HETATM   13  O2  UNL     1      31.493  26.477  -0.309  1.00  0.00    -0.246 OA
HETATM   14  N4  UNL     1      29.775  27.128   0.952  1.00  0.00    -0.141 N 
ATOM     15  H4  UNL     1      29.221  26.547   0.323  1.00  0.00     0.189 HD
ENDROOT
TORSDOF 0
ENDMDL
MODEL 3
REMARK VINA RESULT: -4.688706129      1.555      3.898
REMARK  0 active torsions:
REMARK  status: ('A' for Active; 'I' for Inactive)
REMARK       I    between atoms: N1_1  and  C1_4 
ROOT
HETATM    1  N1  UNL     1      33.042  27.140   0.869  1.00  0.00    -0.234 N 
ATOM      2  H11 UNL     1      33.057  26.656  -0.029  1.00  0.00     0.174 HD
ATOM      3  H12 UNL     1      33.809  27.135   1.540  1.00  0.00     0.174 HD
HETATM    4  C1  UNL     1      31.974  27.798   1.161  1.00  0.00     0.682 C 
HETATM    5  N2  UNL     1      31.955  28.439   2.350  1.00  0.00    -0.155 N 
ATOM      6  H2  UNL     1      32.826  28.376   2.877  1.00  0.00     0.187 HD
HETATM    7  C2  UNL     1      30.981  29.148   2.961  1.00  0.00     0.275 C 
HETATM    8  O1  UNL     1      31.267  29.740   4.041  1.00  0.00    -0.266 OA
HETATM    9  C3  UNL     1      29.672  29.327   2.563  1.00  0.00     0.167 C 
HETATM   10  N3  UNL     1      29.170  29.010   1.348  1.00  0.00    -0.313 N 
ATOM     11  H3  UNL     1      28.206  29.304   1.189  1.00  0.00     0.170 HD
HETATM   12  C4  UNL     1      29.749  28.361   0.305  1.00  0.00     0.338 C 
HETATM   13  O2  UNL     1      29.024  28.303  -0.723  1.00  0.00    -0.246 OA
HETATM   14  N4  UNL     1      30.955  27.805   0.271  1.00  0.00    -0.141 N 
ATOM     15  H4  UNL     1      31.149  27.287  -0.586  1.00  0.00     0.189 HD
ENDROOT
TORSDOF 0
ENDMDL
MODEL 4
REMARK VINA RESULT: -4.673342298      1.501      3.171
REMARK  0 active torsions:
REMARK  status: ('A' for Active; 'I' for Inactive)
REMARK       I    between atoms: N1_1  and  C1_4 
ROOT
HETATM    1  N1  UNL     1      28.377  27.955  -0.668  1.00  0.00    -0.234 N 
ATOM      2  H11 UNL     1      28.522  27.300  -1.436  1.00  0.00     0.174 HD
ATOM      3  H12 UNL     1      27.537  28.518  -0.540  1.00  0.00     0.174 HD
HETATM    4  C1  UNL     1      29.331  28.069   0.190  1.00  0.00     0.682 C 
HETATM    5  N2  UNL     1      29.139  28.938   1.207  1.00  0.00    -0.155 N 
ATOM      6  H2  UNL     1      28.220  29.380   1.216  1.00  0.00     0.187 HD
HETATM    7  C2  UNL     1      29.954  29.321   2.214  1.00  0.00     0.275 C 
HETATM    8  O1  UNL     1      29.480  30.082   3.104  1.00  0.00    -0.266 OA
HETATM    9  C3  UNL     1      31.278  28.991   2.418  1.00  0.00     0.167 C 
HETATM   10  N3  UNL     1      31.956  28.020   1.763  1.00  0.00    -0.313 N 
ATOM     11  H3  UNL     1      32.898  27.842   2.111  1.00  0.00     0.170 HD
HETATM   12  C4  UNL     1      31.577  27.246   0.713  1.00  0.00     0.338 C 
HETATM   13  O2  UNL     1      32.426  26.372   0.395  1.00  0.00    -0.246 OA
HETATM   14  N4  UNL     1      30.446  27.323   0.021  1.00  0.00    -0.141 N 
ATOM     15  H4  UNL     1      30.412  26.703  -0.788  1.00  0.00     0.189 HD
ENDROOT
TORSDOF 0
ENDMDL
MODEL 5
REMARK VINA RESULT: -4.504533934      1.408      2.709
REMARK  0 active torsions:
REMARK  status: ('A' for Active; 'I' for Inactive)
REMARK       I    between atoms: N1_1  and  C1_4 
ROOT
HETATM    1  N1  UNL     1      32.869  27.532   0.502  1.00  0.00    -0.234 N 
ATOM      2  H11 UNL     1      33.627  28.067   0.926  1.00  0.00     0.174 HD
ATOM      3  H12 UNL     1      32.972  26.933  -0.316  1.00  0.00     0.174 HD
HETATM    4  C1  UNL     1      31.707  27.631   1.050  1.00  0.00     0.682 C 
HETATM    5  N2  UNL     1      30.703  26.921   0.489  1.00  0.00    -0.155 N 
ATOM      6  H2  UNL     1      30.990  26.330  -0.292  1.00  0.00     0.187 HD
HETATM    7  C2  UNL     1      29.387  26.860   0.784  1.00  0.00     0.275 C 
HETATM    8  O1  UNL     1      28.677  26.022   0.157  1.00  0.00    -0.266 OA
HETATM    9  C3  UNL     1      28.677  27.606   1.702  1.00  0.00     0.167 C 
HETATM   10  N3  UNL     1      29.219  28.395   2.660  1.00  0.00    -0.313 N 
ATOM     11  H3  UNL     1      28.550  28.794   3.318  1.00  0.00     0.170 HD
HETATM   12  C4  UNL     1      30.514  28.737   2.880  1.00  0.00     0.338 C 
HETATM   13  O2  UNL     1      30.687  29.427   3.919  1.00  0.00    -0.246 OA
HETATM   14  N4  UNL     1      31.569  28.426   2.135  1.00  0.00    -0.141 N 
ATOM     15  H4  UNL     1      32.436  28.869   2.438  1.00  0.00     0.189 HD
ENDROOT
TORSDOF 0
ENDMDL
