MODEL 1
REMARK VINA RESULT: -8.476351489      0.000      0.000
REMARK  9 active torsions:
REMARK  status: ('A' for Active; 'I' for Inactive)
REMARK    1  A    between atoms: C1_4  and  C2_5 
REMARK    2  A    between atoms: C2_5  and  O1_6 
REMARK    3  A    between atoms: C2_5  and  N2_8 
REMARK    4  A    between atoms: N2_8  and  C3_10 
REMARK    5  A    between atoms: C6_13  and  N3_14 
REMARK    6  A    between atoms: N3_14  and  C7_16 
REMARK    7  A    between atoms: C9_21  and  N5_22 
REMARK       I    between atoms: N6_25  and  C10_26 
REMARK       I    between atoms: C10_26  and  N7_28 
REMARK    8  A    between atoms: N7_28  and  N8_30 
REMARK    9  A    between atoms: C11_34  and  C12_35 
ROOT
HETATM    1  C7  UNL     1      11.721  23.050   3.115  1.00  0.00     0.144 A 
HETATM    2  N4  UNL     1      12.186  23.454   4.272  1.00  0.00    -0.319 N 
ATOM      3  H4  UNL     1      12.192  24.415   4.616  1.00  0.00     0.169 HD
HETATM    4  C8  UNL     1      12.654  22.378   4.925  1.00  0.00     0.176 A 
HETATM    5  S1  UNL     1      13.430  21.928   6.371  1.00  0.00    -0.014 SA
HETATM    6  C9  UNL     1      13.542  20.283   6.041  1.00  0.00     0.172 A 
HETATM    7  N6  UNL     1      12.976  20.147   4.829  1.00  0.00    -0.172 N 
HETATM    8  C10 UNL     1      12.986  18.778   4.335  1.00  0.00     0.362 C 
HETATM    9  O2  UNL     1      12.135  18.446   3.511  1.00  0.00    -0.243 OA
HETATM   10  N7  UNL     1      13.931  17.797   4.738  1.00  0.00    -0.256 N 
ATOM     11  H7  UNL     1      14.677  17.995   5.406  1.00  0.00     0.191 HD
HETATM   12  N9  UNL     1      12.521  21.231   4.248  1.00  0.00    -0.210 N 
HETATM   13  C11 UNL     1      11.924  21.642   3.068  1.00  0.00     0.179 A 
ENDROOT
BRANCH   1  14
HETATM   14  N3  UNL     1      11.180  23.962   2.184  1.00  0.00    -0.340 N 
ATOM     15  H3  UNL     1      11.720  24.787   1.927  1.00  0.00     0.167 HD
BRANCH  14  16
HETATM   16  C6  UNL     1       9.890  23.757   1.589  1.00  0.00     0.033 A 
HETATM   17  C5  UNL     1       9.902  23.384   0.260  1.00  0.00     0.031 A 
HETATM   18  C4  UNL     1       8.715  23.135  -0.387  1.00  0.00     0.031 A 
HETATM   19  C3  UNL     1       7.529  23.263   0.316  1.00  0.00     0.030 A 
HETATM   20  C14 UNL     1       7.529  23.632   1.631  1.00  0.00     0.031 A 
HETATM   21  C13 UNL     1       8.732  23.888   2.295  1.00  0.00     0.031 A 
BRANCH  19  22
HETATM   22  N2  UNL     1       6.302  23.003  -0.326  1.00  0.00    -0.360 N 
ATOM     23  H2  UNL     1       5.461  22.869   0.235  1.00  0.00     0.162 HD
BRANCH  22  24
HETATM   24  C2  UNL     1       6.216  22.922  -1.749  1.00  0.00     0.257 C 
BRANCH  24  25
HETATM   25  C1  UNL     1       5.878  21.537  -2.142  1.00  0.00     0.106 C 
HETATM   26  N1  UNL     1       6.815  20.659  -2.149  1.00  0.00    -0.408 N 
ATOM     27  H12 UNL     1       7.764  20.927  -1.885  1.00  0.00     0.155 HD
ATOM     28  H11 UNL     1       6.582  19.704  -2.421  1.00  0.00     0.155 HD
ENDBRANCH  24  25
BRANCH  24  29
HETATM   29  O1  UNL     1       5.200  23.758  -2.232  1.00  0.00    -0.372 OA
ATOM     30  H1  UNL     1       5.284  23.793  -3.177  1.00  0.00     0.212 HD
ENDBRANCH  24  29
ENDBRANCH  22  24
ENDBRANCH  19  22
ENDBRANCH  14  16
ENDBRANCH   1  14
BRANCH  13  31
HETATM   31  C12 UNL     1      11.570  20.969   1.853  1.00  0.00     0.233 C 
HETATM   32  O3  UNL     1      12.323  21.084   0.797  1.00  0.00    -0.643 OA
HETATM   33  O4  UNL     1      10.522  20.171   1.587  1.00  0.00    -0.643 OA
ENDBRANCH  13  31
BRANCH   6  34
HETATM   34  N5  UNL     1      14.041  19.381   6.856  1.00  0.00    -0.378 N 
ATOM     35  H52 UNL     1      15.007  19.193   7.125  1.00  0.00     0.158 HD
ATOM     36  H51 UNL     1      13.501  18.665   7.341  1.00  0.00     0.158 HD
ENDBRANCH   6  34
BRANCH  10  37
HETATM   37  N8  UNL     1      13.756  16.511   4.138  1.00  0.00    -0.341 N 
ATOM     38  H82 UNL     1      13.020  15.873   4.442  1.00  0.00     0.177 HD
ATOM     39  H81 UNL     1      14.420  16.290   3.395  1.00  0.00     0.177 HD
ENDBRANCH  10  37
TORSDOF 9
ENDMDL
MODEL 2
REMARK VINA RESULT: -8.256104727      2.161      2.621
REMARK  9 active torsions:
REMARK  status: ('A' for Active; 'I' for Inactive)
REMARK    1  A    between atoms: C1_4  and  C2_5 
REMARK    2  A    between atoms: C2_5  and  O1_6 
REMARK    3  A    between atoms: C2_5  and  N2_8 
REMARK    4  A    between atoms: N2_8  and  C3_10 
REMARK    5  A    between atoms: C6_13  and  N3_14 
REMARK    6  A    between atoms: N3_14  and  C7_16 
REMARK    7  A    between atoms: C9_21  and  N5_22 
REMARK       I    between atoms: N6_25  and  C10_26 
REMARK       I    between atoms: C10_26  and  N7_28 
REMARK    8  A    between atoms: N7_28  and  N8_30 
REMARK    9  A    between atoms: C11_34  and  C12_35 
ROOT
HETATM    1  C7  UNL     1      13.041  22.281   3.353  1.00  0.00     0.144 A 
HETATM    2  N4  UNL     1      14.205  22.651   3.833  1.00  0.00    -0.319 N 
ATOM      3  H4  UNL     1      14.929  23.161   3.327  1.00  0.00     0.169 HD
HETATM    4  C8  UNL     1      14.273  22.237   5.109  1.00  0.00     0.176 A 
HETATM    5  S1  UNL     1      15.323  22.208   6.447  1.00  0.00    -0.014 SA
HETATM    6  C9  UNL     1      14.304  21.370   7.490  1.00  0.00     0.172 A 
HETATM    7  N6  UNL     1      13.195  21.146   6.764  1.00  0.00    -0.172 N 
HETATM    8  C10 UNL     1      12.171  20.403   7.483  1.00  0.00     0.362 C 
HETATM    9  O2  UNL     1      10.998  20.532   7.134  1.00  0.00    -0.243 OA
HETATM   10  N7  UNL     1      12.444  19.521   8.563  1.00  0.00    -0.256 N 
ATOM     11  H7  UNL     1      13.390  19.348   8.904  1.00  0.00     0.191 HD
HETATM   12  N9  UNL     1      13.179  21.590   5.530  1.00  0.00    -0.210 N 
HETATM   13  C11 UNL     1      12.369  21.601   4.407  1.00  0.00     0.179 A 
ENDROOT
BRANCH   1  14
HETATM   14  N3  UNL     1      12.681  22.552   2.017  1.00  0.00    -0.340 N 
ATOM     15  H3  UNL     1      13.367  22.403   1.278  1.00  0.00     0.167 HD
BRANCH  14  16
HETATM   16  C6  UNL     1      11.373  23.033   1.670  1.00  0.00     0.033 A 
HETATM   17  C5  UNL     1      10.675  22.255   0.769  1.00  0.00     0.031 A 
HETATM   18  C4  UNL     1       9.401  22.618   0.401  1.00  0.00     0.031 A 
HETATM   19  C3  UNL     1       8.846  23.762   0.948  1.00  0.00     0.030 A 
HETATM   20  C14 UNL     1       9.546  24.525   1.840  1.00  0.00     0.031 A 
HETATM   21  C13 UNL     1      10.842  24.161   2.218  1.00  0.00     0.031 A 
BRANCH  19  22
HETATM   22  N2  UNL     1       7.538  24.147   0.592  1.00  0.00    -0.360 N 
ATOM     23  H2  UNL     1       6.914  24.522   1.305  1.00  0.00     0.162 HD
BRANCH  22  24
HETATM   24  C2  UNL     1       7.072  24.019  -0.752  1.00  0.00     0.257 C 
BRANCH  24  25
HETATM   25  C1  UNL     1       5.996  23.007  -0.804  1.00  0.00     0.106 C 
HETATM   26  N1  UNL     1       5.683  22.508  -1.946  1.00  0.00    -0.408 N 
ATOM     27  H12 UNL     1       6.174  22.814  -2.786  1.00  0.00     0.155 HD
ATOM     28  H11 UNL     1       4.940  21.810  -1.982  1.00  0.00     0.155 HD
ENDBRANCH  24  25
BRANCH  24  29
HETATM   29  O1  UNL     1       6.534  25.231  -1.206  1.00  0.00    -0.372 OA
ATOM     30  H1  UNL     1       7.251  25.753  -1.546  1.00  0.00     0.212 HD
ENDBRANCH  24  29
ENDBRANCH  22  24
ENDBRANCH  19  22
ENDBRANCH  14  16
ENDBRANCH   1  14
BRANCH  13  31
HETATM   31  C12 UNL     1      11.094  21.019   4.103  1.00  0.00     0.233 C 
HETATM   32  O3  UNL     1       9.997  21.638   4.431  1.00  0.00    -0.643 OA
HETATM   33  O4  UNL     1      10.805  19.863   3.483  1.00  0.00    -0.643 OA
ENDBRANCH  13  31
BRANCH   6  34
HETATM   34  N5  UNL     1      14.578  21.076   8.741  1.00  0.00    -0.378 N 
ATOM     35  H52 UNL     1      15.329  20.511   9.139  1.00  0.00     0.158 HD
ATOM     36  H51 UNL     1      14.021  21.359   9.547  1.00  0.00     0.158 HD
ENDBRANCH   6  34
BRANCH  10  37
HETATM   37  N8  UNL     1      11.292  18.897   9.136  1.00  0.00    -0.341 N 
ATOM     38  H82 UNL     1      10.523  19.444   9.523  1.00  0.00     0.177 HD
ATOM     39  H81 UNL     1      11.307  17.877   9.125  1.00  0.00     0.177 HD
ENDBRANCH  10  37
TORSDOF 9
ENDMDL
MODEL 3
REMARK VINA RESULT: -8.133551305      1.867      2.292
REMARK  9 active torsions:
REMARK  status: ('A' for Active; 'I' for Inactive)
REMARK    1  A    between atoms: C1_4  and  C2_5 
REMARK    2  A    between atoms: C2_5  and  O1_6 
REMARK    3  A    between atoms: C2_5  and  N2_8 
REMARK    4  A    between atoms: N2_8  and  C3_10 
REMARK    5  A    between atoms: C6_13  and  N3_14 
REMARK    6  A    between atoms: N3_14  and  C7_16 
REMARK    7  A    between atoms: C9_21  and  N5_22 
REMARK       I    between atoms: N6_25  and  C10_26 
REMARK       I    between atoms: C10_26  and  N7_28 
REMARK    8  A    between atoms: N7_28  and  N8_30 
REMARK    9  A    between atoms: C11_34  and  C12_35 
ROOT
HETATM    1  C7  UNL     1      12.248  22.626   3.362  1.00  0.00     0.144 A 
HETATM    2  N4  UNL     1      13.480  23.017   3.142  1.00  0.00    -0.319 N 
ATOM      3  H4  UNL     1      13.775  23.961   2.892  1.00  0.00     0.169 HD
HETATM    4  C8  UNL     1      14.283  21.953   3.303  1.00  0.00     0.176 A 
HETATM    5  S1  UNL     1      15.916  21.487   3.197  1.00  0.00    -0.014 SA
HETATM    6  C9  UNL     1      15.694  19.868   3.592  1.00  0.00     0.172 A 
HETATM    7  N6  UNL     1      14.369  19.752   3.789  1.00  0.00    -0.172 N 
HETATM    8  C10 UNL     1      13.950  18.400   4.127  1.00  0.00     0.362 C 
HETATM    9  O2  UNL     1      12.906  18.251   4.761  1.00  0.00    -0.243 OA
HETATM   10  N7  UNL     1      14.669  17.231   3.759  1.00  0.00    -0.256 N 
ATOM     11  H7  UNL     1      15.535  17.267   3.220  1.00  0.00     0.191 HD
HETATM   12  N9  UNL     1      13.637  20.829   3.635  1.00  0.00    -0.210 N 
HETATM   13  C11 UNL     1      12.315  21.239   3.673  1.00  0.00     0.179 A 
ENDROOT
BRANCH   1  14
HETATM   14  N3  UNL     1      11.163  23.520   3.243  1.00  0.00    -0.340 N 
ATOM     15  H3  UNL     1      11.029  24.235   3.957  1.00  0.00     0.167 HD
BRANCH  14  16
HETATM   16  C6  UNL     1      10.242  23.448   2.144  1.00  0.00     0.033 A 
HETATM   17  C5  UNL     1       8.942  23.805   2.436  1.00  0.00     0.031 A 
HETATM   18  C4  UNL     1       7.994  23.799   1.439  1.00  0.00     0.031 A 
HETATM   19  C3  UNL     1       8.372  23.433   0.159  1.00  0.00     0.030 A 
HETATM   20  C14 UNL     1       9.663  23.082  -0.119  1.00  0.00     0.031 A 
HETATM   21  C13 UNL     1      10.631  23.086   0.890  1.00  0.00     0.031 A 
BRANCH  19  22
HETATM   22  N2  UNL     1       7.419  23.429  -0.880  1.00  0.00    -0.360 N 
ATOM     23  H2  UNL     1       7.347  24.237  -1.497  1.00  0.00     0.162 HD
BRANCH  22  24
HETATM   24  C2  UNL     1       6.553  22.312  -1.081  1.00  0.00     0.257 C 
BRANCH  24  25
HETATM   25  C1  UNL     1       5.703  22.558  -2.265  1.00  0.00     0.106 C 
HETATM   26  N1  UNL     1       5.281  23.752  -2.476  1.00  0.00    -0.408 N 
ATOM     27  H12 UNL     1       5.535  24.502  -1.833  1.00  0.00     0.155 HD
ATOM     28  H11 UNL     1       4.694  23.921  -3.294  1.00  0.00     0.155 HD
ENDBRANCH  24  25
BRANCH  24  29
HETATM   29  O1  UNL     1       7.293  21.149  -1.326  1.00  0.00    -0.372 OA
ATOM     30  H1  UNL     1       6.700  20.502  -1.689  1.00  0.00     0.212 HD
ENDBRANCH  24  29
ENDBRANCH  22  24
ENDBRANCH  19  22
ENDBRANCH  14  16
ENDBRANCH   1  14
BRANCH  13  31
HETATM   31  C12 UNL     1      11.073  20.551   3.874  1.00  0.00     0.233 C 
HETATM   32  O3  UNL     1      10.228  20.973   4.769  1.00  0.00    -0.643 OA
HETATM   33  O4  UNL     1      10.581  19.468   3.249  1.00  0.00    -0.643 OA
ENDBRANCH  13  31
BRANCH   6  34
HETATM   34  N5  UNL     1      16.655  18.980   3.710  1.00  0.00    -0.378 N 
ATOM     35  H52 UNL     1      16.826  18.280   4.433  1.00  0.00     0.158 HD
ATOM     36  H51 UNL     1      17.443  18.879   3.070  1.00  0.00     0.158 HD
ENDBRANCH   6  34
BRANCH  10  37
HETATM   37  N8  UNL     1      14.087  16.002   4.199  1.00  0.00    -0.341 N 
ATOM     38  H82 UNL     1      13.171  15.974   4.648  1.00  0.00     0.177 HD
ATOM     39  H81 UNL     1      14.655  15.172   4.029  1.00  0.00     0.177 HD
ENDBRANCH  10  37
TORSDOF 9
ENDMDL
MODEL 4
REMARK VINA RESULT: -7.989537346      2.274      2.706
REMARK  9 active torsions:
REMARK  status: ('A' for Active; 'I' for Inactive)
REMARK    1  A    between atoms: C1_4  and  C2_5 
REMARK    2  A    between atoms: C2_5  and  O1_6 
REMARK    3  A    between atoms: C2_5  and  N2_8 
REMARK    4  A    between atoms: N2_8  and  C3_10 
REMARK    5  A    between atoms: C6_13  and  N3_14 
REMARK    6  A    between atoms: N3_14  and  C7_16 
REMARK    7  A    between atoms: C9_21  and  N5_22 
REMARK       I    between atoms: N6_25  and  C10_26 
REMARK       I    between atoms: C10_26  and  N7_28 
REMARK    8  A    between atoms: N7_28  and  N8_30 
REMARK    9  A    between atoms: C11_34  and  C12_35 
ROOT
HETATM    1  C7  UNL     1      12.147  22.288   3.638  1.00  0.00     0.144 A 
HETATM    2  N4  UNL     1      11.055  22.293   4.364  1.00  0.00    -0.319 N 
ATOM      3  H4  UNL     1      10.177  22.755   4.126  1.00  0.00     0.169 HD
HETATM    4  C8  UNL     1      11.298  21.580   5.476  1.00  0.00     0.176 A 
HETATM    5  S1  UNL     1      10.566  21.088   6.931  1.00  0.00    -0.014 SA
HETATM    6  C9  UNL     1      11.886  20.250   7.551  1.00  0.00     0.172 A 
HETATM    7  N6  UNL     1      12.837  20.383   6.611  1.00  0.00    -0.172 N 
HETATM    8  C10 UNL     1      14.093  19.736   6.961  1.00  0.00     0.362 C 
HETATM    9  O2  UNL     1      14.847  19.388   6.053  1.00  0.00    -0.243 OA
HETATM   10  N7  UNL     1      14.512  19.490   8.296  1.00  0.00    -0.256 N 
ATOM     11  H7  UNL     1      13.952  19.760   9.105  1.00  0.00     0.191 HD
HETATM   12  N9  UNL     1      12.536  21.075   5.538  1.00  0.00    -0.210 N 
HETATM   13  C11 UNL     1      13.107  21.526   4.360  1.00  0.00     0.179 A 
ENDROOT
BRANCH   1  14
HETATM   14  N3  UNL     1      12.213  22.980   2.410  1.00  0.00    -0.340 N 
ATOM     15  H3  UNL     1      13.126  23.200   2.014  1.00  0.00     0.167 HD
BRANCH  14  16
HETATM   16  C6  UNL     1      11.029  23.382   1.705  1.00  0.00     0.033 A 
HETATM   17  C5  UNL     1      10.572  22.488   0.758  1.00  0.00     0.031 A 
HETATM   18  C4  UNL     1       9.425  22.771   0.053  1.00  0.00     0.031 A 
HETATM   19  C3  UNL     1       8.753  23.953   0.315  1.00  0.00     0.030 A 
HETATM   20  C14 UNL     1       9.215  24.830   1.255  1.00  0.00     0.031 A 
HETATM   21  C13 UNL     1      10.380  24.548   1.975  1.00  0.00     0.031 A 
BRANCH  19  22
HETATM   22  N2  UNL     1       7.571  24.258  -0.389  1.00  0.00    -0.360 N 
ATOM     23  H2  UNL     1       7.567  25.036  -1.049  1.00  0.00     0.162 HD
BRANCH  22  24
HETATM   24  C2  UNL     1       6.379  23.498  -0.194  1.00  0.00     0.257 C 
BRANCH  24  25
HETATM   25  C1  UNL     1       6.173  22.602  -1.352  1.00  0.00     0.106 C 
HETATM   26  N1  UNL     1       5.665  23.097  -2.423  1.00  0.00    -0.408 N 
ATOM     27  H12 UNL     1       5.416  24.086  -2.457  1.00  0.00     0.155 HD
ATOM     28  H11 UNL     1       5.523  22.479  -3.222  1.00  0.00     0.155 HD
ENDBRANCH  24  25
BRANCH  24  29
HETATM   29  O1  UNL     1       6.487  22.693   0.948  1.00  0.00    -0.372 OA
ATOM     30  H1  UNL     1       7.361  22.322   0.956  1.00  0.00     0.212 HD
ENDBRANCH  24  29
ENDBRANCH  22  24
ENDBRANCH  19  22
ENDBRANCH  14  16
ENDBRANCH   1  14
BRANCH  13  31
HETATM   31  C12 UNL     1      14.427  21.443   3.807  1.00  0.00     0.233 C 
HETATM   32  O3  UNL     1      14.654  20.704   2.760  1.00  0.00    -0.643 OA
HETATM   33  O4  UNL     1      15.562  22.044   4.202  1.00  0.00    -0.643 OA
ENDBRANCH  13  31
BRANCH   6  34
HETATM   34  N5  UNL     1      11.897  19.593   8.689  1.00  0.00    -0.378 N 
ATOM     35  H52 UNL     1      11.622  18.634   8.904  1.00  0.00     0.158 HD
ATOM     36  H51 UNL     1      12.166  19.986   9.591  1.00  0.00     0.158 HD
ENDBRANCH   6  34
BRANCH  10  37
HETATM   37  N8  UNL     1      15.777  18.835   8.418  1.00  0.00    -0.341 N 
ATOM     38  H82 UNL     1      16.043  18.339   9.270  1.00  0.00     0.177 HD
ATOM     39  H81 UNL     1      16.378  18.904   7.597  1.00  0.00     0.177 HD
ENDBRANCH  10  37
TORSDOF 9
ENDMDL
MODEL 5
REMARK VINA RESULT: -7.815509448      1.949      2.126
REMARK  9 active torsions:
REMARK  status: ('A' for Active; 'I' for Inactive)
REMARK    1  A    between atoms: C1_4  and  C2_5 
REMARK    2  A    between atoms: C2_5  and  O1_6 
REMARK    3  A    between atoms: C2_5  and  N2_8 
REMARK    4  A    between atoms: N2_8  and  C3_10 
REMARK    5  A    between atoms: C6_13  and  N3_14 
REMARK    6  A    between atoms: N3_14  and  C7_16 
REMARK    7  A    between atoms: C9_21  and  N5_22 
REMARK       I    between atoms: N6_25  and  C10_26 
REMARK       I    between atoms: C10_26  and  N7_28 
REMARK    8  A    between atoms: N7_28  and  N8_30 
REMARK    9  A    between atoms: C11_34  and  C12_35 
ROOT
HETATM    1  C7  UNL     1      11.778  22.213   3.439  1.00  0.00     0.144 A 
HETATM    2  N4  UNL     1      10.858  22.302   4.369  1.00  0.00    -0.319 N 
ATOM      3  H4  UNL     1       9.990  22.834   4.307  1.00  0.00     0.169 HD
HETATM    4  C8  UNL     1      11.263  21.568   5.419  1.00  0.00     0.176 A 
HETATM    5  S1  UNL     1      10.803  21.131   6.998  1.00  0.00    -0.014 SA
HETATM    6  C9  UNL     1      12.149  20.188   7.351  1.00  0.00     0.172 A 
HETATM    7  N6  UNL     1      12.899  20.248   6.237  1.00  0.00    -0.172 N 
HETATM    8  C10 UNL     1      14.146  19.503   6.336  1.00  0.00     0.362 C 
HETATM    9  O2  UNL     1      14.672  19.099   5.299  1.00  0.00    -0.243 OA
HETATM   10  N7  UNL     1      14.804  19.219   7.562  1.00  0.00    -0.256 N 
ATOM     11  H7  UNL     1      14.441  19.530   8.464  1.00  0.00     0.191 HD
HETATM   12  N9  UNL     1      12.445  20.966   5.238  1.00  0.00    -0.210 N 
HETATM   13  C11 UNL     1      12.801  21.375   3.964  1.00  0.00     0.179 A 
ENDROOT
BRANCH   1  14
HETATM   14  N3  UNL     1      11.651  22.902   2.215  1.00  0.00    -0.340 N 
ATOM     15  H3  UNL     1      12.493  23.195   1.721  1.00  0.00     0.167 HD
BRANCH  14  16
HETATM   16  C6  UNL     1      10.367  23.201   1.647  1.00  0.00     0.033 A 
HETATM   17  C5  UNL     1       9.948  22.347   0.646  1.00  0.00     0.031 A 
HETATM   18  C4  UNL     1       8.717  22.534   0.063  1.00  0.00     0.031 A 
HETATM   19  C3  UNL     1       7.922  23.581   0.499  1.00  0.00     0.030 A 
HETATM   20  C14 UNL     1       8.346  24.419   1.491  1.00  0.00     0.031 A 
HETATM   21  C13 UNL     1       9.597  24.234   2.087  1.00  0.00     0.031 A 
BRANCH  19  22
HETATM   22  N2  UNL     1       6.653  23.785  -0.078  1.00  0.00    -0.360 N 
ATOM     23  H2  UNL     1       5.828  23.810   0.520  1.00  0.00     0.162 HD
BRANCH  22  24
HETATM   24  C2  UNL     1       6.502  23.955  -1.488  1.00  0.00     0.257 C 
BRANCH  24  25
HETATM   25  C1  UNL     1       5.488  23.005  -1.992  1.00  0.00     0.106 C 
HETATM   26  N1  UNL     1       5.876  21.836  -2.357  1.00  0.00    -0.408 N 
ATOM     27  H12 UNL     1       6.863  21.586  -2.294  1.00  0.00     0.155 HD
ATOM     28  H11 UNL     1       5.177  21.180  -2.706  1.00  0.00     0.155 HD
ENDBRANCH  24  25
BRANCH  24  29
HETATM   29  O1  UNL     1       6.053  25.249  -1.784  1.00  0.00    -0.372 OA
ATOM     30  H1  UNL     1       5.384  25.473  -1.148  1.00  0.00     0.212 HD
ENDBRANCH  24  29
ENDBRANCH  22  24
ENDBRANCH  19  22
ENDBRANCH  14  16
ENDBRANCH   1  14
BRANCH  13  31
HETATM   31  C12 UNL     1      13.973  21.188   3.158  1.00  0.00     0.233 C 
HETATM   32  O3  UNL     1      14.758  22.194   2.902  1.00  0.00    -0.643 OA
HETATM   33  O4  UNL     1      14.448  20.073   2.581  1.00  0.00    -0.643 OA
ENDBRANCH  13  31
BRANCH   6  34
HETATM   34  N5  UNL     1      12.338  19.528   8.471  1.00  0.00    -0.378 N 
ATOM     35  H52 UNL     1      11.676  19.256   9.199  1.00  0.00     0.158 HD
ATOM     36  H51 UNL     1      13.240  19.203   8.817  1.00  0.00     0.158 HD
ENDBRANCH   6  34
BRANCH  10  37
HETATM   37  N8  UNL     1      16.012  18.465   7.437  1.00  0.00    -0.341 N 
ATOM     38  H82 UNL     1      16.018  17.447   7.508  1.00  0.00     0.177 HD
ATOM     39  H81 UNL     1      16.851  19.022   7.274  1.00  0.00     0.177 HD
ENDBRANCH  10  37
TORSDOF 9
ENDMDL
