MODEL 1
REMARK VINA RESULT: -8.712101136      0.000      0.000
REMARK  8 active torsions:
REMARK  status: ('A' for Active; 'I' for Inactive)
REMARK       I    between atoms: C2_2  and  N1_4 
REMARK    1  A    between atoms: N1_4  and  C3_6 
REMARK    2  A    between atoms: C3_6  and  O2_7 
REMARK    3  A    between atoms: C3_6  and  C4_9 
REMARK    4  A    between atoms: C4_9  and  C5_10 
REMARK    5  A    between atoms: C4_9  and  N9_27 
REMARK    6  A    between atoms: C5_10  and  N2_11 
REMARK    7  A    between atoms: C7_13  and  C8_14 
REMARK    8  A    between atoms: C12_40  and  N14_41 
ROOT
HETATM    1  C4  UNL     1      11.870  20.826   2.694  1.00  0.00     0.151 C 
ENDROOT
BRANCH   1   2
HETATM    2  C3  UNL     1      12.518  19.665   1.962  1.00  0.00     0.244 C 
BRANCH   2   3
HETATM    3  N1  UNL     1      13.238  18.766   2.821  1.00  0.00    -0.333 N 
HETATM    4  C2  UNL     1      14.498  18.224   2.533  1.00  0.00     0.215 C 
HETATM    5  C1  UNL     1      15.149  17.312   3.486  1.00  0.00     0.117 C 
HETATM    6  O1  UNL     1      15.069  18.517   1.465  1.00  0.00    -0.274 OA
ATOM      7  H1  UNL     1      12.800  18.504   3.704  1.00  0.00     0.165 HD
ENDBRANCH   2   3
BRANCH   2   8
HETATM    8  O2  UNL     1      11.475  18.876   1.407  1.00  0.00    -0.375 OA
ATOM      9  H2  UNL     1      11.883  18.408   0.688  1.00  0.00     0.212 HD
ENDBRANCH   2   8
ENDBRANCH   1   2
BRANCH   1  10
HETATM   10  C5  UNL     1      11.935  22.124   1.968  1.00  0.00     0.179 C 
BRANCH  10  11
HETATM   11  N2  UNL     1      10.614  22.649   1.672  1.00  0.00    -0.285 N 
HETATM   12  C6  UNL     1       9.874  22.443   0.577  1.00  0.00     0.146 A 
HETATM   13  C7  UNL     1       8.687  23.124   0.721  1.00  0.00     0.113 A 
HETATM   14  N7  UNL     1       8.778  23.715   1.920  1.00  0.00    -0.281 N 
HETATM   15  N8  UNL     1       9.930  23.424   2.472  1.00  0.00    -0.240 N 
ATOM     16  H7  UNL     1       8.059  24.304   2.339  1.00  0.00     0.188 HD
ATOM     17  H8  UNL     1      10.244  23.751   3.386  1.00  0.00     0.208 HD
BRANCH  13  18
HETATM   18  C8  UNL     1       7.594  23.166  -0.245  1.00  0.00     0.167 A 
HETATM   19  N3  UNL     1       6.869  24.246  -0.588  1.00  0.00    -0.267 N 
HETATM   20  N4  UNL     1       5.959  23.881  -1.505  1.00  0.00    -0.227 N 
ATOM     21  H3  UNL     1       6.991  25.187  -0.213  1.00  0.00     0.190 HD
HETATM   22  N5  UNL     1       6.105  22.595  -1.738  1.00  0.00    -0.227 N 
ATOM     23  H4  UNL     1       5.274  24.495  -1.945  1.00  0.00     0.210 HD
HETATM   24  N6  UNL     1       7.097  22.154  -0.976  1.00  0.00    -0.267 N 
ATOM     25  H5  UNL     1       5.554  22.036  -2.389  1.00  0.00     0.210 HD
ATOM     26  H6  UNL     1       7.432  21.191  -0.949  1.00  0.00     0.190 HD
ENDBRANCH  13  18
ENDBRANCH  10  11
ENDBRANCH   1  10
BRANCH   1  27
HETATM   27  N9  UNL     1      12.221  20.817   4.035  1.00  0.00    -0.364 N 
HETATM   28  C9  UNL     1      11.749  21.113   5.138  1.00  0.00     0.134 A 
HETATM   29  N10 UNL     1      10.582  21.616   5.536  1.00  0.00    -0.283 N 
HETATM   30  C13 UNL     1      12.473  20.939   6.336  1.00  0.00     0.098 A 
HETATM   31  N11 UNL     1      10.543  21.759   6.863  1.00  0.00    -0.283 N 
ATOM     32  H10 UNL     1       9.817  21.861   4.907  1.00  0.00     0.188 HD
HETATM   33  C10 UNL     1      11.704  21.346   7.388  1.00  0.00     0.138 A 
ATOM     34  H11 UNL     1       9.753  22.125   7.394  1.00  0.00     0.188 HD
HETATM   35  N12 UNL     1      12.210  21.265   8.645  1.00  0.00    -0.337 N 
HETATM   36  C11 UNL     1      13.460  20.787   8.872  1.00  0.00     0.183 A 
ATOM     37  H12 UNL     1      11.640  21.568   9.434  1.00  0.00     0.168 HD
HETATM   38  N13 UNL     1      14.230  20.384   7.860  1.00  0.00    -0.338 N 
HETATM   39  C12 UNL     1      13.742  20.458   6.605  1.00  0.00     0.117 A 
ATOM     40  H13 UNL     1      15.170  20.027   8.032  1.00  0.00     0.168 HD
ATOM     41  H9  UNL     1      13.167  20.450   4.147  1.00  0.00     0.161 HD
BRANCH  39  42
HETATM   42  N14 UNL     1      14.458  20.078   5.626  1.00  0.00    -0.385 N 
ATOM     43 2H14 UNL     1      14.230  19.190   5.180  1.00  0.00     0.157 HD
ATOM     44 1H14 UNL     1      15.235  20.660   5.311  1.00  0.00     0.157 HD
ENDBRANCH  39  42
ENDBRANCH   1  27
TORSDOF 8
ENDMDL
MODEL 2
REMARK VINA RESULT: -8.584316875      0.973      1.025
REMARK  8 active torsions:
REMARK  status: ('A' for Active; 'I' for Inactive)
REMARK       I    between atoms: C2_2  and  N1_4 
REMARK    1  A    between atoms: N1_4  and  C3_6 
REMARK    2  A    between atoms: C3_6  and  O2_7 
REMARK    3  A    between atoms: C3_6  and  C4_9 
REMARK    4  A    between atoms: C4_9  and  C5_10 
REMARK    5  A    between atoms: C4_9  and  N9_27 
REMARK    6  A    between atoms: C5_10  and  N2_11 
REMARK    7  A    between atoms: C7_13  and  C8_14 
REMARK    8  A    between atoms: C12_40  and  N14_41 
ROOT
HETATM    1  C4  UNL     1      12.035  20.514   3.310  1.00  0.00     0.151 C 
ENDROOT
BRANCH   1   2
HETATM    2  C3  UNL     1      12.332  19.175   2.660  1.00  0.00     0.244 C 
BRANCH   2   3
HETATM    3  N1  UNL     1      13.408  18.454   3.281  1.00  0.00    -0.333 N 
HETATM    4  C2  UNL     1      14.644  18.185   2.676  1.00  0.00     0.215 C 
HETATM    5  C1  UNL     1      15.679  17.437   3.405  1.00  0.00     0.117 C 
HETATM    6  O1  UNL     1      14.865  18.583   1.517  1.00  0.00    -0.274 OA
ATOM      7  H1  UNL     1      13.262  18.113   4.231  1.00  0.00     0.165 HD
ENDBRANCH   2   3
BRANCH   2   8
HETATM    8  O2  UNL     1      11.191  18.349   2.843  1.00  0.00    -0.375 OA
ATOM      9  H2  UNL     1      11.015  18.385   3.776  1.00  0.00     0.212 HD
ENDBRANCH   2   8
ENDBRANCH   1   2
BRANCH   1  10
HETATM   10  C5  UNL     1      12.386  21.695   2.476  1.00  0.00     0.179 C 
BRANCH  10  11
HETATM   11  N2  UNL     1      11.237  22.549   2.233  1.00  0.00    -0.285 N 
HETATM   12  C6  UNL     1      10.269  22.386   1.324  1.00  0.00     0.146 A 
HETATM   13  C7  UNL     1       9.377  23.426   1.448  1.00  0.00     0.113 A 
HETATM   14  N7  UNL     1       9.866  24.176   2.445  1.00  0.00    -0.281 N 
HETATM   15  N8  UNL     1      10.973  23.642   2.900  1.00  0.00    -0.240 N 
ATOM     16  H7  UNL     1       9.441  25.033   2.797  1.00  0.00     0.188 HD
ATOM     17  H8  UNL     1      11.540  24.020   3.658  1.00  0.00     0.208 HD
BRANCH  13  18
HETATM   18  C8  UNL     1       8.173  23.631   0.649  1.00  0.00     0.167 A 
HETATM   19  N3  UNL     1       7.999  24.551  -0.316  1.00  0.00    -0.267 N 
HETATM   20  N4  UNL     1       6.760  24.423  -0.816  1.00  0.00    -0.227 N 
ATOM     21  H3  UNL     1       8.694  25.234  -0.619  1.00  0.00     0.190 HD
HETATM   22  N5  UNL     1       6.161  23.441  -0.180  1.00  0.00    -0.227 N 
ATOM     23  H4  UNL     1       6.353  24.990  -1.560  1.00  0.00     0.210 HD
HETATM   24  N6  UNL     1       7.014  22.954   0.711  1.00  0.00    -0.267 N 
ATOM     25  H5  UNL     1       5.209  23.111  -0.343  1.00  0.00     0.210 HD
ATOM     26  H6  UNL     1       6.819  22.183   1.349  1.00  0.00     0.190 HD
ENDBRANCH  13  18
ENDBRANCH  10  11
ENDBRANCH   1  10
BRANCH   1  27
HETATM   27  N9  UNL     1      12.441  20.515   4.636  1.00  0.00    -0.364 N 
HETATM   28  C9  UNL     1      12.199  21.098   5.699  1.00  0.00     0.134 A 
HETATM   29  N10 UNL     1      11.357  22.069   6.046  1.00  0.00    -0.283 N 
HETATM   30  C13 UNL     1      12.872  20.783   6.897  1.00  0.00     0.098 A 
HETATM   31  N11 UNL     1      11.466  22.364   7.344  1.00  0.00    -0.283 N 
ATOM     32  H10 UNL     1      10.713  22.529   5.403  1.00  0.00     0.188 HD
HETATM   33  C10 UNL     1      12.399  21.581   7.900  1.00  0.00     0.138 A 
ATOM     34  H11 UNL     1      10.923  23.074   7.835  1.00  0.00     0.188 HD
HETATM   35  N12 UNL     1      12.913  21.444   9.149  1.00  0.00    -0.337 N 
HETATM   36  C11 UNL     1      13.882  20.533   9.417  1.00  0.00     0.183 A 
ATOM     37  H12 UNL     1      12.564  22.038   9.901  1.00  0.00     0.168 HD
HETATM   38  N13 UNL     1      14.360  19.743   8.454  1.00  0.00    -0.338 N 
HETATM   39  C12 UNL     1      13.860  19.866   7.207  1.00  0.00     0.117 A 
ATOM     40  H13 UNL     1      15.090  19.059   8.656  1.00  0.00     0.168 HD
ATOM     41  H9  UNL     1      13.168  19.813   4.780  1.00  0.00     0.161 HD
BRANCH  39  42
HETATM   42  N14 UNL     1      14.300  19.122   6.275  1.00  0.00    -0.385 N 
ATOM     43 2H14 UNL     1      13.701  18.368   5.938  1.00  0.00     0.157 HD
ATOM     44 1H14 UNL     1      15.228  19.291   5.888  1.00  0.00     0.157 HD
ENDBRANCH  39  42
ENDBRANCH   1  27
TORSDOF 8
ENDMDL
MODEL 3
REMARK VINA RESULT: -8.345624891      2.425      2.851
REMARK  8 active torsions:
REMARK  status: ('A' for Active; 'I' for Inactive)
REMARK       I    between atoms: C2_2  and  N1_4 
REMARK    1  A    between atoms: N1_4  and  C3_6 
REMARK    2  A    between atoms: C3_6  and  O2_7 
REMARK    3  A    between atoms: C3_6  and  C4_9 
REMARK    4  A    between atoms: C4_9  and  C5_10 
REMARK    5  A    between atoms: C4_9  and  N9_27 
REMARK    6  A    between atoms: C5_10  and  N2_11 
REMARK    7  A    between atoms: C7_13  and  C8_14 
REMARK    8  A    between atoms: C12_40  and  N14_41 
ROOT
HETATM    1  C4  UNL     1      11.748  22.202   3.334  1.00  0.00     0.151 C 
ENDROOT
BRANCH   1   2
HETATM    2  C3  UNL     1      11.161  20.859   3.727  1.00  0.00     0.244 C 
BRANCH   2   3
HETATM    3  N1  UNL     1      12.136  19.915   4.199  1.00  0.00    -0.333 N 
HETATM    4  C2  UNL     1      12.694  18.888   3.425  1.00  0.00     0.215 C 
HETATM    5  C1  UNL     1      13.688  17.975   4.009  1.00  0.00     0.117 C 
HETATM    6  O1  UNL     1      12.347  18.750   2.236  1.00  0.00    -0.274 OA
ATOM      7  H1  UNL     1      12.443  19.998   5.168  1.00  0.00     0.165 HD
ENDBRANCH   2   3
BRANCH   2   8
HETATM    8  O2  UNL     1      10.303  21.078   4.837  1.00  0.00    -0.375 OA
ATOM      9  H2  UNL     1       9.707  21.760   4.551  1.00  0.00     0.212 HD
ENDBRANCH   2   8
ENDBRANCH   1   2
BRANCH   1  10
HETATM   10  C5  UNL     1      11.603  22.539   1.892  1.00  0.00     0.179 C 
BRANCH  10  11
HETATM   11  N2  UNL     1      10.243  22.919   1.556  1.00  0.00    -0.285 N 
HETATM   12  C6  UNL     1       9.579  22.679   0.419  1.00  0.00     0.146 A 
HETATM   13  C7  UNL     1       8.314  23.208   0.535  1.00  0.00     0.113 A 
HETATM   14  N7  UNL     1       8.283  23.749   1.760  1.00  0.00    -0.281 N 
HETATM   15  N8  UNL     1       9.437  23.569   2.354  1.00  0.00    -0.240 N 
ATOM     16  H7  UNL     1       7.481  24.228   2.170  1.00  0.00     0.188 HD
ATOM     17  H8  UNL     1       9.671  23.888   3.294  1.00  0.00     0.208 HD
BRANCH  13  18
HETATM   18  C8  UNL     1       7.265  23.166  -0.479  1.00  0.00     0.167 A 
HETATM   19  N3  UNL     1       6.816  22.075  -1.123  1.00  0.00    -0.267 N 
HETATM   20  N4  UNL     1       5.849  22.446  -1.978  1.00  0.00    -0.227 N 
ATOM     21  H3  UNL     1       7.155  21.122  -0.985  1.00  0.00     0.190 HD
HETATM   22  N5  UNL     1       5.689  23.747  -1.877  1.00  0.00    -0.227 N 
ATOM     23  H4  UNL     1       5.329  21.826  -2.598  1.00  0.00     0.210 HD
HETATM   24  N6  UNL     1       6.546  24.192  -0.967  1.00  0.00    -0.267 N 
ATOM     25  H5  UNL     1       5.025  24.313  -2.403  1.00  0.00     0.210 HD
ATOM     26  H6  UNL     1       6.645  25.165  -0.681  1.00  0.00     0.190 HD
ENDBRANCH  13  18
ENDBRANCH  10  11
ENDBRANCH   1  10
BRANCH   1  27
HETATM   27  N9  UNL     1      12.993  22.382   3.918  1.00  0.00    -0.364 N 
HETATM   28  C9  UNL     1      13.563  23.132   4.719  1.00  0.00     0.134 A 
HETATM   29  N10 UNL     1      13.173  24.188   5.429  1.00  0.00    -0.283 N 
HETATM   30  C13 UNL     1      14.919  22.966   5.068  1.00  0.00     0.098 A 
HETATM   31  N11 UNL     1      14.173  24.669   6.171  1.00  0.00    -0.283 N 
ATOM     32  H10 UNL     1      12.231  24.579   5.409  1.00  0.00     0.188 HD
HETATM   33  C10 UNL     1      15.271  23.930   5.968  1.00  0.00     0.138 A 
ATOM     34  H11 UNL     1      14.110  25.474   6.795  1.00  0.00     0.188 HD
HETATM   35  N12 UNL     1      16.543  23.956   6.442  1.00  0.00    -0.337 N 
HETATM   36  C11 UNL     1      17.465  23.046   6.038  1.00  0.00     0.183 A 
ATOM     37  H12 UNL     1      16.812  24.675   7.114  1.00  0.00     0.168 HD
HETATM   38  N13 UNL     1      17.144  22.095   5.160  1.00  0.00    -0.338 N 
HETATM   39  C12 UNL     1      15.884  22.054   4.680  1.00  0.00     0.117 A 
ATOM     40  H13 UNL     1      17.838  21.411   4.856  1.00  0.00     0.168 HD
ATOM     41  H9  UNL     1      13.644  21.672   3.580  1.00  0.00     0.161 HD
BRANCH  39  42
HETATM   42  N14 UNL     1      15.557  21.155   3.843  1.00  0.00    -0.385 N 
ATOM     43 2H14 UNL     1      15.201  21.452   2.934  1.00  0.00     0.157 HD
ATOM     44 1H14 UNL     1      15.655  20.172   4.092  1.00  0.00     0.157 HD
ENDBRANCH  39  42
ENDBRANCH   1  27
TORSDOF 8
ENDMDL
MODEL 4
REMARK VINA RESULT: -8.323979476      1.479      2.075
REMARK  8 active torsions:
REMARK  status: ('A' for Active; 'I' for Inactive)
REMARK       I    between atoms: C2_2  and  N1_4 
REMARK    1  A    between atoms: N1_4  and  C3_6 
REMARK    2  A    between atoms: C3_6  and  O2_7 
REMARK    3  A    between atoms: C3_6  and  C4_9 
REMARK    4  A    between atoms: C4_9  and  C5_10 
REMARK    5  A    between atoms: C4_9  and  N9_27 
REMARK    6  A    between atoms: C5_10  and  N2_11 
REMARK    7  A    between atoms: C7_13  and  C8_14 
REMARK    8  A    between atoms: C12_40  and  N14_41 
ROOT
HETATM    1  C4  UNL     1      11.408  21.056   2.768  1.00  0.00     0.151 C 
ENDROOT
BRANCH   1   2
HETATM    2  C3  UNL     1      11.461  19.678   2.134  1.00  0.00     0.244 C 
BRANCH   2   3
HETATM    3  N1  UNL     1      12.764  19.075   2.160  1.00  0.00    -0.333 N 
HETATM    4  C2  UNL     1      13.251  18.271   3.201  1.00  0.00     0.215 C 
HETATM    5  C1  UNL     1      14.605  17.700   3.126  1.00  0.00     0.117 C 
HETATM    6  O1  UNL     1      12.534  18.039   4.192  1.00  0.00    -0.274 OA
ATOM      7  H1  UNL     1      13.380  19.244   1.365  1.00  0.00     0.165 HD
ENDBRANCH   2   3
BRANCH   2   8
HETATM    8  O2  UNL     1      10.649  18.816   2.920  1.00  0.00    -0.375 OA
ATOM      9  H2  UNL     1       9.930  18.574   2.347  1.00  0.00     0.212 HD
ENDBRANCH   2   8
ENDBRANCH   1   2
BRANCH   1  10
HETATM   10  C5  UNL     1      11.470  22.182   1.797  1.00  0.00     0.179 C 
BRANCH  10  11
HETATM   11  N2  UNL     1      10.148  22.670   1.446  1.00  0.00    -0.285 N 
HETATM   12  C6  UNL     1       9.474  22.473   0.307  1.00  0.00     0.146 A 
HETATM   13  C7  UNL     1       8.257  23.108   0.407  1.00  0.00     0.113 A 
HETATM   14  N7  UNL     1       8.264  23.665   1.625  1.00  0.00    -0.281 N 
HETATM   15  N8  UNL     1       9.396  23.397   2.230  1.00  0.00    -0.240 N 
ATOM     16  H7  UNL     1       7.503  24.216   2.023  1.00  0.00     0.188 HD
ATOM     17  H8  UNL     1       9.649  23.706   3.168  1.00  0.00     0.208 HD
BRANCH  13  18
HETATM   18  C8  UNL     1       7.216  23.142  -0.614  1.00  0.00     0.167 A 
HETATM   19  N3  UNL     1       6.760  22.099  -1.330  1.00  0.00    -0.267 N 
HETATM   20  N4  UNL     1       5.804  22.533  -2.165  1.00  0.00    -0.227 N 
ATOM     21  H3  UNL     1       7.088  21.136  -1.250  1.00  0.00     0.190 HD
HETATM   22  N5  UNL     1       5.656  23.827  -1.983  1.00  0.00    -0.227 N 
ATOM     23  H4  UNL     1       5.282  21.960  -2.827  1.00  0.00     0.210 HD
HETATM   24  N6  UNL     1       6.511  24.204  -1.041  1.00  0.00    -0.267 N 
ATOM     25  H5  UNL     1       5.002  24.433  -2.477  1.00  0.00     0.210 HD
ATOM     26  H6  UNL     1       6.617  25.157  -0.693  1.00  0.00     0.190 HD
ENDBRANCH  13  18
ENDBRANCH  10  11
ENDBRANCH   1  10
BRANCH   1  27
HETATM   27  N9  UNL     1      12.235  21.115   3.880  1.00  0.00    -0.364 N 
HETATM   28  C9  UNL     1      13.239  21.714   4.281  1.00  0.00     0.134 A 
HETATM   29  N10 UNL     1      14.024  22.652   3.755  1.00  0.00    -0.283 N 
HETATM   30  C13 UNL     1      13.800  21.470   5.551  1.00  0.00     0.098 A 
HETATM   31  N11 UNL     1      15.004  22.991   4.596  1.00  0.00    -0.283 N 
ATOM     32  H10 UNL     1      13.893  23.058   2.829  1.00  0.00     0.188 HD
HETATM   33  C10 UNL     1      14.891  22.273   5.721  1.00  0.00     0.138 A 
ATOM     34  H11 UNL     1      15.726  23.687   4.410  1.00  0.00     0.188 HD
HETATM   35  N12 UNL     1      15.588  22.201   6.884  1.00  0.00    -0.337 N 
HETATM   36  C11 UNL     1      15.221  21.350   7.875  1.00  0.00     0.183 A 
ATOM     37  H12 UNL     1      16.405  22.798   7.015  1.00  0.00     0.168 HD
HETATM   38  N13 UNL     1      14.159  20.555   7.732  1.00  0.00    -0.338 N 
HETATM   39  C12 UNL     1      13.455  20.615   6.583  1.00  0.00     0.117 A 
ATOM     40  H13 UNL     1      13.885  19.914   8.477  1.00  0.00     0.168 HD
ATOM     41  H9  UNL     1      11.913  20.457   4.590  1.00  0.00     0.161 HD
BRANCH  39  42
HETATM   42  N14 UNL     1      12.439  19.867   6.426  1.00  0.00    -0.385 N 
ATOM     43 2H14 UNL     1      12.595  18.881   6.221  1.00  0.00     0.157 HD
ATOM     44 1H14 UNL     1      11.502  20.263   6.507  1.00  0.00     0.157 HD
ENDBRANCH  39  42
ENDBRANCH   1  27
TORSDOF 8
ENDMDL
MODEL 5
REMARK VINA RESULT: -8.282633614      1.403      1.797
REMARK  8 active torsions:
REMARK  status: ('A' for Active; 'I' for Inactive)
REMARK       I    between atoms: C2_2  and  N1_4 
REMARK    1  A    between atoms: N1_4  and  C3_6 
REMARK    2  A    between atoms: C3_6  and  O2_7 
REMARK    3  A    between atoms: C3_6  and  C4_9 
REMARK    4  A    between atoms: C4_9  and  C5_10 
REMARK    5  A    between atoms: C4_9  and  N9_27 
REMARK    6  A    between atoms: C5_10  and  N2_11 
REMARK    7  A    between atoms: C7_13  and  C8_14 
REMARK    8  A    between atoms: C12_40  and  N14_41 
ROOT
HETATM    1  C4  UNL     1      12.574  20.139   3.858  1.00  0.00     0.151 C 
ENDROOT
BRANCH   1   2
HETATM    2  C3  UNL     1      12.848  18.748   3.317  1.00  0.00     0.244 C 
BRANCH   2   3
HETATM    3  N1  UNL     1      14.182  18.278   3.570  1.00  0.00    -0.333 N 
HETATM    4  C2  UNL     1      15.191  18.179   2.602  1.00  0.00     0.215 C 
HETATM    5  C1  UNL     1      16.527  17.685   2.971  1.00  0.00     0.117 C 
HETATM    6  O1  UNL     1      14.956  18.513   1.425  1.00  0.00    -0.274 OA
ATOM      7  H1  UNL     1      14.410  17.995   4.523  1.00  0.00     0.165 HD
ENDBRANCH   2   3
BRANCH   2   8
HETATM    8  O2  UNL     1      12.007  17.843   4.020  1.00  0.00    -0.375 OA
ATOM      9  H2  UNL     1      12.584  17.409   4.638  1.00  0.00     0.212 HD
ENDBRANCH   2   8
ENDBRANCH   1   2
BRANCH   1  10
HETATM   10  C5  UNL     1      13.043  21.244   2.980  1.00  0.00     0.179 C 
BRANCH  10  11
HETATM   11  N2  UNL     1      11.977  22.177   2.663  1.00  0.00    -0.285 N 
HETATM   12  C6  UNL     1      11.004  22.036   1.755  1.00  0.00     0.146 A 
HETATM   13  C7  UNL     1      10.207  23.157   1.795  1.00  0.00     0.113 A 
HETATM   14  N7  UNL     1      10.753  23.928   2.744  1.00  0.00    -0.281 N 
HETATM   15  N8  UNL     1      11.805  23.332   3.250  1.00  0.00    -0.240 N 
ATOM     16  H7  UNL     1      10.403  24.842   3.031  1.00  0.00     0.188 HD
ATOM     17  H8  UNL     1      12.398  23.711   3.988  1.00  0.00     0.208 HD
BRANCH  13  18
HETATM   18  C8  UNL     1       9.031  23.410   0.968  1.00  0.00     0.167 A 
HETATM   19  N3  UNL     1       8.574  22.636  -0.032  1.00  0.00    -0.267 N 
HETATM   20  N4  UNL     1       7.473  23.206  -0.549  1.00  0.00    -0.227 N 
ATOM     21  H3  UNL     1       8.993  21.761  -0.346  1.00  0.00     0.190 HD
HETATM   22  N5  UNL     1       7.239  24.319   0.111  1.00  0.00    -0.227 N 
ATOM     23  H4  UNL     1       6.916  22.838  -1.320  1.00  0.00     0.210 HD
HETATM   24  N6  UNL     1       8.182  24.449   1.035  1.00  0.00    -0.267 N 
ATOM     25  H5  UNL     1       6.470  24.966  -0.058  1.00  0.00     0.210 HD
ATOM     26  H6  UNL     1       8.252  25.222   1.696  1.00  0.00     0.190 HD
ENDBRANCH  13  18
ENDBRANCH  10  11
ENDBRANCH   1  10
BRANCH   1  27
HETATM   27  N9  UNL     1      12.885  20.209   5.208  1.00  0.00    -0.364 N 
HETATM   28  C9  UNL     1      12.546  20.822   6.226  1.00  0.00     0.134 A 
HETATM   29  N10 UNL     1      11.644  21.769   6.473  1.00  0.00    -0.283 N 
HETATM   30  C13 UNL     1      13.144  20.583   7.480  1.00  0.00     0.098 A 
HETATM   31  N11 UNL     1      11.648  22.119   7.762  1.00  0.00    -0.283 N 
ATOM     32  H10 UNL     1      11.028  22.176   5.768  1.00  0.00     0.188 HD
HETATM   33  C10 UNL     1      12.570  21.398   8.414  1.00  0.00     0.138 A 
ATOM     34  H11 UNL     1      11.044  22.824   8.184  1.00  0.00     0.188 HD
HETATM   35  N12 UNL     1      12.999  21.332   9.700  1.00  0.00    -0.337 N 
HETATM   36  C11 UNL     1      13.983  20.474  10.072  1.00  0.00     0.183 A 
ATOM     37  H12 UNL     1      12.574  21.940  10.401  1.00  0.00     0.168 HD
HETATM   38  N13 UNL     1      14.559  19.668   9.178  1.00  0.00    -0.338 N 
HETATM   39  C12 UNL     1      14.143  19.721   7.896  1.00  0.00     0.117 A 
ATOM     40  H13 UNL     1      15.299  19.025   9.459  1.00  0.00     0.168 HD
ATOM     41  H9  UNL     1      13.627  19.545   5.431  1.00  0.00     0.161 HD
BRANCH  39  42
HETATM   42  N14 UNL     1      14.677  18.961   7.028  1.00  0.00    -0.385 N 
ATOM     43 2H14 UNL     1      14.086  18.272   6.564  1.00  0.00     0.157 HD
ATOM     44 1H14 UNL     1      15.671  19.054   6.817  1.00  0.00     0.157 HD
ENDBRANCH  39  42
ENDBRANCH   1  27
TORSDOF 8
ENDMDL
