MODEL 1
REMARK VINA RESULT: -7.143003488      0.000      0.000
REMARK  1 active torsions:
REMARK  status: ('A' for Active; 'I' for Inactive)
REMARK    1  A    between atoms: C10_12  and  O2_13 
ROOT
HETATM    1  C1  UNL     1       2.327 -25.949  24.824  1.00  0.00     0.043 C 
HETATM    2  C2  UNL     1       2.348 -24.428  25.069  1.00  0.00    -0.084 C 
HETATM    3  C3  UNL     1       1.445 -23.994  26.161  1.00  0.00     0.043 C 
HETATM    4  C4  UNL     1       3.095 -23.724  24.282  1.00  0.00    -0.062 C 
HETATM    5  C5  UNL     1       3.894 -24.395  23.179  1.00  0.00     0.042 C 
HETATM    6  C6  UNL     1       4.638 -23.285  22.510  1.00  0.00     0.020 C 
HETATM    7  C7  UNL     1       6.068 -23.434  22.836  1.00  0.00     0.151 C 
HETATM    8  N1  UNL     1       6.302 -24.419  23.920  1.00  0.00    -0.092 NA
HETATM    9  O1  UNL     1       6.344 -23.642  25.054  1.00  0.00    -0.277 OA
HETATM   10  C8  UNL     1       7.152 -22.657  24.691  1.00  0.00     0.196 C 
HETATM   11  C9  UNL     1       7.262 -21.354  25.343  1.00  0.00     0.086 C 
HETATM   12  C10 UNL     1       8.578 -20.825  24.754  1.00  0.00     0.128 C 
HETATM   13  C11 UNL     1       9.216 -21.668  23.700  1.00  0.00     0.035 C 
HETATM   14  C12 UNL     1       8.330 -22.295  22.664  1.00  0.00     0.048 C 
HETATM   15  C13 UNL     1       6.890 -22.283  23.236  1.00  0.00     0.144 C 
HETATM   16  O3  UNL     1       6.498 -21.054  22.975  1.00  0.00    -0.224 OA
HETATM   17  O4  UNL     1       6.429 -20.076  23.723  1.00  0.00    -0.228 OA
HETATM   18  C14 UNL     1       6.174 -20.379  25.096  1.00  0.00     0.107 C 
HETATM   19  C15 UNL     1       6.629 -19.077  25.820  1.00  0.00     0.050 C 
HETATM   20  C16 UNL     1       4.791 -20.466  25.302  1.00  0.00     0.121 C 
HETATM   21  C17 UNL     1       3.754 -21.489  25.294  1.00  0.00     0.258 C 
HETATM   22  F1  UNL     1       2.556 -20.724  25.514  1.00  0.00    -0.205 F 
HETATM   23  F2  UNL     1       3.747 -22.136  26.521  1.00  0.00    -0.205 F 
HETATM   24  C18 UNL     1       3.379 -22.290  24.133  1.00  0.00     0.057 A 
HETATM   25  C19 UNL     1       2.451 -21.840  23.033  1.00  0.00     0.006 A 
HETATM   26  C20 UNL     1       1.847 -20.482  23.017  1.00  0.00     0.011 C 
HETATM   27  C21 UNL     1       3.968 -22.037  22.870  1.00  0.00     0.016 A 
ENDROOT
BRANCH  12  28
HETATM   28  O2  UNL     1       8.606 -19.537  24.340  1.00  0.00    -0.395 OA
ATOM     29  H2  UNL     1       9.114 -19.336  23.563  1.00  0.00     0.210 HD
ENDBRANCH  12  28
TORSDOF 1
ENDMDL
MODEL 2
REMARK VINA RESULT: -7.133637748      0.965      1.043
REMARK  1 active torsions:
REMARK  status: ('A' for Active; 'I' for Inactive)
REMARK    1  A    between atoms: C10_12  and  O2_13 
ROOT
HETATM    1  C1  UNL     1       1.823 -24.602  25.925  1.00  0.00     0.043 C 
HETATM    2  C2  UNL     1       2.137 -23.132  25.585  1.00  0.00    -0.084 C 
HETATM    3  C3  UNL     1       1.390 -22.162  26.419  1.00  0.00     0.043 C 
HETATM    4  C4  UNL     1       2.956 -22.925  24.605  1.00  0.00    -0.062 C 
HETATM    5  C5  UNL     1       3.555 -24.096  23.846  1.00  0.00     0.042 C 
HETATM    6  C6  UNL     1       4.453 -23.476  22.824  1.00  0.00     0.020 C 
HETATM    7  C7  UNL     1       5.847 -23.765  23.207  1.00  0.00     0.151 C 
HETATM    8  N1  UNL     1       5.955 -24.305  24.585  1.00  0.00    -0.092 NA
HETATM    9  O1  UNL     1       6.202 -23.187  25.348  1.00  0.00    -0.277 OA
HETATM   10  C8  UNL     1       7.156 -22.580  24.658  1.00  0.00     0.196 C 
HETATM   11  C9  UNL     1       7.539 -21.175  24.778  1.00  0.00     0.086 C 
HETATM   12  C10 UNL     1       8.896 -21.164  24.058  1.00  0.00     0.128 C 
HETATM   13  C11 UNL     1       9.309 -22.442  23.406  1.00  0.00     0.035 C 
HETATM   14  C12 UNL     1       8.266 -23.225  22.663  1.00  0.00     0.048 C 
HETATM   15  C13 UNL     1       6.887 -22.727  23.164  1.00  0.00     0.144 C 
HETATM   16  O3  UNL     1       6.714 -21.631  22.457  1.00  0.00    -0.224 OA
HETATM   17  O4  UNL     1       6.867 -20.452  22.784  1.00  0.00    -0.228 OA
HETATM   18  C14 UNL     1       6.637 -20.172  24.166  1.00  0.00     0.107 C 
HETATM   19  C15 UNL     1       7.363 -18.807  24.360  1.00  0.00     0.050 C 
HETATM   20  C16 UNL     1       5.276 -19.910  24.365  1.00  0.00     0.121 C 
HETATM   21  C17 UNL     1       4.070 -20.645  24.721  1.00  0.00     0.258 C 
HETATM   22  F1  UNL     1       3.047 -19.639  24.618  1.00  0.00    -0.205 F 
HETATM   23  F2  UNL     1       4.011 -20.779  26.101  1.00  0.00    -0.205 F 
HETATM   24  C18 UNL     1       3.490 -21.732  23.936  1.00  0.00     0.057 A 
HETATM   25  C19 UNL     1       2.601 -21.550  22.732  1.00  0.00     0.006 A 
HETATM   26  C20 UNL     1       2.257 -20.206  22.200  1.00  0.00     0.011 C 
HETATM   27  C21 UNL     1       4.044 -22.080  22.681  1.00  0.00     0.016 A 
ENDROOT
BRANCH  12  28
HETATM   28  O2  UNL     1       9.137 -20.150  23.194  1.00  0.00    -0.395 OA
ATOM     29  H2  UNL     1      10.042 -19.972  22.968  1.00  0.00     0.210 HD
ENDBRANCH  12  28
TORSDOF 1
ENDMDL
MODEL 3
REMARK VINA RESULT: -6.854773528      6.318      9.197
REMARK  1 active torsions:
REMARK  status: ('A' for Active; 'I' for Inactive)
REMARK    1  A    between atoms: C10_12  and  O2_13 
ROOT
HETATM    1  C1  UNL     1      -1.190 -12.710  22.413  1.00  0.00     0.043 C 
HETATM    2  C2  UNL     1      -0.318 -13.899  22.860  1.00  0.00    -0.084 C 
HETATM    3  C3  UNL     1      -0.328 -14.118  24.326  1.00  0.00     0.043 C 
HETATM    4  C4  UNL     1       0.338 -14.518  21.933  1.00  0.00    -0.062 C 
HETATM    5  C5  UNL     1       0.236 -14.064  20.488  1.00  0.00     0.042 C 
HETATM    6  C6  UNL     1       1.097 -15.016  19.722  1.00  0.00     0.020 C 
HETATM    7  C7  UNL     1       0.216 -15.870  18.906  1.00  0.00     0.151 C 
HETATM    8  N1  UNL     1      -1.213 -15.741  19.288  1.00  0.00    -0.092 NA
HETATM    9  O1  UNL     1      -1.399 -16.769  20.182  1.00  0.00    -0.277 OA
HETATM   10  C8  UNL     1      -0.837 -17.792  19.555  1.00  0.00     0.196 C 
HETATM   11  C9  UNL     1      -0.399 -19.041  20.174  1.00  0.00     0.086 C 
HETATM   12  C10 UNL     1      -0.213 -19.945  18.946  1.00  0.00     0.128 C 
HETATM   13  C11 UNL     1      -0.397 -19.296  17.614  1.00  0.00     0.035 C 
HETATM   14  C12 UNL     1       0.174 -17.923  17.413  1.00  0.00     0.048 C 
HETATM   15  C13 UNL     1       0.416 -17.324  18.821  1.00  0.00     0.144 C 
HETATM   16  O3  UNL     1       1.567 -17.864  19.159  1.00  0.00    -0.224 OA
HETATM   17  O4  UNL     1       1.799 -18.817  19.906  1.00  0.00    -0.228 OA
HETATM   18  C14 UNL     1       0.855 -19.003  20.963  1.00  0.00     0.107 C 
HETATM   19  C15 UNL     1       1.109 -20.480  21.387  1.00  0.00     0.050 C 
HETATM   20  C16 UNL     1       1.231 -18.221  22.062  1.00  0.00     0.121 C 
HETATM   21  C17 UNL     1       0.964 -16.890  22.590  1.00  0.00     0.258 C 
HETATM   22  F1  UNL     1       1.834 -16.825  23.735  1.00  0.00    -0.205 F 
HETATM   23  F2  UNL     1      -0.224 -16.917  23.307  1.00  0.00    -0.205 F 
HETATM   24  C18 UNL     1       1.286 -15.640  21.909  1.00  0.00     0.057 A 
HETATM   25  C19 UNL     1       2.642 -14.982  21.903  1.00  0.00     0.006 A 
HETATM   26  C20 UNL     1       3.817 -15.588  22.582  1.00  0.00     0.011 C 
HETATM   27  C21 UNL     1       1.993 -15.657  20.683  1.00  0.00     0.016 A 
ENDROOT
BRANCH  12  28
HETATM   28  O2  UNL     1       0.902 -20.710  18.894  1.00  0.00    -0.395 OA
ATOM     29  H2  UNL     1       1.292 -20.859  18.041  1.00  0.00     0.210 HD
ENDBRANCH  12  28
TORSDOF 1
ENDMDL
MODEL 4
REMARK VINA RESULT: -6.750289222      2.742      4.481
REMARK  1 active torsions:
REMARK  status: ('A' for Active; 'I' for Inactive)
REMARK    1  A    between atoms: C10_12  and  O2_13 
ROOT
HETATM    1  C1  UNL     1       2.200 -19.802  23.584  1.00  0.00     0.043 C 
HETATM    2  C2  UNL     1       3.372 -20.749  23.261  1.00  0.00    -0.084 C 
HETATM    3  C3  UNL     1       3.164 -21.545  22.029  1.00  0.00     0.043 C 
HETATM    4  C4  UNL     1       4.350 -20.771  24.108  1.00  0.00    -0.062 C 
HETATM    5  C5  UNL     1       4.309 -19.899  25.350  1.00  0.00     0.042 C 
HETATM    6  C6  UNL     1       5.597 -20.172  26.057  1.00  0.00     0.020 C 
HETATM    7  C7  UNL     1       6.441 -18.969  25.949  1.00  0.00     0.151 C 
HETATM    8  N1  UNL     1       5.911 -17.992  24.966  1.00  0.00    -0.092 NA
HETATM    9  O1  UNL     1       6.584 -18.307  23.808  1.00  0.00    -0.277 OA
HETATM   10  C8  UNL     1       7.836 -18.407  24.230  1.00  0.00     0.196 C 
HETATM   11  C9  UNL     1       8.924 -19.086  23.529  1.00  0.00     0.086 C 
HETATM   12  C10 UNL     1      10.154 -18.543  24.272  1.00  0.00     0.128 C 
HETATM   13  C11 UNL     1       9.882 -17.670  25.452  1.00  0.00     0.035 C 
HETATM   14  C12 UNL     1       8.773 -18.065  26.382  1.00  0.00     0.048 C 
HETATM   15  C13 UNL     1       7.868 -19.056  25.609  1.00  0.00     0.144 C 
HETATM   16  O3  UNL     1       8.521 -20.191  25.743  1.00  0.00    -0.224 OA
HETATM   17  O4  UNL     1       9.252 -20.776  24.941  1.00  0.00    -0.228 OA
HETATM   18  C14 UNL     1       8.931 -20.568  23.563  1.00  0.00     0.107 C 
HETATM   19  C15 UNL     1      10.249 -20.980  22.842  1.00  0.00     0.050 C 
HETATM   20  C16 UNL     1       7.970 -21.505  23.166  1.00  0.00     0.121 C 
HETATM   21  C17 UNL     1       6.519 -21.603  23.081  1.00  0.00     0.258 C 
HETATM   22  F1  UNL     1       6.320 -22.961  22.648  1.00  0.00    -0.205 F 
HETATM   23  F2  UNL     1       6.093 -21.007  21.902  1.00  0.00    -0.205 F 
HETATM   24  C18 UNL     1       5.607 -21.523  24.218  1.00  0.00     0.057 A 
HETATM   25  C19 UNL     1       5.278 -22.665  25.145  1.00  0.00     0.006 A 
HETATM   26  C20 UNL     1       5.903 -24.006  25.000  1.00  0.00     0.011 C 
HETATM   27  C21 UNL     1       6.116 -21.436  25.536  1.00  0.00     0.016 A 
ENDROOT
BRANCH  12  28
HETATM   28  O2  UNL     1      11.120 -19.428  24.614  1.00  0.00    -0.395 OA
ATOM     29  H2  UNL     1      11.876 -19.495  24.043  1.00  0.00     0.210 HD
ENDBRANCH  12  28
TORSDOF 1
ENDMDL
MODEL 5
REMARK VINA RESULT: -6.540970288      2.283      5.454
REMARK  1 active torsions:
REMARK  status: ('A' for Active; 'I' for Inactive)
REMARK    1  A    between atoms: C10_12  and  O2_13 
ROOT
HETATM    1  C1  UNL     1      10.708 -21.330  23.262  1.00  0.00     0.043 C 
HETATM    2  C2  UNL     1       9.670 -20.264  23.659  1.00  0.00    -0.084 C 
HETATM    3  C3  UNL     1      10.003 -18.906  23.170  1.00  0.00     0.043 C 
HETATM    4  C4  UNL     1       8.682 -20.662  24.394  1.00  0.00    -0.062 C 
HETATM    5  C5  UNL     1       8.585 -22.113  24.830  1.00  0.00     0.042 C 
HETATM    6  C6  UNL     1       7.324 -22.195  25.627  1.00  0.00     0.020 C 
HETATM    7  C7  UNL     1       6.343 -22.971  24.849  1.00  0.00     0.151 C 
HETATM    8  N1  UNL     1       6.772 -23.182  23.444  1.00  0.00    -0.092 NA
HETATM    9  O1  UNL     1       6.170 -22.146  22.768  1.00  0.00    -0.277 OA
HETATM   10  C8  UNL     1       4.930 -22.190  23.231  1.00  0.00     0.196 C 
HETATM   11  C9  UNL     1       3.951 -21.108  23.162  1.00  0.00     0.086 C 
HETATM   12  C10 UNL     1       2.646 -21.853  23.481  1.00  0.00     0.128 C 
HETATM   13  C11 UNL     1       2.781 -23.293  23.854  1.00  0.00     0.035 C 
HETATM   14  C12 UNL     1       3.908 -23.683  24.765  1.00  0.00     0.048 C 
HETATM   15  C13 UNL     1       4.945 -22.534  24.717  1.00  0.00     0.144 C 
HETATM   16  O3  UNL     1       4.433 -21.662  25.558  1.00  0.00    -0.224 OA
HETATM   17  O4  UNL     1       3.798 -20.629  25.331  1.00  0.00    -0.228 OA
HETATM   18  C14 UNL     1       4.124 -19.975  24.102  1.00  0.00     0.107 C 
HETATM   19  C15 UNL     1       2.885 -19.062  23.865  1.00  0.00     0.050 C 
HETATM   20  C16 UNL     1       5.203 -19.107  24.313  1.00  0.00     0.121 C 
HETATM   21  C17 UNL     1       6.656 -19.139  24.223  1.00  0.00     0.258 C 
HETATM   22  F1  UNL     1       7.030 -17.837  24.709  1.00  0.00    -0.205 F 
HETATM   23  F2  UNL     1       7.034 -18.921  22.906  1.00  0.00    -0.205 F 
HETATM   24  C18 UNL     1       7.524 -20.006  25.015  1.00  0.00     0.057 A 
HETATM   25  C19 UNL     1       7.968 -19.728  26.429  1.00  0.00     0.006 A 
HETATM   26  C20 UNL     1       7.516 -18.525  27.176  1.00  0.00     0.011 C 
HETATM   27  C21 UNL     1       6.976 -20.832  26.026  1.00  0.00     0.016 A 
ENDROOT
BRANCH  12  28
HETATM   28  O2  UNL     1       1.788 -21.269  24.350  1.00  0.00    -0.395 OA
ATOM     29  H2  UNL     1       1.663 -20.330  24.279  1.00  0.00     0.210 HD
ENDBRANCH  12  28
TORSDOF 1
ENDMDL
