MODEL 1
REMARK VINA RESULT: -6.580198917      0.000      0.000
REMARK  4 active torsions:
REMARK  status: ('A' for Active; 'I' for Inactive)
REMARK    1  A    between atoms: C2_2  and  C3_3 
REMARK    2  A    between atoms: C3_3  and  C4_4 
REMARK    3  A    between atoms: C4_4  and  O1_5 
REMARK    4  A    between atoms: C8_12  and  S1_13 
ROOT
HETATM    1  S1  UNL     1       2.881 -23.880  23.474  1.00  0.00    -0.038 SA
HETATM    2  C9  UNL     1       2.418 -23.386  25.087  1.00  0.00     0.134 C 
HETATM    3  N1  UNL     1       2.131 -23.059  26.153  1.00  0.00    -0.184 NA
ENDROOT
BRANCH   1   4
HETATM    4  C8  UNL     1       4.393 -23.024  22.992  1.00  0.00     0.132 C 
HETATM    5  C7  UNL     1       4.321 -21.559  23.381  1.00  0.00     0.028 C 
HETATM    6  C6  UNL     1       5.244 -21.381  24.567  1.00  0.00     0.055 C 
HETATM    7  C5  UNL     1       6.641 -21.594  24.091  1.00  0.00     0.153 C 
HETATM    8  O3  UNL     1       6.992 -20.529  23.252  1.00  0.00    -0.216 OA
HETATM    9  C11 UNL     1       6.873 -22.932  23.495  1.00  0.00     0.132 C 
HETATM   10  S2  UNL     1       7.858 -21.232  25.431  1.00  0.00    -0.084 SA
HETATM   11  O2  UNL     1       7.046 -19.446  23.939  1.00  0.00    -0.214 OA
HETATM   12  C3  UNL     1       8.103 -19.498  24.845  1.00  0.00     0.167 C 
HETATM   13  C10 UNL     1       5.580 -23.689  23.606  1.00  0.00     0.145 C 
HETATM   14  O4  UNL     1       5.522 -24.769  24.161  1.00  0.00    -0.297 OA
BRANCH  12  15
HETATM   15  C2  UNL     1       9.391 -19.361  24.113  1.00  0.00     0.050 C 
HETATM   16  C1  UNL     1      10.163 -18.127  24.461  1.00  0.00     0.009 C 
ENDBRANCH  12  15
BRANCH  12  17
HETATM   17  C4  UNL     1       7.940 -18.602  26.020  1.00  0.00     0.216 C 
BRANCH  17  18
HETATM   18  O1  UNL     1       6.659 -18.089  26.039  1.00  0.00    -0.397 OA
ATOM     19  H1  UNL     1       6.483 -17.700  26.888  1.00  0.00     0.209 HD
ENDBRANCH  17  18
ENDBRANCH  12  17
ENDBRANCH   1   4
TORSDOF 4
ENDMDL
MODEL 2
REMARK VINA RESULT: -6.242656534      1.364      1.463
REMARK  4 active torsions:
REMARK  status: ('A' for Active; 'I' for Inactive)
REMARK    1  A    between atoms: C2_2  and  C3_3 
REMARK    2  A    between atoms: C3_3  and  C4_4 
REMARK    3  A    between atoms: C4_4  and  O1_5 
REMARK    4  A    between atoms: C8_12  and  S1_13 
ROOT
HETATM    1  S1  UNL     1       2.654 -23.603  24.712  1.00  0.00    -0.038 SA
HETATM    2  C9  UNL     1       2.451 -25.274  24.234  1.00  0.00     0.134 C 
HETATM    3  N1  UNL     1       2.323 -26.370  23.902  1.00  0.00    -0.184 NA
ENDROOT
BRANCH   1   4
HETATM    4  C8  UNL     1       4.000 -22.865  23.765  1.00  0.00     0.132 C 
HETATM    5  C7  UNL     1       4.169 -21.402  24.133  1.00  0.00     0.028 C 
HETATM    6  C6  UNL     1       5.428 -21.309  24.966  1.00  0.00     0.055 C 
HETATM    7  C5  UNL     1       6.583 -21.628  24.078  1.00  0.00     0.153 C 
HETATM    8  O3  UNL     1       6.734 -20.585  23.153  1.00  0.00    -0.216 OA
HETATM    9  C11 UNL     1       6.511 -22.974  23.461  1.00  0.00     0.132 C 
HETATM   10  S2  UNL     1       8.185 -21.376  24.961  1.00  0.00    -0.084 SA
HETATM   11  O2  UNL     1       7.087 -19.517  23.771  1.00  0.00    -0.214 OA
HETATM   12  C3  UNL     1       8.367 -19.661  24.299  1.00  0.00     0.167 C 
HETATM   13  C10 UNL     1       5.264 -23.628  23.984  1.00  0.00     0.145 C 
HETATM   14  O4  UNL     1       5.299 -24.705  24.547  1.00  0.00    -0.297 OA
BRANCH  12  15
HETATM   15  C2  UNL     1       9.366 -19.620  23.197  1.00  0.00     0.050 C 
HETATM   16  C1  UNL     1      10.294 -20.793  23.170  1.00  0.00     0.009 C 
ENDBRANCH  12  15
BRANCH  12  17
HETATM   17  C4  UNL     1       8.653 -18.766  25.451  1.00  0.00     0.216 C 
BRANCH  17  18
HETATM   18  O1  UNL     1       7.895 -19.151  26.538  1.00  0.00    -0.397 OA
ATOM     19  H1  UNL     1       8.019 -18.533  27.249  1.00  0.00     0.209 HD
ENDBRANCH  17  18
ENDBRANCH  12  17
ENDBRANCH   1   4
TORSDOF 4
ENDMDL
MODEL 3
REMARK VINA RESULT: -6.231152017      3.158      6.475
REMARK  4 active torsions:
REMARK  status: ('A' for Active; 'I' for Inactive)
REMARK    1  A    between atoms: C2_2  and  C3_3 
REMARK    2  A    between atoms: C3_3  and  C4_4 
REMARK    3  A    between atoms: C4_4  and  O1_5 
REMARK    4  A    between atoms: C8_12  and  S1_13 
ROOT
HETATM    1  S1  UNL     1      10.416 -17.627  24.774  1.00  0.00    -0.038 SA
HETATM    2  C9  UNL     1      11.342 -18.271  23.436  1.00  0.00     0.134 C 
HETATM    3  N1  UNL     1      11.940 -18.708  22.554  1.00  0.00    -0.184 NA
ENDROOT
BRANCH   1   4
HETATM    4  C8  UNL     1       8.668 -17.993  24.527  1.00  0.00     0.132 C 
HETATM    5  C7  UNL     1       8.498 -19.139  23.546  1.00  0.00     0.028 C 
HETATM    6  C6  UNL     1       8.078 -20.345  24.358  1.00  0.00     0.055 C 
HETATM    7  C5  UNL     1       6.712 -20.078  24.893  1.00  0.00     0.153 C 
HETATM    8  O3  UNL     1       5.807 -20.083  23.823  1.00  0.00    -0.216 OA
HETATM    9  C11 UNL     1       6.628 -18.868  25.746  1.00  0.00     0.132 C 
HETATM   10  S2  UNL     1       6.040 -21.563  25.760  1.00  0.00    -0.084 SA
HETATM   11  O2  UNL     1       5.736 -21.267  23.332  1.00  0.00    -0.214 OA
HETATM   12  C3  UNL     1       5.151 -22.139  24.246  1.00  0.00     0.167 C 
HETATM   13  C10 UNL     1       8.016 -18.300  25.835  1.00  0.00     0.145 C 
HETATM   14  O4  UNL     1       8.557 -18.109  26.907  1.00  0.00    -0.297 OA
BRANCH  12  15
HETATM   15  C2  UNL     1       3.694 -21.852  24.344  1.00  0.00     0.050 C 
HETATM   16  C1  UNL     1       3.038 -22.430  25.557  1.00  0.00     0.009 C 
ENDBRANCH  12  15
BRANCH  12  17
HETATM   17  C4  UNL     1       5.505 -23.567  24.036  1.00  0.00     0.216 C 
BRANCH  17  18
HETATM   18  O1  UNL     1       5.501 -23.853  22.686  1.00  0.00    -0.397 OA
ATOM     19  H1  UNL     1       4.652 -24.197  22.435  1.00  0.00     0.209 HD
ENDBRANCH  17  18
ENDBRANCH  12  17
ENDBRANCH   1   4
TORSDOF 4
ENDMDL
MODEL 4
REMARK VINA RESULT: -6.097371570      1.320      1.328
REMARK  4 active torsions:
REMARK  status: ('A' for Active; 'I' for Inactive)
REMARK    1  A    between atoms: C2_2  and  C3_3 
REMARK    2  A    between atoms: C3_3  and  C4_4 
REMARK    3  A    between atoms: C4_4  and  O1_5 
REMARK    4  A    between atoms: C8_12  and  S1_13 
ROOT
HETATM    1  S1  UNL     1       2.658 -22.724  23.715  1.00  0.00    -0.038 SA
HETATM    2  C9  UNL     1       1.907 -21.243  24.266  1.00  0.00     0.134 C 
HETATM    3  N1  UNL     1       1.429 -20.262  24.633  1.00  0.00    -0.184 NA
ENDROOT
BRANCH   1   4
HETATM    4  C8  UNL     1       4.319 -22.368  23.109  1.00  0.00     0.132 C 
HETATM    5  C7  UNL     1       4.624 -20.887  23.234  1.00  0.00     0.028 C 
HETATM    6  C6  UNL     1       5.599 -20.742  24.383  1.00  0.00     0.055 C 
HETATM    7  C5  UNL     1       6.884 -21.375  23.969  1.00  0.00     0.153 C 
HETATM    8  O3  UNL     1       7.461 -20.592  22.960  1.00  0.00    -0.216 OA
HETATM    9  C11 UNL     1       6.759 -22.810  23.620  1.00  0.00     0.132 C 
HETATM   10  S2  UNL     1       8.195 -21.101  25.240  1.00  0.00    -0.084 SA
HETATM   11  O2  UNL     1       7.803 -19.455  23.447  1.00  0.00    -0.214 OA
HETATM   12  C3  UNL     1       8.842 -19.610  24.361  1.00  0.00     0.167 C 
HETATM   13  C10 UNL     1       5.324 -23.191  23.845  1.00  0.00     0.145 C 
HETATM   14  O4  UNL     1       5.018 -24.110  24.581  1.00  0.00    -0.297 OA
BRANCH  12  15
HETATM   15  C2  UNL     1      10.100 -19.927  23.633  1.00  0.00     0.050 C 
HETATM   16  C1  UNL     1      10.610 -18.810  22.779  1.00  0.00     0.009 C 
ENDBRANCH  12  15
BRANCH  12  17
HETATM   17  C4  UNL     1       8.943 -18.513  25.358  1.00  0.00     0.216 C 
BRANCH  17  18
HETATM   18  O1  UNL     1       8.189 -18.825  26.471  1.00  0.00    -0.397 OA
ATOM     19  H1  UNL     1       7.850 -18.028  26.861  1.00  0.00     0.209 HD
ENDBRANCH  17  18
ENDBRANCH  12  17
ENDBRANCH   1   4
TORSDOF 4
ENDMDL
MODEL 5
REMARK VINA RESULT: -6.061327398      3.424      6.244
REMARK  4 active torsions:
REMARK  status: ('A' for Active; 'I' for Inactive)
REMARK    1  A    between atoms: C2_2  and  C3_3 
REMARK    2  A    between atoms: C3_3  and  C4_4 
REMARK    3  A    between atoms: C4_4  and  O1_5 
REMARK    4  A    between atoms: C8_12  and  S1_13 
ROOT
HETATM    1  S1  UNL     1       9.073 -17.957  24.873  1.00  0.00    -0.038 SA
HETATM    2  C9  UNL     1      10.602 -18.071  24.030  1.00  0.00     0.134 C 
HETATM    3  N1  UNL     1      11.611 -18.162  23.483  1.00  0.00    -0.184 NA
ENDROOT
BRANCH   1   4
HETATM    4  C8  UNL     1       8.360 -19.603  25.053  1.00  0.00     0.132 C 
HETATM    5  C7  UNL     1       7.063 -19.538  25.838  1.00  0.00     0.028 C 
HETATM    6  C6  UNL     1       5.944 -19.754  24.842  1.00  0.00     0.055 C 
HETATM    7  C5  UNL     1       6.037 -21.159  24.352  1.00  0.00     0.153 C 
HETATM    8  O3  UNL     1       5.698 -22.020  25.405  1.00  0.00    -0.216 OA
HETATM    9  C11 UNL     1       7.331 -21.482  23.703  1.00  0.00     0.132 C 
HETATM   10  S2  UNL     1       4.610 -21.574  23.258  1.00  0.00    -0.084 SA
HETATM   11  O2  UNL     1       4.460 -21.863  25.701  1.00  0.00    -0.214 OA
HETATM   12  C3  UNL     1       3.650 -22.304  24.657  1.00  0.00     0.167 C 
HETATM   13  C10 UNL     1       8.150 -20.223  23.711  1.00  0.00     0.145 C 
HETATM   14  O4  UNL     1       8.603 -19.753  22.685  1.00  0.00    -0.297 OA
BRANCH  12  15
HETATM   15  C2  UNL     1       3.678 -23.791  24.602  1.00  0.00     0.050 C 
HETATM   16  C1  UNL     1       2.752 -24.382  23.587  1.00  0.00     0.009 C 
ENDBRANCH  12  15
BRANCH  12  17
HETATM   17  C4  UNL     1       2.296 -21.692  24.637  1.00  0.00     0.216 C 
BRANCH  17  18
HETATM   18  O1  UNL     1       1.649 -21.956  25.827  1.00  0.00    -0.397 OA
ATOM     19  H1  UNL     1       1.188 -21.179  26.119  1.00  0.00     0.209 HD
ENDBRANCH  17  18
ENDBRANCH  12  17
ENDBRANCH   1   4
TORSDOF 4
ENDMDL
