MODEL 1
REMARK VINA RESULT: -6.160627798      0.000      0.000
REMARK  5 active torsions:
REMARK  status: ('A' for Active; 'I' for Inactive)
REMARK    1  A    between atoms: C6_6  and  N1_7 
REMARK    2  A    between atoms: C9_12  and  N3_13 
REMARK    3  A    between atoms: C10_16  and  C11_17 
REMARK    4  A    between atoms: C11_17  and  O3_18 
REMARK    5  A    between atoms: N4_20  and  O4_22 
ROOT
HETATM    1  C1  UNL     1       1.892 -20.575  24.736  1.00  0.00     0.045 C 
HETATM    2  C2  UNL     1       2.393 -20.602  23.320  1.00  0.00     0.054 C 
HETATM    3  C3  UNL     1       2.889 -22.046  23.058  1.00  0.00     0.045 C 
HETATM    4  C4  UNL     1       1.344 -20.320  22.300  1.00  0.00     0.043 C 
HETATM    5  C5  UNL     1       1.701 -18.953  21.652  1.00  0.00     0.057 C 
HETATM    6  C6  UNL     1       1.362 -17.899  22.650  1.00  0.00     0.011 C 
HETATM    7  C10 UNL     1       2.385 -17.706  23.711  1.00  0.00     0.132 C 
HETATM    8  C12 UNL     1       3.575 -18.603  23.660  1.00  0.00     0.187 C 
HETATM    9  O5  UNL     1       3.478 -19.813  23.090  1.00  0.00    -0.380 OA
ENDROOT
BRANCH   6  10
HETATM   10  N1  UNL     1       0.714 -16.704  22.159  1.00  0.00    -0.295 N 
HETATM   11  C7  UNL     1      -0.405 -16.205  22.755  1.00  0.00     0.117 A 
HETATM   12  C8  UNL     1      -0.806 -15.077  22.087  1.00  0.00     0.109 A 
HETATM   13  N2  UNL     1       0.060 -14.908  21.110  1.00  0.00    -0.331 N 
HETATM   14  C9  UNL     1       1.005 -15.900  21.137  1.00  0.00     0.256 A 
ATOM     15  H2  UNL     1       0.033 -14.148  20.431  1.00  0.00     0.168 HD
BRANCH  14  16
HETATM   16  N3  UNL     1       2.076 -15.954  20.193  1.00  0.00    -0.079 N 
HETATM   17  O1  UNL     1       3.054 -15.187  20.429  1.00  0.00    -0.529 OA
HETATM   18  O2  UNL     1       2.196 -16.696  19.092  1.00  0.00    -0.529 OA
ENDBRANCH  14  16
ENDBRANCH   6  10
BRANCH   7  19
HETATM   19  C11 UNL     1       2.894 -16.314  23.832  1.00  0.00     0.147 C 
HETATM   20  N4  UNL     1       3.861 -15.879  23.069  1.00  0.00    -0.250 N 
ATOM     21  H4  UNL     1       4.256 -16.527  22.387  1.00  0.00     0.196 HD
BRANCH  19  22
HETATM   22  O3  UNL     1       2.397 -15.385  24.739  1.00  0.00    -0.348 OA
ATOM     23  H3  UNL     1       2.897 -15.038  25.468  1.00  0.00     0.219 HD
ENDBRANCH  19  22
BRANCH  20  24
HETATM   24  O4  UNL     1       4.374 -14.634  23.121  1.00  0.00    -0.288 OA
ATOM     25  H4  UNL     1       4.297 -13.990  22.427  1.00  0.00     0.244 HD
ENDBRANCH  20  24
ENDBRANCH   7  19
TORSDOF 5
ENDMDL
MODEL 2
REMARK VINA RESULT: -5.991136502      4.726      6.607
REMARK  5 active torsions:
REMARK  status: ('A' for Active; 'I' for Inactive)
REMARK    1  A    between atoms: C6_6  and  N1_7 
REMARK    2  A    between atoms: C9_12  and  N3_13 
REMARK    3  A    between atoms: C10_16  and  C11_17 
REMARK    4  A    between atoms: C11_17  and  O3_18 
REMARK    5  A    between atoms: N4_20  and  O4_22 
ROOT
HETATM    1  C1  UNL     1       4.909 -24.572  24.564  1.00  0.00     0.045 C 
HETATM    2  C2  UNL     1       4.155 -23.526  23.793  1.00  0.00     0.054 C 
HETATM    3  C3  UNL     1       2.911 -24.233  23.199  1.00  0.00     0.045 C 
HETATM    4  C4  UNL     1       3.648 -22.402  24.629  1.00  0.00     0.043 C 
HETATM    5  C5  UNL     1       4.436 -21.133  24.205  1.00  0.00     0.057 C 
HETATM    6  C6  UNL     1       5.807 -21.263  24.776  1.00  0.00     0.011 C 
HETATM    7  C10 UNL     1       6.718 -22.138  23.991  1.00  0.00     0.132 C 
HETATM    8  C12 UNL     1       6.139 -22.787  22.780  1.00  0.00     0.187 C 
HETATM    9  O5  UNL     1       4.821 -23.029  22.715  1.00  0.00    -0.380 OA
ENDROOT
BRANCH   6  10
HETATM   10  N1  UNL     1       6.398 -20.081  25.360  1.00  0.00    -0.295 N 
HETATM   11  C7  UNL     1       7.411 -20.166  26.268  1.00  0.00     0.117 A 
HETATM   12  C8  UNL     1       7.775 -18.902  26.656  1.00  0.00     0.109 A 
HETATM   13  N2  UNL     1       6.993 -18.080  25.989  1.00  0.00    -0.331 N 
HETATM   14  C9  UNL     1       6.138 -18.787  25.184  1.00  0.00     0.256 A 
ATOM     15  H2  UNL     1       7.020 -17.063  26.060  1.00  0.00     0.168 HD
BRANCH  14  16
HETATM   16  N3  UNL     1       5.184 -18.140  24.338  1.00  0.00    -0.079 N 
HETATM   17  O1  UNL     1       5.643 -17.230  23.590  1.00  0.00    -0.529 OA
HETATM   18  O2  UNL     1       3.874 -18.357  24.222  1.00  0.00    -0.529 OA
ENDBRANCH  14  16
ENDBRANCH   6  10
BRANCH   7  19
HETATM   19  C11 UNL     1       7.987 -21.487  23.570  1.00  0.00     0.147 C 
HETATM   20  N4  UNL     1       9.142 -21.904  24.016  1.00  0.00    -0.250 N 
ATOM     21  H4  UNL     1       9.144 -22.693  24.663  1.00  0.00     0.196 HD
BRANCH  19  22
HETATM   22  O3  UNL     1       8.051 -20.411  22.691  1.00  0.00    -0.348 OA
ATOM     23  H3  UNL     1       7.680 -19.556  22.874  1.00  0.00     0.219 HD
ENDBRANCH  19  22
BRANCH  20  24
HETATM   24  O4  UNL     1      10.331 -21.365  23.680  1.00  0.00    -0.288 OA
ATOM     25  H4  UNL     1      11.150 -21.546  24.126  1.00  0.00     0.244 HD
ENDBRANCH  20  24
ENDBRANCH   7  19
TORSDOF 5
ENDMDL
MODEL 3
REMARK VINA RESULT: -5.987416448      1.405      2.167
REMARK  5 active torsions:
REMARK  status: ('A' for Active; 'I' for Inactive)
REMARK    1  A    between atoms: C6_6  and  N1_7 
REMARK    2  A    between atoms: C9_12  and  N3_13 
REMARK    3  A    between atoms: C10_16  and  C11_17 
REMARK    4  A    between atoms: C11_17  and  O3_18 
REMARK    5  A    between atoms: N4_20  and  O4_22 
ROOT
HETATM    1  C1  UNL     1       1.667 -20.472  24.712  1.00  0.00     0.045 C 
HETATM    2  C2  UNL     1       2.380 -20.588  23.395  1.00  0.00     0.054 C 
HETATM    3  C3  UNL     1       2.881 -22.051  23.296  1.00  0.00     0.045 C 
HETATM    4  C4  UNL     1       1.508 -20.355  22.209  1.00  0.00     0.043 C 
HETATM    5  C5  UNL     1       1.989 -19.034  21.548  1.00  0.00     0.057 C 
HETATM    6  C6  UNL     1       1.521 -17.918  22.420  1.00  0.00     0.011 C 
HETATM    7  C10 UNL     1       2.370 -17.674  23.615  1.00  0.00     0.132 C 
HETATM    8  C12 UNL     1       3.536 -18.586  23.800  1.00  0.00     0.187 C 
HETATM    9  O5  UNL     1       3.504 -19.826  23.292  1.00  0.00    -0.380 OA
ENDROOT
BRANCH   6  10
HETATM   10  N1  UNL     1       0.981 -16.748  21.767  1.00  0.00    -0.295 N 
HETATM   11  C7  UNL     1       1.465 -16.314  20.569  1.00  0.00     0.117 A 
HETATM   12  C8  UNL     1       0.779 -15.191  20.185  1.00  0.00     0.109 A 
HETATM   13  N2  UNL     1      -0.099 -14.961  21.138  1.00  0.00    -0.331 N 
HETATM   14  C9  UNL     1       0.009 -15.909  22.121  1.00  0.00     0.256 A 
ATOM     15  H2  UNL     1      -0.765 -14.188  21.144  1.00  0.00     0.168 HD
BRANCH  14  16
HETATM   16  N3  UNL     1      -0.835 -15.906  23.275  1.00  0.00    -0.079 N 
HETATM   17  O1  UNL     1      -0.608 -14.991  24.118  1.00  0.00    -0.529 OA
HETATM   18  O2  UNL     1      -1.833 -16.730  23.594  1.00  0.00    -0.529 OA
ENDBRANCH  14  16
ENDBRANCH   6  10
BRANCH   7  19
HETATM   19  C11 UNL     1       2.883 -16.283  23.734  1.00  0.00     0.147 C 
HETATM   20  N4  UNL     1       3.872 -15.861  22.992  1.00  0.00    -0.250 N 
ATOM     21  H4  UNL     1       4.281 -16.518  22.327  1.00  0.00     0.196 HD
BRANCH  19  22
HETATM   22  O3  UNL     1       2.368 -15.342  24.618  1.00  0.00    -0.348 OA
ATOM     23  H3  UNL     1       1.477 -15.012  24.579  1.00  0.00     0.219 HD
ENDBRANCH  19  22
BRANCH  20  24
HETATM   24  O4  UNL     1       4.389 -14.617  23.044  1.00  0.00    -0.288 OA
ATOM     25  H4  UNL     1       4.133 -13.952  23.673  1.00  0.00     0.244 HD
ENDBRANCH  20  24
ENDBRANCH   7  19
TORSDOF 5
ENDMDL
MODEL 4
REMARK VINA RESULT: -5.831658702      5.271      6.840
REMARK  5 active torsions:
REMARK  status: ('A' for Active; 'I' for Inactive)
REMARK    1  A    between atoms: C6_6  and  N1_7 
REMARK    2  A    between atoms: C9_12  and  N3_13 
REMARK    3  A    between atoms: C10_16  and  C11_17 
REMARK    4  A    between atoms: C11_17  and  O3_18 
REMARK    5  A    between atoms: N4_20  and  O4_22 
ROOT
HETATM    1  C1  UNL     1       3.987 -25.064  24.954  1.00  0.00     0.045 C 
HETATM    2  C2  UNL     1       3.019 -24.203  24.193  1.00  0.00     0.054 C 
HETATM    3  C3  UNL     1       1.751 -25.064  23.968  1.00  0.00     0.045 C 
HETATM    4  C4  UNL     1       2.581 -22.984  24.929  1.00  0.00     0.043 C 
HETATM    5  C5  UNL     1       3.169 -21.763  24.170  1.00  0.00     0.057 C 
HETATM    6  C6  UNL     1       4.628 -21.723  24.476  1.00  0.00     0.011 C 
HETATM    7  C10 UNL     1       5.449 -22.667  23.673  1.00  0.00     0.132 C 
HETATM    8  C12 UNL     1       4.714 -23.539  22.712  1.00  0.00     0.187 C 
HETATM    9  O5  UNL     1       3.432 -23.858  22.943  1.00  0.00    -0.380 OA
ENDROOT
BRANCH   6  10
HETATM   10  N1  UNL     1       5.214 -20.431  24.745  1.00  0.00    -0.295 N 
HETATM   11  C7  UNL     1       4.716 -19.292  24.186  1.00  0.00     0.117 A 
HETATM   12  C8  UNL     1       5.460 -18.221  24.606  1.00  0.00     0.109 A 
HETATM   13  N2  UNL     1       6.385 -18.713  25.403  1.00  0.00    -0.331 N 
HETATM   14  C9  UNL     1       6.250 -20.073  25.502  1.00  0.00     0.256 A 
ATOM     15  H2  UNL     1       7.099 -18.161  25.879  1.00  0.00     0.168 HD
BRANCH  14  16
HETATM   16  N3  UNL     1       7.120 -20.864  26.315  1.00  0.00    -0.079 N 
HETATM   17  O1  UNL     1       6.781 -20.981  27.527  1.00  0.00    -0.529 OA
HETATM   18  O2  UNL     1       8.243 -21.499  25.981  1.00  0.00    -0.529 OA
ENDBRANCH  14  16
ENDBRANCH   6  10
BRANCH   7  19
HETATM   19  C11 UNL     1       6.560 -22.029  22.918  1.00  0.00     0.147 C 
HETATM   20  N4  UNL     1       7.808 -22.311  23.183  1.00  0.00    -0.250 N 
ATOM     21  H4  UNL     1       7.995 -22.985  23.926  1.00  0.00     0.196 HD
BRANCH  19  22
HETATM   22  O3  UNL     1       6.371 -21.106  21.896  1.00  0.00    -0.348 OA
ATOM     23  H3  UNL     1       6.781 -21.172  21.041  1.00  0.00     0.219 HD
ENDBRANCH  19  22
BRANCH  20  24
HETATM   24  O4  UNL     1       8.866 -21.773  22.544  1.00  0.00    -0.288 OA
ATOM     25  H4  UNL     1       9.755 -22.104  22.600  1.00  0.00     0.244 HD
ENDBRANCH  20  24
ENDBRANCH   7  19
TORSDOF 5
ENDMDL
MODEL 5
REMARK VINA RESULT: -5.822981701      3.366      4.989
REMARK  5 active torsions:
REMARK  status: ('A' for Active; 'I' for Inactive)
REMARK    1  A    between atoms: C6_6  and  N1_7 
REMARK    2  A    between atoms: C9_12  and  N3_13 
REMARK    3  A    between atoms: C10_16  and  C11_17 
REMARK    4  A    between atoms: C11_17  and  O3_18 
REMARK    5  A    between atoms: N4_20  and  O4_22 
ROOT
HETATM    1  C1  UNL     1       6.984 -20.684  26.504  1.00  0.00     0.045 C 
HETATM    2  C2  UNL     1       7.248 -20.945  25.048  1.00  0.00     0.054 C 
HETATM    3  C3  UNL     1       8.602 -21.695  24.976  1.00  0.00     0.045 C 
HETATM    4  C4  UNL     1       6.238 -21.826  24.397  1.00  0.00     0.043 C 
HETATM    5  C5  UNL     1       5.468 -20.948  23.372  1.00  0.00     0.057 C 
HETATM    6  C6  UNL     1       4.555 -20.067  24.155  1.00  0.00     0.011 C 
HETATM    7  C10 UNL     1       5.213 -18.870  24.743  1.00  0.00     0.132 C 
HETATM    8  C12 UNL     1       6.679 -18.733  24.508  1.00  0.00     0.187 C 
HETATM    9  O5  UNL     1       7.429 -19.824  24.297  1.00  0.00    -0.380 OA
ENDROOT
BRANCH   6  10
HETATM   10  N1  UNL     1       3.217 -19.878  23.645  1.00  0.00    -0.295 N 
HETATM   11  C7  UNL     1       2.982 -19.166  22.507  1.00  0.00     0.117 A 
HETATM   12  C8  UNL     1       1.634 -19.143  22.260  1.00  0.00     0.109 A 
HETATM   13  N2  UNL     1       1.076 -19.830  23.234  1.00  0.00    -0.331 N 
HETATM   14  C9  UNL     1       2.034 -20.291  24.098  1.00  0.00     0.256 A 
ATOM     15  H2  UNL     1       0.074 -19.996  23.332  1.00  0.00     0.168 HD
BRANCH  14  16
HETATM   16  N3  UNL     1       1.706 -21.080  25.244  1.00  0.00    -0.079 N 
HETATM   17  O1  UNL     1       0.782 -20.624  25.977  1.00  0.00    -0.529 OA
HETATM   18  O2  UNL     1       2.234 -22.232  25.657  1.00  0.00    -0.529 OA
ENDBRANCH  14  16
ENDBRANCH   6  10
BRANCH   7  19
HETATM   19  C11 UNL     1       4.588 -17.575  24.365  1.00  0.00     0.147 C 
HETATM   20  N4  UNL     1       5.086 -16.838  23.409  1.00  0.00    -0.250 N 
ATOM     21  H4  UNL     1       5.919 -17.181  22.929  1.00  0.00     0.196 HD
BRANCH  19  22
HETATM   22  O3  UNL     1       3.454 -17.054  24.978  1.00  0.00    -0.348 OA
ATOM     23  H3  UNL     1       2.656 -16.834  24.513  1.00  0.00     0.219 HD
ENDBRANCH  19  22
BRANCH  20  24
HETATM   24  O4  UNL     1       4.577 -15.655  23.011  1.00  0.00    -0.288 OA
ATOM     25  H4  UNL     1       5.095 -14.920  22.704  1.00  0.00     0.244 HD
ENDBRANCH  20  24
ENDBRANCH   7  19
TORSDOF 5
ENDMDL
