MODEL 1
REMARK VINA RESULT: -4.917318503      0.000      0.000
REMARK  2 active torsions:
REMARK  status: ('A' for Active; 'I' for Inactive)
REMARK    1  A    between atoms: N1_1  and  C1_4 
REMARK       I    between atoms: N4_13  and  C4_14 
REMARK       I    between atoms: C4_14  and  N5_16 
REMARK    2  A    between atoms: N5_16  and  N6_18 
ROOT
HETATM    1  C1  UNL     1      11.133   9.173  26.297  1.00  0.00     0.694 A 
HETATM    2  N2  UNL     1      12.150   8.335  26.107  1.00  0.00    -0.141 N 
ATOM      3  H2  UNL     1      12.789   8.168  26.885  1.00  0.00     0.189 HD
HETATM    4  C2  UNL     1      12.381   7.697  24.948  1.00  0.00     0.342 A 
HETATM    5  O1  UNL     1      13.365   6.907  24.814  1.00  0.00    -0.246 OA
HETATM    6  N3  UNL     1      11.525   7.937  23.950  1.00  0.00    -0.259 N 
ATOM      7  H3  UNL     1      11.658   7.475  23.050  1.00  0.00     0.175 HD
HETATM    8  C3  UNL     1      10.470   8.795  24.117  1.00  0.00     0.353 A 
HETATM    9  O2  UNL     1       9.729   8.942  23.104  1.00  0.00    -0.245 OA
HETATM   10  N4  UNL     1      10.256   9.422  25.279  1.00  0.00    -0.042 N 
HETATM   11  C4  UNL     1       9.192  10.310  25.508  1.00  0.00     0.363 C 
HETATM   12  O3  UNL     1       9.091  10.857  26.681  1.00  0.00    -0.244 OA
HETATM   13  N5  UNL     1       8.183  10.710  24.619  1.00  0.00    -0.257 N 
ATOM     14  H5  UNL     1       8.166  10.342  23.668  1.00  0.00     0.191 HD
ENDROOT
BRANCH   1  15
HETATM   15  N1  UNL     1      10.929   9.772  27.408  1.00  0.00    -0.234 N 
ATOM     16  H12 UNL     1      11.554   9.549  28.183  1.00  0.00     0.174 HD
ATOM     17  H11 UNL     1      10.178  10.450  27.539  1.00  0.00     0.174 HD
ENDBRANCH   1  15
BRANCH  13  18
HETATM   18  N6  UNL     1       7.178  11.634  25.048  1.00  0.00    -0.341 N 
ATOM     19  H62 UNL     1       7.368  12.634  24.991  1.00  0.00     0.177 HD
ATOM     20  H61 UNL     1       6.288  11.289  25.406  1.00  0.00     0.177 HD
ENDBRANCH  13  18
TORSDOF 2
ENDMDL
MODEL 2
REMARK VINA RESULT: -4.495507713      1.405      2.426
REMARK  2 active torsions:
REMARK  status: ('A' for Active; 'I' for Inactive)
REMARK    1  A    between atoms: N1_1  and  C1_4 
REMARK       I    between atoms: N4_13  and  C4_14 
REMARK       I    between atoms: C4_14  and  N5_16 
REMARK    2  A    between atoms: N5_16  and  N6_18 
ROOT
HETATM    1  C1  UNL     1      10.427   8.907  24.215  1.00  0.00     0.694 A 
HETATM    2  N2  UNL     1      11.429   8.070  23.955  1.00  0.00    -0.141 N 
ATOM      3  H2  UNL     1      11.485   7.660  23.022  1.00  0.00     0.189 HD
HETATM    4  C2  UNL     1      12.370   7.734  24.853  1.00  0.00     0.342 A 
HETATM    5  O1  UNL     1      13.307   6.931  24.559  1.00  0.00    -0.246 OA
HETATM    6  N3  UNL     1      12.267   8.289  26.065  1.00  0.00    -0.259 N 
ATOM      7  H3  UNL     1      12.959   8.066  26.781  1.00  0.00     0.175 HD
HETATM    8  C3  UNL     1      11.247   9.155  26.361  1.00  0.00     0.353 A 
HETATM    9  O2  UNL     1      11.254   9.615  27.537  1.00  0.00    -0.245 OA
HETATM   10  N4  UNL     1      10.318   9.476  25.453  1.00  0.00    -0.042 N 
HETATM   11  C4  UNL     1       9.252  10.356  25.700  1.00  0.00     0.363 C 
HETATM   12  O3  UNL     1       8.414  10.589  24.735  1.00  0.00    -0.244 OA
HETATM   13  N5  UNL     1       8.946  11.047  26.881  1.00  0.00    -0.257 N 
ATOM     14  H5  UNL     1       9.538  10.938  27.704  1.00  0.00     0.191 HD
ENDROOT
BRANCH   1  15
HETATM   15  N1  UNL     1       9.540   9.215  23.348  1.00  0.00    -0.234 N 
ATOM     16  H12 UNL     1       8.948  10.021  23.549  1.00  0.00     0.174 HD
ATOM     17  H11 UNL     1       9.408   8.691  22.483  1.00  0.00     0.174 HD
ENDBRANCH   1  15
BRANCH  13  18
HETATM   18  N6  UNL     1       7.803  11.907  26.931  1.00  0.00    -0.341 N 
ATOM     19  H62 UNL     1       7.007  11.708  26.324  1.00  0.00     0.177 HD
ATOM     20  H61 UNL     1       7.792  12.703  27.566  1.00  0.00     0.177 HD
ENDBRANCH  13  18
TORSDOF 2
ENDMDL
MODEL 3
REMARK VINA RESULT: -4.451139134      2.894      5.279
REMARK  2 active torsions:
REMARK  status: ('A' for Active; 'I' for Inactive)
REMARK    1  A    between atoms: N1_1  and  C1_4 
REMARK       I    between atoms: N4_13  and  C4_14 
REMARK       I    between atoms: C4_14  and  N5_16 
REMARK    2  A    between atoms: N5_16  and  N6_18 
ROOT
HETATM    1  C1  UNL     1      12.959   7.152  26.985  1.00  0.00     0.694 A 
HETATM    2  N2  UNL     1      11.665   7.274  27.273  1.00  0.00    -0.141 N 
ATOM      3  H2  UNL     1      11.378   7.181  28.247  1.00  0.00     0.189 HD
HETATM    4  C2  UNL     1      10.718   7.513  26.351  1.00  0.00     0.342 A 
HETATM    5  O1  UNL     1       9.496   7.622  26.673  1.00  0.00    -0.246 OA
HETATM    6  N3  UNL     1      11.129   7.630  25.084  1.00  0.00    -0.259 N 
ATOM      7  H3  UNL     1      10.446   7.813  24.348  1.00  0.00     0.175 HD
HETATM    8  C3  UNL     1      12.455   7.509  24.759  1.00  0.00     0.353 A 
HETATM    9  O2  UNL     1      12.722   7.639  23.531  1.00  0.00    -0.245 OA
HETATM   10  N4  UNL     1      13.384   7.271  25.691  1.00  0.00    -0.042 N 
HETATM   11  C4  UNL     1      14.755   7.138  25.416  1.00  0.00     0.363 C 
HETATM   12  O3  UNL     1      15.560   6.907  26.409  1.00  0.00    -0.244 OA
HETATM   13  N5  UNL     1      15.409   7.221  24.178  1.00  0.00    -0.257 N 
ATOM     14  H5  UNL     1      14.873   7.399  23.329  1.00  0.00     0.191 HD
ENDROOT
BRANCH   1  15
HETATM   15  N1  UNL     1      13.848   6.924  27.876  1.00  0.00    -0.234 N 
ATOM     16  H12 UNL     1      13.563   7.002  28.852  1.00  0.00     0.174 HD
ATOM     17  H11 UNL     1      14.809   6.674  27.645  1.00  0.00     0.174 HD
ENDBRANCH   1  15
BRANCH  13  18
HETATM   18  N6  UNL     1      16.828   7.055  24.108  1.00  0.00    -0.341 N 
ATOM     19  H62 UNL     1      17.400   7.326  24.908  1.00  0.00     0.177 HD
ATOM     20  H61 UNL     1      17.255   6.671  23.265  1.00  0.00     0.177 HD
ENDBRANCH  13  18
TORSDOF 2
ENDMDL
MODEL 4
REMARK VINA RESULT: -4.437135407      1.606      4.888
REMARK  2 active torsions:
REMARK  status: ('A' for Active; 'I' for Inactive)
REMARK    1  A    between atoms: N1_1  and  C1_4 
REMARK       I    between atoms: N4_13  and  C4_14 
REMARK       I    between atoms: C4_14  and  N5_16 
REMARK    2  A    between atoms: N5_16  and  N6_18 
ROOT
HETATM    1  C1  UNL     1       9.261   9.815  24.300  1.00  0.00     0.694 A 
HETATM    2  N2  UNL     1       8.245  10.651  24.503  1.00  0.00    -0.141 N 
ATOM      3  H2  UNL     1       7.592  10.811  23.736  1.00  0.00     0.189 HD
HETATM    4  C2  UNL     1       8.033  11.295  25.663  1.00  0.00     0.342 A 
HETATM    5  O1  UNL     1       7.050  12.084  25.810  1.00  0.00    -0.246 OA
HETATM    6  N3  UNL     1       8.907  11.062  26.647  1.00  0.00    -0.259 N 
ATOM      7  H3  UNL     1       8.788  11.528  27.547  1.00  0.00     0.175 HD
HETATM    8  C3  UNL     1       9.962  10.207  26.465  1.00  0.00     0.353 A 
HETATM    9  O2  UNL     1      10.720  10.066  27.466  1.00  0.00    -0.245 OA
HETATM   10  N4  UNL     1      10.157   9.574  25.303  1.00  0.00    -0.042 N 
HETATM   11  C4  UNL     1      11.219   8.687  25.061  1.00  0.00     0.363 C 
HETATM   12  O3  UNL     1      11.301   8.135  23.888  1.00  0.00    -0.244 OA
HETATM   13  N5  UNL     1      12.245   8.296  25.933  1.00  0.00    -0.257 N 
ATOM     14  H5  UNL     1      12.280   8.670  26.881  1.00  0.00     0.191 HD
ENDROOT
BRANCH   1  15
HETATM   15  N1  UNL     1       9.448   9.211  23.188  1.00  0.00    -0.234 N 
ATOM     16  H12 UNL     1       9.559   8.197  23.220  1.00  0.00     0.174 HD
ATOM     17  H11 UNL     1       9.489   9.700  22.294  1.00  0.00     0.174 HD
ENDBRANCH   1  15
BRANCH  13  18
HETATM   18  N6  UNL     1      13.244   7.371  25.491  1.00  0.00    -0.341 N 
ATOM     19  H62 UNL     1      14.208   7.499  25.799  1.00  0.00     0.177 HD
ATOM     20  H61 UNL     1      12.987   6.598  24.878  1.00  0.00     0.177 HD
ENDBRANCH  13  18
TORSDOF 2
ENDMDL
MODEL 5
REMARK VINA RESULT: -4.417469572      1.336      1.489
REMARK  2 active torsions:
REMARK  status: ('A' for Active; 'I' for Inactive)
REMARK    1  A    between atoms: N1_1  and  C1_4 
REMARK       I    between atoms: N4_13  and  C4_14 
REMARK       I    between atoms: C4_14  and  N5_16 
REMARK    2  A    between atoms: N5_16  and  N6_18 
ROOT
HETATM    1  C1  UNL     1      11.887   8.746  27.045  1.00  0.00     0.694 A 
HETATM    2  N2  UNL     1      12.974   7.991  27.192  1.00  0.00    -0.141 N 
ATOM      3  H2  UNL     1      13.387   7.917  28.121  1.00  0.00     0.189 HD
HETATM    4  C2  UNL     1      13.556   7.321  26.183  1.00  0.00     0.342 A 
HETATM    5  O1  UNL     1      14.591   6.613  26.372  1.00  0.00    -0.246 OA
HETATM    6  N3  UNL     1      12.988   7.439  24.978  1.00  0.00    -0.259 N 
ATOM      7  H3  UNL     1      13.393   6.948  24.181  1.00  0.00     0.175 HD
HETATM    8  C3  UNL     1      11.869   8.210  24.798  1.00  0.00     0.353 A 
HETATM    9  O2  UNL     1      11.424   8.245  23.617  1.00  0.00    -0.245 OA
HETATM   10  N4  UNL     1      11.304   8.870  25.815  1.00  0.00    -0.042 N 
HETATM   11  C4  UNL     1      10.159   9.673  25.689  1.00  0.00     0.363 C 
HETATM   12  O3  UNL     1       9.705  10.264  26.753  1.00  0.00    -0.244 OA
HETATM   13  N5  UNL     1       9.404   9.942  24.539  1.00  0.00    -0.257 N 
ATOM     14  H5  UNL     1       9.671   9.530  23.645  1.00  0.00     0.191 HD
ENDROOT
BRANCH   1  15
HETATM   15  N1  UNL     1      11.347   9.378  28.017  1.00  0.00    -0.234 N 
ATOM     16  H12 UNL     1      10.858   8.824  28.720  1.00  0.00     0.174 HD
ATOM     17  H11 UNL     1      11.389  10.393  28.107  1.00  0.00     0.174 HD
ENDBRANCH   1  15
BRANCH  13  18
HETATM   18  N6  UNL     1       8.258  10.796  24.619  1.00  0.00    -0.341 N 
ATOM     19  H62 UNL     1       7.689  10.942  23.785  1.00  0.00     0.177 HD
ATOM     20  H61 UNL     1       8.020  11.247  25.501  1.00  0.00     0.177 HD
ENDBRANCH  13  18
TORSDOF 2
ENDMDL
