MODEL 1
REMARK VINA RESULT: -5.346346305      0.000      0.000
REMARK  1 active torsions:
REMARK  status: ('A' for Active; 'I' for Inactive)
REMARK    1  A    between atoms: C2_5  and  C3_6 
ROOT
HETATM    1  N1  UNL     1      12.099   8.783  26.762  1.00  0.00    -0.394 N 
ATOM      2  H11 UNL     1      12.381   9.214  27.641  1.00  0.00     0.156 HD
ATOM      3  H12 UNL     1      12.587   8.070  26.218  1.00  0.00     0.156 HD
HETATM    4  C1  UNL     1      10.978   9.216  26.308  1.00  0.00     0.113 C 
HETATM    5  C2  UNL     1      10.595   8.631  25.114  1.00  0.00     0.102 C 
HETATM    6  C4  UNL     1       9.644   9.141  24.256  1.00  0.00     0.135 C 
HETATM    7  N3  UNL     1       9.488   8.465  23.020  1.00  0.00    -0.082 NA
HETATM    8  N4  UNL     1       8.820  10.198  24.400  1.00  0.00    -0.340 N 
ATOM      9  H4  UNL     1       8.184  10.378  23.623  1.00  0.00     0.167 HD
HETATM   10  C5  UNL     1       8.731  11.056  25.457  1.00  0.00     0.184 C 
HETATM   11  N5  UNL     1       9.239  10.936  26.713  1.00  0.00    -0.318 N 
ATOM     12  H5  UNL     1       8.772  11.453  27.458  1.00  0.00     0.169 HD
HETATM   13  C6  UNL     1      10.308  10.193  27.054  1.00  0.00     0.273 C 
HETATM   14  O2  UNL     1      10.781  10.396  28.202  1.00  0.00    -0.266 OA
ENDROOT
BRANCH   5  15
HETATM   15  C3  UNL     1      11.248   7.386  24.744  1.00  0.00     0.270 C 
HETATM   16  N2  UNL     1      10.827   6.130  25.249  1.00  0.00    -0.057 NA
HETATM   17  O1  UNL     1      12.218   7.431  23.949  1.00  0.00    -0.271 OA
ENDBRANCH   5  15
TORSDOF 1
ENDMDL
MODEL 2
REMARK VINA RESULT: -4.501881808      1.502      2.933
REMARK  1 active torsions:
REMARK  status: ('A' for Active; 'I' for Inactive)
REMARK    1  A    between atoms: C2_5  and  C3_6 
ROOT
HETATM    1  N1  UNL     1       9.937  10.350  25.611  1.00  0.00    -0.394 N 
ATOM      2  H11 UNL     1       9.766  11.229  26.099  1.00  0.00     0.156 HD
ATOM      3  H12 UNL     1       9.804  10.136  24.623  1.00  0.00     0.156 HD
HETATM    4  C1  UNL     1      10.379   9.414  26.372  1.00  0.00     0.113 C 
HETATM    5  C2  UNL     1      10.612   8.221  25.710  1.00  0.00     0.102 C 
HETATM    6  C4  UNL     1      10.750   6.994  26.324  1.00  0.00     0.135 C 
HETATM    7  N3  UNL     1      10.850   5.872  25.464  1.00  0.00    -0.082 NA
HETATM    8  N4  UNL     1      10.806   6.677  27.632  1.00  0.00    -0.340 N 
ATOM      9  H4  UNL     1      10.924   5.687  27.848  1.00  0.00     0.167 HD
HETATM   10  C5  UNL     1      10.725   7.517  28.704  1.00  0.00     0.184 C 
HETATM   11  N5  UNL     1      10.824   8.873  28.749  1.00  0.00    -0.318 N 
ATOM     12  H5  UNL     1      11.121   9.291  29.631  1.00  0.00     0.169 HD
HETATM   13  C6  UNL     1      10.563   9.708  27.728  1.00  0.00     0.273 C 
HETATM   14  O2  UNL     1      10.468  10.929  28.019  1.00  0.00    -0.266 OA
ENDROOT
BRANCH   5  15
HETATM   15  C3  UNL     1      10.718   8.273  24.261  1.00  0.00     0.270 C 
HETATM   16  N2  UNL     1       9.579   8.325  23.419  1.00  0.00    -0.057 NA
HETATM   17  O1  UNL     1      11.861   8.272  23.743  1.00  0.00    -0.271 OA
ENDBRANCH   5  15
TORSDOF 1
ENDMDL
MODEL 3
REMARK VINA RESULT: -4.471253027      3.008      5.057
REMARK  1 active torsions:
REMARK  status: ('A' for Active; 'I' for Inactive)
REMARK    1  A    between atoms: C2_5  and  C3_6 
ROOT
HETATM    1  N1  UNL     1      14.353   7.164  23.791  1.00  0.00    -0.394 N 
ATOM      2  H11 UNL     1      15.266   6.902  23.421  1.00  0.00     0.156 HD
ATOM      3  H12 UNL     1      13.500   7.389  23.278  1.00  0.00     0.156 HD
HETATM    4  C1  UNL     1      14.306   7.206  25.074  1.00  0.00     0.113 C 
HETATM    5  C2  UNL     1      13.067   7.562  25.577  1.00  0.00     0.102 C 
HETATM    6  C4  UNL     1      12.835   8.009  26.860  1.00  0.00     0.135 C 
HETATM    7  N3  UNL     1      11.518   8.450  27.142  1.00  0.00    -0.082 NA
HETATM    8  N4  UNL     1      13.671   8.099  27.914  1.00  0.00    -0.340 N 
ATOM      9  H4  UNL     1      13.264   8.455  28.778  1.00  0.00     0.167 HD
HETATM   10  C5  UNL     1      14.995   7.771  27.967  1.00  0.00     0.184 C 
HETATM   11  N5  UNL     1      15.742   7.050  27.089  1.00  0.00    -0.318 N 
ATOM     12  H5  UNL     1      16.574   6.585  27.454  1.00  0.00     0.169 HD
HETATM   13  C6  UNL     1      15.476   6.897  25.779  1.00  0.00     0.273 C 
HETATM   14  O2  UNL     1      16.399   6.409  25.078  1.00  0.00    -0.266 OA
ENDROOT
BRANCH   5  15
HETATM   15  C3  UNL     1      11.928   7.453  24.678  1.00  0.00     0.270 C 
HETATM   16  N2  UNL     1      11.032   6.357  24.721  1.00  0.00    -0.057 NA
HETATM   17  O1  UNL     1      11.739   8.366  23.838  1.00  0.00    -0.271 OA
ENDBRANCH   5  15
TORSDOF 1
ENDMDL
MODEL 4
REMARK VINA RESULT: -4.460765771      1.425      2.829
REMARK  1 active torsions:
REMARK  status: ('A' for Active; 'I' for Inactive)
REMARK    1  A    between atoms: C2_5  and  C3_6 
ROOT
HETATM    1  N1  UNL     1       9.209   9.123  24.386  1.00  0.00    -0.394 N 
ATOM      2  H11 UNL     1       8.419   9.716  24.133  1.00  0.00     0.156 HD
ATOM      3  H12 UNL     1       9.512   8.250  23.953  1.00  0.00     0.156 HD
HETATM    4  C1  UNL     1       9.888   9.561  25.384  1.00  0.00     0.113 C 
HETATM    5  C2  UNL     1      10.959   8.756  25.728  1.00  0.00     0.102 C 
HETATM    6  C4  UNL     1      11.624   8.802  26.935  1.00  0.00     0.135 C 
HETATM    7  N3  UNL     1      12.609   7.805  27.146  1.00  0.00    -0.082 NA
HETATM    8  N4  UNL     1      11.491   9.655  27.970  1.00  0.00    -0.340 N 
ATOM      9  H4  UNL     1      12.110   9.495  28.764  1.00  0.00     0.167 HD
HETATM   10  C5  UNL     1      10.629  10.707  28.085  1.00  0.00     0.184 C 
HETATM   11  N5  UNL     1       9.882  11.322  27.130  1.00  0.00    -0.318 N 
ATOM     12  H5  UNL     1       9.610  12.290  27.300  1.00  0.00     0.169 HD
HETATM   13  C6  UNL     1       9.472  10.759  25.979  1.00  0.00     0.273 C 
HETATM   14  O2  UNL     1       8.591  11.388  25.337  1.00  0.00    -0.266 OA
ENDROOT
BRANCH   5  15
HETATM   15  C3  UNL     1      11.412   7.792  24.737  1.00  0.00     0.270 C 
HETATM   16  N2  UNL     1      11.028   6.429  24.777  1.00  0.00    -0.057 NA
HETATM   17  O1  UNL     1      12.169   8.188  23.818  1.00  0.00    -0.271 OA
ENDBRANCH   5  15
TORSDOF 1
ENDMDL
MODEL 5
REMARK VINA RESULT: -4.383033041      1.783      2.186
REMARK  1 active torsions:
REMARK  status: ('A' for Active; 'I' for Inactive)
REMARK    1  A    between atoms: C2_5  and  C3_6 
ROOT
HETATM    1  N1  UNL     1      13.424   7.731  26.707  1.00  0.00    -0.394 N 
ATOM      2  H11 UNL     1      14.063   7.710  27.501  1.00  0.00     0.156 HD
ATOM      3  H12 UNL     1      13.531   7.289  25.793  1.00  0.00     0.156 HD
HETATM    4  C1  UNL     1      12.355   8.411  26.920  1.00  0.00     0.113 C 
HETATM    5  C2  UNL     1      11.487   8.440  25.843  1.00  0.00     0.102 C 
HETATM    6  C4  UNL     1      10.465   9.350  25.678  1.00  0.00     0.135 C 
HETATM    7  N3  UNL     1       9.772   9.297  24.443  1.00  0.00    -0.082 NA
HETATM    8  N4  UNL     1      10.006  10.303  26.513  1.00  0.00    -0.340 N 
ATOM      9  H4  UNL     1       9.220  10.856  26.172  1.00  0.00     0.167 HD
HETATM   10  C5  UNL     1      10.462  10.617  27.760  1.00  0.00     0.184 C 
HETATM   11  N5  UNL     1      11.296   9.920  28.577  1.00  0.00    -0.318 N 
ATOM     12  H5  UNL     1      11.225  10.097  29.580  1.00  0.00     0.169 HD
HETATM   13  C6  UNL     1      12.207   9.017  28.174  1.00  0.00     0.273 C 
HETATM   14  O2  UNL     1      13.052   8.658  29.034  1.00  0.00    -0.266 OA
ENDROOT
BRANCH   5  15
HETATM   15  C3  UNL     1      11.673   7.431  24.811  1.00  0.00     0.270 C 
HETATM   16  N2  UNL     1      12.458   7.666  23.655  1.00  0.00    -0.057 NA
HETATM   17  O1  UNL     1      11.116   6.316  24.956  1.00  0.00    -0.271 OA
ENDBRANCH   5  15
TORSDOF 1
ENDMDL
