MODEL 1
REMARK VINA RESULT: -8.201394957      0.000      0.000
REMARK  9 active torsions:
REMARK  status: ('A' for Active; 'I' for Inactive)
REMARK    1  A    between atoms: C2_2  and  O1_3 
REMARK    2  A    between atoms: C2_2  and  N1_5 
REMARK    3  A    between atoms: N1_5  and  C3_7 
REMARK    4  A    between atoms: C3_7  and  O2_8 
REMARK    5  A    between atoms: C3_7  and  C4_10 
REMARK    6  A    between atoms: C4_10  and  S1_11 
REMARK    7  A    between atoms: S1_11  and  C5_12 
REMARK    8  A    between atoms: N5_17  and  C6_18 
REMARK    9  A    between atoms: C9_26  and  N8_27 
ROOT
HETATM    1  C5  UNL     1      25.471  46.546  46.655  1.00  0.00     0.195 A 
HETATM    2  N2  UNL     1      24.628  47.590  46.502  1.00  0.00    -0.264 N 
ATOM      3  H2  UNL     1      24.072  47.810  45.676  1.00  0.00     0.186 HD
HETATM    4  N3  UNL     1      24.669  48.270  47.639  1.00  0.00    -0.006 NA
HETATM    5  N4  UNL     1      25.511  47.663  48.463  1.00  0.00     0.016 NA
HETATM    6  N5  UNL     1      26.025  46.590  47.885  1.00  0.00    -0.049 N 
ENDROOT
BRANCH   6   7
HETATM    7  C6  UNL     1      26.961  45.663  48.411  1.00  0.00     0.706 A 
HETATM    8  N6  UNL     1      27.904  45.928  49.333  1.00  0.00    -0.181 N 
HETATM    9  C7  UNL     1      28.618  44.819  49.600  1.00  0.00     0.162 A 
ATOM     10  H6  UNL     1      28.055  46.838  49.768  1.00  0.00     0.184 HD
HETATM   11  C8  UNL     1      29.669  44.497  50.424  1.00  0.00     0.290 A 
HETATM   12  C10 UNL     1      28.109  43.803  48.815  1.00  0.00     0.169 A 
HETATM   13  O3  UNL     1      30.136  45.421  51.142  1.00  0.00    -0.265 OA
HETATM   14  N7  UNL     1      30.186  43.256  50.474  1.00  0.00    -0.154 N 
HETATM   15  C9  UNL     1      29.687  42.271  49.707  1.00  0.00     0.680 A 
ATOM     16  H7  UNL     1      30.967  43.060  51.101  1.00  0.00     0.187 HD
HETATM   17  N9  UNL     1      28.660  42.571  48.896  1.00  0.00    -0.174 N 
ATOM     18  H9  UNL     1      28.275  41.830  48.311  1.00  0.00     0.186 HD
HETATM   19  N10 UNL     1      27.110  44.352  48.110  1.00  0.00    -0.172 N 
ATOM     20  H10 UNL     1      26.537  43.848  47.434  1.00  0.00     0.186 HD
BRANCH  15  21
HETATM   21  N8  UNL     1      30.186  41.058  49.750  1.00  0.00    -0.234 N 
ATOM     22  H82 UNL     1      31.042  40.821  49.249  1.00  0.00     0.174 HD
ATOM     23  H81 UNL     1      29.731  40.320  50.286  1.00  0.00     0.174 HD
ENDBRANCH  15  21
ENDBRANCH   6   7
BRANCH   1  24
HETATM   24  S1  UNL     1      25.846  45.271  45.469  1.00  0.00    -0.083 SA
BRANCH  24  25
HETATM   25  C4  UNL     1      27.473  45.730  44.709  1.00  0.00     0.166 C 
BRANCH  25  26
HETATM   26  C3  UNL     1      27.239  46.704  43.636  1.00  0.00     0.127 C 
BRANCH  26  27
HETATM   27  N1  UNL     1      27.942  46.706  42.424  1.00  0.00    -0.325 N 
ATOM     28  H1  UNL     1      27.921  45.823  41.914  1.00  0.00     0.169 HD
BRANCH  27  29
HETATM   29  C2  UNL     1      28.663  47.718  41.808  1.00  0.00     0.112 C 
HETATM   30  C1  UNL     1      29.339  47.638  40.517  1.00  0.00     0.097 C 
BRANCH  29  31
HETATM   31  O1  UNL     1      28.779  48.880  42.401  1.00  0.00    -0.350 OA
ATOM     32  H1  UNL     1      28.191  49.546  42.065  1.00  0.00     0.219 HD
ENDBRANCH  29  31
ENDBRANCH  27  29
ENDBRANCH  26  27
BRANCH  26  33
HETATM   33  O2  UNL     1      26.332  47.621  43.809  1.00  0.00    -0.349 OA
ATOM     34  H2  UNL     1      25.651  47.452  44.450  1.00  0.00     0.219 HD
ENDBRANCH  26  33
ENDBRANCH  25  26
ENDBRANCH  24  25
ENDBRANCH   1  24
TORSDOF 9
ENDMDL
MODEL 2
REMARK VINA RESULT: -8.197360982      3.208      4.064
REMARK  9 active torsions:
REMARK  status: ('A' for Active; 'I' for Inactive)
REMARK    1  A    between atoms: C2_2  and  O1_3 
REMARK    2  A    between atoms: C2_2  and  N1_5 
REMARK    3  A    between atoms: N1_5  and  C3_7 
REMARK    4  A    between atoms: C3_7  and  O2_8 
REMARK    5  A    between atoms: C3_7  and  C4_10 
REMARK    6  A    between atoms: C4_10  and  S1_11 
REMARK    7  A    between atoms: S1_11  and  C5_12 
REMARK    8  A    between atoms: N5_17  and  C6_18 
REMARK    9  A    between atoms: C9_26  and  N8_27 
ROOT
HETATM    1  C5  UNL     1      25.524  46.550  46.659  1.00  0.00     0.195 A 
HETATM    2  N2  UNL     1      24.664  47.578  46.501  1.00  0.00    -0.264 N 
ATOM      3  H2  UNL     1      24.126  47.802  45.664  1.00  0.00     0.186 HD
HETATM    4  N3  UNL     1      24.657  48.238  47.651  1.00  0.00    -0.006 NA
HETATM    5  N4  UNL     1      25.489  47.633  48.489  1.00  0.00     0.016 NA
HETATM    6  N5  UNL     1      26.042  46.583  47.905  1.00  0.00    -0.049 N 
ENDROOT
BRANCH   6   7
HETATM    7  C6  UNL     1      26.983  45.666  48.442  1.00  0.00     0.706 A 
HETATM    8  N6  UNL     1      27.926  45.946  49.359  1.00  0.00    -0.181 N 
HETATM    9  C7  UNL     1      28.645  44.844  49.638  1.00  0.00     0.162 A 
ATOM     10  H6  UNL     1      28.074  46.862  49.783  1.00  0.00     0.184 HD
HETATM   11  C8  UNL     1      29.699  44.537  50.465  1.00  0.00     0.290 A 
HETATM   12  C10 UNL     1      28.140  43.816  48.867  1.00  0.00     0.169 A 
HETATM   13  O3  UNL     1      30.162  45.470  51.171  1.00  0.00    -0.265 OA
HETATM   14  N7  UNL     1      30.222  43.298  50.529  1.00  0.00    -0.154 N 
HETATM   15  C9  UNL     1      29.726  42.302  49.774  1.00  0.00     0.680 A 
ATOM     16  H7  UNL     1      31.004  43.113  51.157  1.00  0.00     0.187 HD
HETATM   17  N9  UNL     1      28.696  42.588  48.962  1.00  0.00    -0.174 N 
ATOM     18  H9  UNL     1      28.314  41.838  48.385  1.00  0.00     0.186 HD
HETATM   19  N10 UNL     1      27.138  44.352  48.156  1.00  0.00    -0.172 N 
ATOM     20  H10 UNL     1      26.566  43.837  47.487  1.00  0.00     0.186 HD
BRANCH  15  21
HETATM   21  N8  UNL     1      30.231  41.092  49.831  1.00  0.00    -0.234 N 
ATOM     22  H82 UNL     1      30.227  40.558  50.700  1.00  0.00     0.174 HD
ATOM     23  H81 UNL     1      30.642  40.653  49.008  1.00  0.00     0.174 HD
ENDBRANCH  15  21
ENDBRANCH   6   7
BRANCH   1  24
HETATM   24  S1  UNL     1      25.961  45.306  45.462  1.00  0.00    -0.083 SA
BRANCH  24  25
HETATM   25  C4  UNL     1      24.466  44.228  45.263  1.00  0.00     0.166 C 
BRANCH  25  26
HETATM   26  C3  UNL     1      24.514  43.158  46.268  1.00  0.00     0.127 C 
BRANCH  26  27
HETATM   27  N1  UNL     1      24.733  41.811  45.954  1.00  0.00    -0.325 N 
ATOM     28  H1  UNL     1      24.117  41.431  45.236  1.00  0.00     0.169 HD
BRANCH  27  29
HETATM   29  C2  UNL     1      25.655  40.911  46.466  1.00  0.00     0.112 C 
HETATM   30  C1  UNL     1      25.519  39.458  46.506  1.00  0.00     0.097 C 
BRANCH  29  31
HETATM   31  O1  UNL     1      26.776  41.357  46.977  1.00  0.00    -0.350 OA
ATOM     32  H1  UNL     1      27.544  41.165  46.451  1.00  0.00     0.219 HD
ENDBRANCH  29  31
ENDBRANCH  27  29
ENDBRANCH  26  27
BRANCH  26  33
HETATM   33  O2  UNL     1      24.343  43.468  47.520  1.00  0.00    -0.349 OA
ATOM     34  H2  UNL     1      24.169  44.378  47.730  1.00  0.00     0.219 HD
ENDBRANCH  26  33
ENDBRANCH  25  26
ENDBRANCH  24  25
ENDBRANCH   1  24
TORSDOF 9
ENDMDL
MODEL 3
REMARK VINA RESULT: -8.151363386      2.175      2.485
REMARK  9 active torsions:
REMARK  status: ('A' for Active; 'I' for Inactive)
REMARK    1  A    between atoms: C2_2  and  O1_3 
REMARK    2  A    between atoms: C2_2  and  N1_5 
REMARK    3  A    between atoms: N1_5  and  C3_7 
REMARK    4  A    between atoms: C3_7  and  O2_8 
REMARK    5  A    between atoms: C3_7  and  C4_10 
REMARK    6  A    between atoms: C4_10  and  S1_11 
REMARK    7  A    between atoms: S1_11  and  C5_12 
REMARK    8  A    between atoms: N5_17  and  C6_18 
REMARK    9  A    between atoms: C9_26  and  N8_27 
ROOT
HETATM    1  C5  UNL     1      26.016  46.404  46.144  1.00  0.00     0.195 A 
HETATM    2  N2  UNL     1      25.028  47.293  45.906  1.00  0.00    -0.264 N 
ATOM      3  H2  UNL     1      24.726  47.643  44.997  1.00  0.00     0.186 HD
HETATM    4  N3  UNL     1      24.530  47.620  47.090  1.00  0.00    -0.006 NA
HETATM    5  N4  UNL     1      25.192  46.952  48.025  1.00  0.00     0.016 NA
HETATM    6  N5  UNL     1      26.119  46.189  47.472  1.00  0.00    -0.049 N 
ENDROOT
BRANCH   6   7
HETATM    7  C6  UNL     1      27.044  45.319  48.107  1.00  0.00     0.706 A 
HETATM    8  N6  UNL     1      27.890  45.651  49.098  1.00  0.00    -0.181 N 
HETATM    9  C7  UNL     1      28.623  44.582  49.460  1.00  0.00     0.162 A 
ATOM     10  H6  UNL     1      27.964  46.578  49.515  1.00  0.00     0.184 HD
HETATM   11  C8  UNL     1      29.611  44.330  50.382  1.00  0.00     0.290 A 
HETATM   12  C10 UNL     1      28.228  43.523  48.667  1.00  0.00     0.169 A 
HETATM   13  O3  UNL     1      29.973  45.293  51.108  1.00  0.00    -0.265 OA
HETATM   14  N7  UNL     1      30.173  43.115  50.515  1.00  0.00    -0.154 N 
HETATM   15  C9  UNL     1      29.785  42.088  49.739  1.00  0.00     0.680 A 
ATOM     16  H7  UNL     1      30.903  42.972  51.213  1.00  0.00     0.187 HD
HETATM   17  N9  UNL     1      28.821  42.320  48.833  1.00  0.00    -0.174 N 
ATOM     18  H9  UNL     1      28.521  41.547  48.240  1.00  0.00     0.186 HD
HETATM   19  N10 UNL     1      27.273  44.008  47.860  1.00  0.00    -0.172 N 
ATOM     20  H10 UNL     1      26.783  43.460  47.154  1.00  0.00     0.186 HD
BRANCH  15  21
HETATM   21  N8  UNL     1      30.329  40.901  49.863  1.00  0.00    -0.234 N 
ATOM     22  H82 UNL     1      31.052  40.580  49.219  1.00  0.00     0.174 HD
ATOM     23  H81 UNL     1      30.042  40.265  50.607  1.00  0.00     0.174 HD
ENDBRANCH  15  21
ENDBRANCH   6   7
BRANCH   1  24
HETATM   24  S1  UNL     1      27.061  45.598  44.948  1.00  0.00    -0.083 SA
BRANCH  24  25
HETATM   25  C4  UNL     1      25.982  44.396  44.039  1.00  0.00     0.166 C 
BRANCH  25  26
HETATM   26  C3  UNL     1      25.388  45.072  42.880  1.00  0.00     0.127 C 
BRANCH  26  27
HETATM   27  N1  UNL     1      25.516  44.610  41.563  1.00  0.00    -0.325 N 
ATOM     28  H1  UNL     1      26.460  44.336  41.295  1.00  0.00     0.169 HD
BRANCH  27  29
HETATM   29  C2  UNL     1      24.562  44.466  40.568  1.00  0.00     0.112 C 
HETATM   30  C1  UNL     1      24.366  43.296  39.717  1.00  0.00     0.097 C 
BRANCH  29  31
HETATM   31  O1  UNL     1      23.728  45.447  40.327  1.00  0.00    -0.350 OA
ATOM     32  H1  UNL     1      24.055  46.303  40.577  1.00  0.00     0.219 HD
ENDBRANCH  29  31
ENDBRANCH  27  29
ENDBRANCH  26  27
BRANCH  26  33
HETATM   33  O2  UNL     1      24.703  46.162  43.073  1.00  0.00    -0.349 OA
ATOM     34  H2  UNL     1      23.837  46.077  43.453  1.00  0.00     0.219 HD
ENDBRANCH  26  33
ENDBRANCH  25  26
ENDBRANCH  24  25
ENDBRANCH   1  24
TORSDOF 9
ENDMDL
MODEL 4
REMARK VINA RESULT: -8.066603677      2.893      6.843
REMARK  9 active torsions:
REMARK  status: ('A' for Active; 'I' for Inactive)
REMARK    1  A    between atoms: C2_2  and  O1_3 
REMARK    2  A    between atoms: C2_2  and  N1_5 
REMARK    3  A    between atoms: N1_5  and  C3_7 
REMARK    4  A    between atoms: C3_7  and  O2_8 
REMARK    5  A    between atoms: C3_7  and  C4_10 
REMARK    6  A    between atoms: C4_10  and  S1_11 
REMARK    7  A    between atoms: S1_11  and  C5_12 
REMARK    8  A    between atoms: N5_17  and  C6_18 
REMARK    9  A    between atoms: C9_26  and  N8_27 
ROOT
HETATM    1  C5  UNL     1      26.936  46.877  48.972  1.00  0.00     0.195 A 
HETATM    2  N2  UNL     1      27.036  47.846  49.906  1.00  0.00    -0.264 N 
ATOM      3  H2  UNL     1      27.451  47.760  50.834  1.00  0.00     0.186 HD
HETATM    4  N3  UNL     1      26.487  48.931  49.378  1.00  0.00    -0.006 NA
HETATM    5  N4  UNL     1      26.063  48.636  48.156  1.00  0.00     0.016 NA
HETATM    6  N5  UNL     1      26.327  47.371  47.873  1.00  0.00    -0.049 N 
ENDROOT
BRANCH   6   7
HETATM    7  C6  UNL     1      26.044  46.653  46.682  1.00  0.00     0.706 A 
HETATM    8  N6  UNL     1      25.320  45.523  46.594  1.00  0.00    -0.181 N 
HETATM    9  C7  UNL     1      25.255  45.112  45.314  1.00  0.00     0.162 A 
ATOM     10  H6  UNL     1      24.884  45.046  47.383  1.00  0.00     0.184 HD
HETATM   11  C8  UNL     1      24.676  44.061  44.644  1.00  0.00     0.290 A 
HETATM   12  C10 UNL     1      25.966  46.019  44.554  1.00  0.00     0.169 A 
HETATM   13  O3  UNL     1      24.026  43.232  45.333  1.00  0.00    -0.265 OA
HETATM   14  N7  UNL     1      24.789  43.913  43.311  1.00  0.00    -0.154 N 
HETATM   15  C9  UNL     1      25.483  44.799  42.576  1.00  0.00     0.680 A 
ATOM     16  H7  UNL     1      24.342  43.118  42.853  1.00  0.00     0.187 HD
HETATM   17  N9  UNL     1      26.054  45.830  43.218  1.00  0.00    -0.174 N 
ATOM     18  H9  UNL     1      26.583  46.507  42.668  1.00  0.00     0.186 HD
HETATM   19  N10 UNL     1      26.429  46.935  45.416  1.00  0.00    -0.172 N 
ATOM     20  H10 UNL     1      26.997  47.739  45.152  1.00  0.00     0.186 HD
BRANCH  15  21
HETATM   21  N8  UNL     1      25.597  44.660  41.276  1.00  0.00    -0.234 N 
ATOM     22  H82 UNL     1      25.266  45.382  40.636  1.00  0.00     0.174 HD
ATOM     23  H81 UNL     1      26.019  43.825  40.870  1.00  0.00     0.174 HD
ENDBRANCH  15  21
ENDBRANCH   6   7
BRANCH   1  24
HETATM   24  S1  UNL     1      27.496  45.190  49.093  1.00  0.00    -0.083 SA
BRANCH  24  25
HETATM   25  C4  UNL     1      29.037  45.226  50.122  1.00  0.00     0.166 C 
BRANCH  25  26
HETATM   26  C3  UNL     1      29.776  43.974  49.916  1.00  0.00     0.127 C 
BRANCH  26  27
HETATM   27  N1  UNL     1      29.225  42.842  49.302  1.00  0.00    -0.325 N 
ATOM     28  H1  UNL     1      28.249  42.937  49.023  1.00  0.00     0.169 HD
BRANCH  27  29
HETATM   29  C2  UNL     1      29.796  41.611  49.015  1.00  0.00     0.112 C 
HETATM   30  C1  UNL     1      29.929  41.004  47.694  1.00  0.00     0.097 C 
BRANCH  29  31
HETATM   31  O1  UNL     1      30.281  40.882  49.989  1.00  0.00    -0.350 OA
ATOM     32  H1  UNL     1      30.098  41.224  50.856  1.00  0.00     0.219 HD
ENDBRANCH  29  31
ENDBRANCH  27  29
ENDBRANCH  26  27
BRANCH  26  33
HETATM   33  O2  UNL     1      31.010  43.901  50.321  1.00  0.00    -0.349 OA
ATOM     34  H2  UNL     1      31.682  43.759  49.665  1.00  0.00     0.219 HD
ENDBRANCH  26  33
ENDBRANCH  25  26
ENDBRANCH  24  25
ENDBRANCH   1  24
TORSDOF 9
ENDMDL
MODEL 5
REMARK VINA RESULT: -7.987426570      1.271      1.695
REMARK  9 active torsions:
REMARK  status: ('A' for Active; 'I' for Inactive)
REMARK    1  A    between atoms: C2_2  and  O1_3 
REMARK    2  A    between atoms: C2_2  and  N1_5 
REMARK    3  A    between atoms: N1_5  and  C3_7 
REMARK    4  A    between atoms: C3_7  and  O2_8 
REMARK    5  A    between atoms: C3_7  and  C4_10 
REMARK    6  A    between atoms: C4_10  and  S1_11 
REMARK    7  A    between atoms: S1_11  and  C5_12 
REMARK    8  A    between atoms: N5_17  and  C6_18 
REMARK    9  A    between atoms: C9_26  and  N8_27 
ROOT
HETATM    1  C5  UNL     1      25.423  46.536  46.727  1.00  0.00     0.195 A 
HETATM    2  N2  UNL     1      24.594  47.588  46.562  1.00  0.00    -0.264 N 
ATOM      3  H2  UNL     1      24.010  47.785  45.750  1.00  0.00     0.186 HD
HETATM    4  N3  UNL     1      24.690  48.314  47.667  1.00  0.00    -0.006 NA
HETATM    5  N4  UNL     1      25.553  47.725  48.484  1.00  0.00     0.016 NA
HETATM    6  N5  UNL     1      26.025  46.620  47.932  1.00  0.00    -0.049 N 
ENDROOT
BRANCH   6   7
HETATM    7  C6  UNL     1      26.964  45.697  48.462  1.00  0.00     0.706 A 
HETATM    8  N6  UNL     1      27.920  45.973  49.366  1.00  0.00    -0.181 N 
HETATM    9  C7  UNL     1      28.632  44.865  49.642  1.00  0.00     0.162 A 
ATOM     10  H6  UNL     1      28.082  46.889  49.783  1.00  0.00     0.184 HD
HETATM   11  C8  UNL     1      29.694  44.552  50.457  1.00  0.00     0.290 A 
HETATM   12  C10 UNL     1      28.108  43.838  48.882  1.00  0.00     0.169 A 
HETATM   13  O3  UNL     1      30.174  45.485  51.152  1.00  0.00    -0.265 OA
HETATM   14  N7  UNL     1      30.206  43.309  50.521  1.00  0.00    -0.154 N 
HETATM   15  C9  UNL     1      29.691  42.314  49.777  1.00  0.00     0.680 A 
ATOM     16  H7  UNL     1      30.993  43.120  51.140  1.00  0.00     0.187 HD
HETATM   17  N9  UNL     1      28.654  42.605  48.976  1.00  0.00    -0.174 N 
ATOM     18  H9  UNL     1      28.258  41.856  48.408  1.00  0.00     0.186 HD
HETATM   19  N10 UNL     1      27.102  44.380  48.180  1.00  0.00    -0.172 N 
ATOM     20  H10 UNL     1      26.517  43.867  47.521  1.00  0.00     0.186 HD
BRANCH  15  21
HETATM   21  N8  UNL     1      30.185  41.100  49.834  1.00  0.00    -0.234 N 
ATOM     22  H82 UNL     1      30.326  40.628  50.727  1.00  0.00     0.174 HD
ATOM     23  H81 UNL     1      30.444  40.595  48.987  1.00  0.00     0.174 HD
ENDBRANCH  15  21
ENDBRANCH   6   7
BRANCH   1  24
HETATM   24  S1  UNL     1      25.729  45.205  45.583  1.00  0.00    -0.083 SA
BRANCH  24  25
HETATM   25  C4  UNL     1      27.366  45.566  44.792  1.00  0.00     0.166 C 
BRANCH  25  26
HETATM   26  C3  UNL     1      27.142  46.335  43.562  1.00  0.00     0.127 C 
BRANCH  26  27
HETATM   27  N1  UNL     1      27.091  45.759  42.286  1.00  0.00    -0.325 N 
ATOM     28  H1  UNL     1      27.906  45.942  41.701  1.00  0.00     0.169 HD
BRANCH  27  29
HETATM   29  C2  UNL     1      26.109  44.981  41.693  1.00  0.00     0.112 C 
HETATM   30  C1  UNL     1      26.323  43.808  40.850  1.00  0.00     0.097 C 
BRANCH  29  31
HETATM   31  O1  UNL     1      24.848  45.286  41.875  1.00  0.00    -0.350 OA
ATOM     32  H1  UNL     1      24.701  46.189  42.127  1.00  0.00     0.219 HD
ENDBRANCH  29  31
ENDBRANCH  27  29
ENDBRANCH  26  27
BRANCH  26  33
HETATM   33  O2  UNL     1      26.980  47.624  43.651  1.00  0.00    -0.349 OA
ATOM     34  H2  UNL     1      27.393  48.071  44.380  1.00  0.00     0.219 HD
ENDBRANCH  26  33
ENDBRANCH  25  26
ENDBRANCH  24  25
ENDBRANCH   1  24
TORSDOF 9
ENDMDL
