MODEL 1
REMARK VINA RESULT: -7.498884595      0.000      0.000
REMARK  1 active torsions:
REMARK  status: ('A' for Active; 'I' for Inactive)
REMARK    1  A    between atoms: N2_5  and  C4_6 
ROOT
HETATM    1  N1  UNL     1      36.005  75.732  59.379  1.00  0.00    -0.190 NA
HETATM    2  C1  UNL     1      36.900  74.999  59.383  1.00  0.00     0.119 C 
HETATM    3  C2  UNL     1      38.028  74.085  59.366  1.00  0.00     0.131 A 
HETATM    4  C3  UNL     1      38.102  72.922  58.642  1.00  0.00     0.135 A 
HETATM    5  N2  UNL     1      39.288  72.327  58.864  1.00  0.00    -0.326 N 
HETATM    6  C10 UNL     1      39.943  73.126  59.725  1.00  0.00     0.179 A 
HETATM    7  S1  UNL     1      41.446  72.918  60.364  1.00  0.00    -0.040 SA
HETATM    8  N3  UNL     1      39.186  74.193  60.033  1.00  0.00    -0.323 N 
ATOM      9  H3  UNL     1      39.446  74.950  60.665  1.00  0.00     0.169 HD
ENDROOT
BRANCH   5  10
HETATM   10  C4  UNL     1      39.764  71.100  58.305  1.00  0.00     0.092 C 
HETATM   11  C5  UNL     1      40.259  70.127  59.352  1.00  0.00     0.026 C 
HETATM   12  C6  UNL     1      41.235  69.188  58.641  1.00  0.00     0.002 C 
HETATM   13  C7  UNL     1      40.848  69.009  57.184  1.00  0.00     0.000 C 
HETATM   14  C8  UNL     1      39.354  69.083  56.988  1.00  0.00     0.002 C 
HETATM   15  C9  UNL     1      38.762  70.384  57.448  1.00  0.00     0.026 C 
ENDBRANCH   5  10
TORSDOF 1
ENDMDL
MODEL 2
REMARK VINA RESULT: -7.322755206      2.649      5.076
REMARK  1 active torsions:
REMARK  status: ('A' for Active; 'I' for Inactive)
REMARK    1  A    between atoms: N2_5  and  C4_6 
ROOT
HETATM    1  N1  UNL     1      39.353  68.586  56.367  1.00  0.00    -0.190 NA
HETATM    2  C1  UNL     1      39.212  69.467  57.102  1.00  0.00     0.119 C 
HETATM    3  C2  UNL     1      39.058  70.579  58.023  1.00  0.00     0.131 A 
HETATM    4  C3  UNL     1      39.638  70.676  59.263  1.00  0.00     0.135 A 
HETATM    5  N2  UNL     1      39.279  71.838  59.839  1.00  0.00    -0.326 N 
HETATM    6  C10 UNL     1      38.478  72.454  58.952  1.00  0.00     0.179 A 
HETATM    7  S1  UNL     1      37.731  73.914  59.099  1.00  0.00    -0.040 SA
HETATM    8  N3  UNL     1      38.339  71.698  57.850  1.00  0.00    -0.323 N 
ATOM      9  H3  UNL     1      37.785  71.934  57.028  1.00  0.00     0.169 HD
ENDROOT
BRANCH   5  10
HETATM   10  C4  UNL     1      39.665  72.325  61.126  1.00  0.00     0.092 C 
HETATM   11  C5  UNL     1      39.526  71.286  62.218  1.00  0.00     0.026 C 
HETATM   12  C6  UNL     1      39.386  72.055  63.531  1.00  0.00     0.002 C 
HETATM   13  C7  UNL     1      40.137  73.373  63.468  1.00  0.00     0.000 C 
HETATM   14  C8  UNL     1      41.367  73.277  62.600  1.00  0.00     0.002 C 
HETATM   15  C9  UNL     1      41.061  72.871  61.187  1.00  0.00     0.026 C 
ENDBRANCH   5  10
TORSDOF 1
ENDMDL
MODEL 3
REMARK VINA RESULT: -7.184854839      2.751      5.505
REMARK  1 active torsions:
REMARK  status: ('A' for Active; 'I' for Inactive)
REMARK    1  A    between atoms: N2_5  and  C4_6 
ROOT
HETATM    1  N1  UNL     1      41.555  68.019  56.647  1.00  0.00    -0.190 NA
HETATM    2  C1  UNL     1      41.054  68.851  57.275  1.00  0.00     0.119 C 
HETATM    3  C2  UNL     1      40.444  69.908  58.061  1.00  0.00     0.131 A 
HETATM    4  C3  UNL     1      40.870  70.335  59.294  1.00  0.00     0.135 A 
HETATM    5  N2  UNL     1      40.073  71.329  59.727  1.00  0.00    -0.326 N 
HETATM    6  C10 UNL     1      39.157  71.512  58.761  1.00  0.00     0.179 A 
HETATM    7  S1  UNL     1      37.916  72.593  58.727  1.00  0.00    -0.040 SA
HETATM    8  N3  UNL     1      39.374  70.655  57.748  1.00  0.00    -0.323 N 
ATOM      9  H3  UNL     1      38.823  70.585  56.893  1.00  0.00     0.169 HD
ENDROOT
BRANCH   5  10
HETATM   10  C4  UNL     1      40.172  72.047  60.959  1.00  0.00     0.092 C 
HETATM   11  C5  UNL     1      39.797  71.211  62.163  1.00  0.00     0.026 C 
HETATM   12  C6  UNL     1      39.378  72.192  63.257  1.00  0.00     0.002 C 
HETATM   13  C7  UNL     1      40.128  73.505  63.122  1.00  0.00     0.000 C 
HETATM   14  C8  UNL     1      41.517  73.302  62.568  1.00  0.00     0.002 C 
HETATM   15  C9  UNL     1      41.523  72.645  61.218  1.00  0.00     0.026 C 
ENDBRANCH   5  10
TORSDOF 1
ENDMDL
MODEL 4
REMARK VINA RESULT: -7.122830587      2.142      5.279
REMARK  1 active torsions:
REMARK  status: ('A' for Active; 'I' for Inactive)
REMARK    1  A    between atoms: N2_5  and  C4_6 
ROOT
HETATM    1  N1  UNL     1      41.842  68.039  57.046  1.00  0.00    -0.190 NA
HETATM    2  C1  UNL     1      41.164  68.769  57.633  1.00  0.00     0.119 C 
HETATM    3  C2  UNL     1      40.294  69.677  58.360  1.00  0.00     0.131 A 
HETATM    4  C3  UNL     1      39.615  70.738  57.816  1.00  0.00     0.135 A 
HETATM    5  N2  UNL     1      38.907  71.360  58.776  1.00  0.00    -0.326 N 
HETATM    6  C10 UNL     1      39.152  70.680  59.910  1.00  0.00     0.179 A 
HETATM    7  S1  UNL     1      38.563  70.973  61.419  1.00  0.00    -0.040 SA
HETATM    8  N3  UNL     1      39.991  69.659  59.666  1.00  0.00    -0.323 N 
ATOM      9  H3  UNL     1      40.336  68.990  60.353  1.00  0.00     0.169 HD
ENDROOT
BRANCH   5  10
HETATM   10  C4  UNL     1      38.067  72.507  58.631  1.00  0.00     0.092 C 
HETATM   11  C5  UNL     1      38.689  73.771  59.183  1.00  0.00     0.026 C 
HETATM   12  C6  UNL     1      37.533  74.718  59.504  1.00  0.00     0.002 C 
HETATM   13  C7  UNL     1      36.366  74.484  58.561  1.00  0.00     0.000 C 
HETATM   14  C8  UNL     1      36.829  74.048  57.193  1.00  0.00     0.002 C 
HETATM   15  C9  UNL     1      37.639  72.784  57.220  1.00  0.00     0.026 C 
ENDBRANCH   5  10
TORSDOF 1
ENDMDL
MODEL 5
REMARK VINA RESULT: -7.005337984      3.317      4.937
REMARK  1 active torsions:
REMARK  status: ('A' for Active; 'I' for Inactive)
REMARK    1  A    between atoms: N2_5  and  C4_6 
ROOT
HETATM    1  N1  UNL     1      45.389  74.682  62.768  1.00  0.00    -0.190 NA
HETATM    2  C1  UNL     1      44.334  74.248  62.583  1.00  0.00     0.119 C 
HETATM    3  C2  UNL     1      43.017  73.683  62.345  1.00  0.00     0.131 A 
HETATM    4  C3  UNL     1      42.522  73.298  61.124  1.00  0.00     0.135 A 
HETATM    5  N2  UNL     1      41.274  72.819  61.274  1.00  0.00    -0.326 N 
HETATM    6  C10 UNL     1      41.003  72.910  62.588  1.00  0.00     0.179 A 
HETATM    7  S1  UNL     1      39.623  72.475  63.375  1.00  0.00    -0.040 SA
HETATM    8  N3  UNL     1      42.054  73.432  63.243  1.00  0.00    -0.323 N 
ATOM      9  H3  UNL     1      42.108  73.607  64.246  1.00  0.00     0.169 HD
ENDROOT
BRANCH   5  10
HETATM   10  C4  UNL     1      40.408  72.316  60.255  1.00  0.00     0.092 C 
HETATM   11  C5  UNL     1      40.032  73.362  59.229  1.00  0.00     0.026 C 
HETATM   12  C6  UNL     1      38.717  72.898  58.602  1.00  0.00     0.002 C 
HETATM   13  C7  UNL     1      38.627  71.383  58.592  1.00  0.00     0.000 C 
HETATM   14  C8  UNL     1      39.984  70.742  58.433  1.00  0.00     0.002 C 
HETATM   15  C9  UNL     1      40.948  71.124  59.520  1.00  0.00     0.026 C 
ENDBRANCH   5  10
TORSDOF 1
ENDMDL
