MODEL 1
REMARK VINA RESULT: -7.489466021      0.000      0.000
REMARK  3 active torsions:
REMARK  status: ('A' for Active; 'I' for Inactive)
REMARK    1  A    between atoms: C3_6  and  C4_7 
REMARK    2  A    between atoms: C4_7  and  C5_9 
REMARK    3  A    between atoms: C5_9  and  O1_11 
ROOT
HETATM    1  N1  UNL     1      15.384  -3.161  12.052  1.00  0.00    -0.113 NA
HETATM    2  C1  UNL     1      15.249  -4.203  11.095  1.00  0.00     0.133 C 
HETATM    3  C2  UNL     1      16.034  -4.264  10.024  1.00  0.00     0.103 A 
HETATM    4  N2  UNL     1      16.985  -3.363   9.776  1.00  0.00    -0.337 N 
ATOM      5  H2  UNL     1      17.114  -2.597  10.437  1.00  0.00     0.167 HD
HETATM    6  C3  UNL     1      17.799  -3.421   8.671  1.00  0.00     0.137 A 
HETATM    7  N5  UNL     1      17.660  -4.410   7.778  1.00  0.00    -0.304 N 
ATOM      8  H5  UNL     1      18.260  -4.459   6.955  1.00  0.00     0.171 HD
HETATM    9  C6  UNL     1      16.694  -5.352   8.000  1.00  0.00     0.299 A 
HETATM   10  O2  UNL     1      16.565  -6.278   7.165  1.00  0.00    -0.264 OA
HETATM   11  C7  UNL     1      15.891  -5.280   9.108  1.00  0.00     0.267 A 
HETATM   12  O3  UNL     1      14.984  -6.143   9.339  1.00  0.00    -0.280 OA
ENDROOT
BRANCH   6  13
HETATM   13  C4  UNL     1      18.708  -2.477   8.524  1.00  0.00     0.138 C 
HETATM   14  N3  UNL     1      18.175  -1.130   8.367  1.00  0.00    -0.094 NA
BRANCH  13  15
HETATM   15  C5  UNL     1      20.133  -2.555   8.493  1.00  0.00     0.178 C 
HETATM   16  N4  UNL     1      21.005  -3.262   9.353  1.00  0.00    -0.073 NA
BRANCH  15  17
HETATM   17  O1  UNL     1      20.723  -1.888   7.545  1.00  0.00    -0.347 OA
ATOM     18  H1  UNL     1      20.159  -1.547   6.860  1.00  0.00     0.219 HD
ENDBRANCH  15  17
ENDBRANCH  13  15
ENDBRANCH   6  13
TORSDOF 3
ENDMDL
MODEL 2
REMARK VINA RESULT: -7.426314761      1.380      1.747
REMARK  3 active torsions:
REMARK  status: ('A' for Active; 'I' for Inactive)
REMARK    1  A    between atoms: C3_6  and  C4_7 
REMARK    2  A    between atoms: C4_7  and  C5_9 
REMARK    3  A    between atoms: C5_9  and  O1_11 
ROOT
HETATM    1  N1  UNL     1      15.924  -1.769  11.334  1.00  0.00    -0.113 NA
HETATM    2  C1  UNL     1      15.332  -2.853  10.631  1.00  0.00     0.133 C 
HETATM    3  C2  UNL     1      16.072  -3.720   9.946  1.00  0.00     0.103 A 
HETATM    4  N2  UNL     1      17.400  -3.630   9.871  1.00  0.00    -0.337 N 
ATOM      5  H2  UNL     1      17.865  -2.865  10.360  1.00  0.00     0.167 HD
HETATM    6  C3  UNL     1      18.170  -4.522   9.165  1.00  0.00     0.137 A 
HETATM    7  N5  UNL     1      17.597  -5.539   8.508  1.00  0.00    -0.304 N 
ATOM      8  H5  UNL     1      18.162  -6.205   7.980  1.00  0.00     0.171 HD
HETATM    9  C6  UNL     1      16.237  -5.661   8.562  1.00  0.00     0.299 A 
HETATM   10  O2  UNL     1      15.701  -6.614   7.947  1.00  0.00    -0.264 OA
HETATM   11  C7  UNL     1      15.483  -4.763   9.272  1.00  0.00     0.267 A 
HETATM   12  O3  UNL     1      14.215  -4.853   9.339  1.00  0.00    -0.280 OA
ENDROOT
BRANCH   6  13
HETATM   13  C4  UNL     1      19.477  -4.340   9.159  1.00  0.00     0.138 C 
HETATM   14  N3  UNL     1      20.258  -5.490   9.595  1.00  0.00    -0.094 NA
BRANCH  13  15
HETATM   15  C5  UNL     1      20.255  -3.200   8.794  1.00  0.00     0.178 C 
HETATM   16  N4  UNL     1      21.632  -2.959   9.002  1.00  0.00    -0.073 NA
BRANCH  15  17
HETATM   17  O1  UNL     1      19.618  -2.244   8.184  1.00  0.00    -0.347 OA
ATOM     18  H1  UNL     1      19.565  -2.314   7.237  1.00  0.00     0.219 HD
ENDBRANCH  15  17
ENDBRANCH  13  15
ENDBRANCH   6  13
TORSDOF 3
ENDMDL
MODEL 3
REMARK VINA RESULT: -7.287103463      2.445      4.760
REMARK  3 active torsions:
REMARK  status: ('A' for Active; 'I' for Inactive)
REMARK    1  A    between atoms: C3_6  and  C4_7 
REMARK    2  A    between atoms: C4_7  and  C5_9 
REMARK    3  A    between atoms: C5_9  and  O1_11 
ROOT
HETATM    1  N1  UNL     1      21.339  -1.397   7.180  1.00  0.00    -0.113 NA
HETATM    2  C1  UNL     1      21.411  -2.706   7.728  1.00  0.00     0.133 C 
HETATM    3  C2  UNL     1      20.363  -3.264   8.328  1.00  0.00     0.103 A 
HETATM    4  N2  UNL     1      19.191  -2.641   8.455  1.00  0.00    -0.337 N 
ATOM      5  H2  UNL     1      19.097  -1.698   8.077  1.00  0.00     0.167 HD
HETATM    6  C3  UNL     1      18.105  -3.212   9.073  1.00  0.00     0.137 A 
HETATM    7  N5  UNL     1      18.189  -4.447   9.585  1.00  0.00    -0.304 N 
ATOM      8  H5  UNL     1      17.387  -4.877  10.046  1.00  0.00     0.171 HD
HETATM    9  C6  UNL     1      19.376  -5.116   9.473  1.00  0.00     0.299 A 
HETATM   10  O2  UNL     1      19.454  -6.272   9.952  1.00  0.00    -0.264 OA
HETATM   11  C7  UNL     1      20.450  -4.532   8.853  1.00  0.00     0.267 A 
HETATM   12  O3  UNL     1      21.567  -5.131   8.735  1.00  0.00    -0.280 OA
ENDROOT
BRANCH   6  13
HETATM   13  C4  UNL     1      16.993  -2.506   9.143  1.00  0.00     0.138 C 
HETATM   14  N3  UNL     1      16.996  -1.277   8.360  1.00  0.00    -0.094 NA
BRANCH  13  15
HETATM   15  C5  UNL     1      15.782  -2.747   9.860  1.00  0.00     0.178 C 
HETATM   16  N4  UNL     1      14.989  -3.916   9.901  1.00  0.00    -0.073 NA
BRANCH  15  17
HETATM   17  O1  UNL     1      15.338  -1.760  10.581  1.00  0.00    -0.347 OA
ATOM     18  H1  UNL     1      15.576  -1.773  11.501  1.00  0.00     0.219 HD
ENDBRANCH  15  17
ENDBRANCH  13  15
ENDBRANCH   6  13
TORSDOF 3
ENDMDL
MODEL 4
REMARK VINA RESULT: -7.182157953      1.078      1.085
REMARK  3 active torsions:
REMARK  status: ('A' for Active; 'I' for Inactive)
REMARK    1  A    between atoms: C3_6  and  C4_7 
REMARK    2  A    between atoms: C4_7  and  C5_9 
REMARK    3  A    between atoms: C5_9  and  O1_11 
ROOT
HETATM    1  N1  UNL     1      15.535  -2.223  11.454  1.00  0.00    -0.113 NA
HETATM    2  C1  UNL     1      15.227  -3.308  10.590  1.00  0.00     0.133 C 
HETATM    3  C2  UNL     1      16.120  -3.778   9.724  1.00  0.00     0.103 A 
HETATM    4  N2  UNL     1      17.346  -3.269   9.608  1.00  0.00    -0.337 N 
ATOM      5  H2  UNL     1      17.608  -2.487  10.208  1.00  0.00     0.167 HD
HETATM    6  C3  UNL     1      18.273  -3.750   8.715  1.00  0.00     0.137 A 
HETATM    7  N5  UNL     1      17.968  -4.773   7.907  1.00  0.00    -0.304 N 
ATOM      8  H5  UNL     1      18.650  -5.135   7.241  1.00  0.00     0.171 HD
HETATM    9  C6  UNL     1      16.718  -5.320   7.999  1.00  0.00     0.299 A 
HETATM   10  O2  UNL     1      16.433  -6.280   7.243  1.00  0.00    -0.264 OA
HETATM   11  C7  UNL     1      15.805  -4.829   8.895  1.00  0.00     0.267 A 
HETATM   12  O3  UNL     1      14.635  -5.318   9.002  1.00  0.00    -0.280 OA
ENDROOT
BRANCH   6  13
HETATM   13  C4  UNL     1      19.458  -3.171   8.684  1.00  0.00     0.138 C 
HETATM   14  N3  UNL     1      19.436  -1.740   8.413  1.00  0.00    -0.094 NA
BRANCH  13  15
HETATM   15  C5  UNL     1      20.764  -3.717   8.872  1.00  0.00     0.178 C 
HETATM   16  N4  UNL     1      21.187  -5.063   8.788  1.00  0.00    -0.073 NA
BRANCH  15  17
HETATM   17  O1  UNL     1      21.704  -2.865   9.162  1.00  0.00    -0.347 OA
ATOM     18  H1  UNL     1      22.122  -2.975  10.008  1.00  0.00     0.219 HD
ENDBRANCH  15  17
ENDBRANCH  13  15
ENDBRANCH   6  13
TORSDOF 3
ENDMDL
MODEL 5
REMARK VINA RESULT: -7.169693292      2.647      3.488
REMARK  3 active torsions:
REMARK  status: ('A' for Active; 'I' for Inactive)
REMARK    1  A    between atoms: C3_6  and  C4_7 
REMARK    2  A    between atoms: C4_7  and  C5_9 
REMARK    3  A    between atoms: C5_9  and  O1_11 
ROOT
HETATM    1  N1  UNL     1      15.094  -3.583  12.670  1.00  0.00    -0.113 NA
HETATM    2  C1  UNL     1      15.274  -2.492  11.778  1.00  0.00     0.133 C 
HETATM    3  C2  UNL     1      16.052  -2.596  10.705  1.00  0.00     0.103 A 
HETATM    4  N2  UNL     1      16.708  -3.715  10.399  1.00  0.00    -0.337 N 
ATOM      5  H2  UNL     1      16.608  -4.523  11.014  1.00  0.00     0.167 HD
HETATM    6  C3  UNL     1      17.514  -3.829   9.291  1.00  0.00     0.137 A 
HETATM    7  N5  UNL     1      17.673  -2.792   8.460  1.00  0.00    -0.304 N 
ATOM      8  H5  UNL     1      18.270  -2.869   7.636  1.00  0.00     0.171 HD
HETATM    9  C6  UNL     1      17.015  -1.627   8.744  1.00  0.00     0.299 A 
HETATM   10  O2  UNL     1      17.164  -0.656   7.964  1.00  0.00    -0.264 OA
HETATM   11  C7  UNL     1      16.215  -1.530   9.852  1.00  0.00     0.267 A 
HETATM   12  O3  UNL     1      15.591  -0.459  10.140  1.00  0.00    -0.280 OA
ENDROOT
BRANCH   6  13
HETATM   13  C4  UNL     1      18.116  -4.984   9.083  1.00  0.00     0.138 C 
HETATM   14  N3  UNL     1      17.406  -5.895   8.193  1.00  0.00    -0.094 NA
BRANCH  13  15
HETATM   15  C5  UNL     1      19.352  -5.493   9.585  1.00  0.00     0.178 C 
HETATM   16  N4  UNL     1      20.671  -5.184   9.181  1.00  0.00    -0.073 NA
BRANCH  15  17
HETATM   17  O1  UNL     1      19.264  -6.361  10.549  1.00  0.00    -0.347 OA
ATOM     18  H1  UNL     1      19.339  -6.015  11.431  1.00  0.00     0.219 HD
ENDBRANCH  15  17
ENDBRANCH  13  15
ENDBRANCH   6  13
TORSDOF 3
ENDMDL
