MODEL 1
REMARK VINA RESULT: -9.625679224      0.000      0.000
REMARK  5 active torsions:
REMARK  status: ('A' for Active; 'I' for Inactive)
REMARK    1  A    between atoms: S1_2  and  C2_3 
REMARK    2  A    between atoms: C2_3  and  C3_4 
REMARK    3  A    between atoms: C2_3  and  C10_11 
REMARK    4  A    between atoms: C3_4  and  C4_5 
REMARK    5  A    between atoms: C12_15  and  C13_16 
ROOT
HETATM    1  C10 UNL     1      46.254   4.016  10.374  1.00  0.00    -0.026 A 
HETATM    2  C11 UNL     1      47.510   3.422  10.318  1.00  0.00     0.096 A 
HETATM    3  N1  UNL     1      48.414   4.380  10.484  1.00  0.00    -0.365 N 
ATOM      4  H1  UNL     1      49.422   4.226  10.487  1.00  0.00     0.165 HD
HETATM    5  C12 UNL     1      47.829   5.577  10.648  1.00  0.00     0.042 A 
HETATM    6  C19 UNL     1      46.477   5.360  10.581  1.00  0.00     0.040 A 
ENDROOT
BRANCH   1   7
HETATM    7  C2  UNL     1      44.987   3.284  10.221  1.00  0.00     0.085 C 
BRANCH   7   8
HETATM    8  S1  UNL     1      43.656   4.331   9.592  1.00  0.00    -0.164 SA
HETATM    9  C1  UNL     1      42.033   3.592   9.710  1.00  0.00     0.090 C 
ENDBRANCH   7   8
BRANCH   7  10
HETATM   10  C3  UNL     1      44.604   2.554  11.479  1.00  0.00     0.058 C 
BRANCH  10  11
HETATM   11  C4  UNL     1      44.491   1.097  11.237  1.00  0.00    -0.057 A 
HETATM   12  C5  UNL     1      44.792   0.616   9.959  1.00  0.00     0.007 A 
HETATM   13  C6  UNL     1      44.705  -0.710   9.644  1.00  0.00     0.001 A 
HETATM   14  C7  UNL     1      44.312  -1.638  10.590  1.00  0.00     0.000 A 
HETATM   15  C8  UNL     1      44.014  -1.180  11.851  1.00  0.00     0.001 A 
HETATM   16  C9  UNL     1      44.102   0.169  12.174  1.00  0.00     0.007 A 
ENDBRANCH  10  11
ENDBRANCH   7  10
ENDBRANCH   1   7
BRANCH   5  17
HETATM   17  C13 UNL     1      48.542   6.829  10.855  1.00  0.00    -0.009 A 
HETATM   18  C14 UNL     1      48.072   7.803  11.709  1.00  0.00     0.013 A 
HETATM   19  C15 UNL     1      48.723   8.993  11.923  1.00  0.00     0.001 A 
HETATM   20  C16 UNL     1      49.904   9.258  11.265  1.00  0.00     0.000 A 
HETATM   21  C17 UNL     1      50.404   8.298  10.396  1.00  0.00     0.001 A 
HETATM   22  C18 UNL     1      49.726   7.104  10.200  1.00  0.00     0.013 A 
ENDBRANCH   5  17
TORSDOF 5
ENDMDL
MODEL 2
REMARK VINA RESULT: -9.615604288      0.017      1.030
REMARK  5 active torsions:
REMARK  status: ('A' for Active; 'I' for Inactive)
REMARK    1  A    between atoms: S1_2  and  C2_3 
REMARK    2  A    between atoms: C2_3  and  C3_4 
REMARK    3  A    between atoms: C2_3  and  C10_11 
REMARK    4  A    between atoms: C3_4  and  C4_5 
REMARK    5  A    between atoms: C12_15  and  C13_16 
ROOT
HETATM    1  C10 UNL     1      46.260   4.021  10.377  1.00  0.00    -0.026 A 
HETATM    2  C11 UNL     1      47.515   3.427  10.329  1.00  0.00     0.096 A 
HETATM    3  N1  UNL     1      48.419   4.387  10.495  1.00  0.00    -0.365 N 
ATOM      4  H1  UNL     1      49.427   4.234  10.503  1.00  0.00     0.165 HD
HETATM    5  C12 UNL     1      47.833   5.584  10.651  1.00  0.00     0.042 A 
HETATM    6  C19 UNL     1      46.480   5.367  10.578  1.00  0.00     0.040 A 
ENDROOT
BRANCH   1   7
HETATM    7  C2  UNL     1      44.994   3.288  10.221  1.00  0.00     0.085 C 
BRANCH   7   8
HETATM    8  S1  UNL     1      43.662   4.334   9.591  1.00  0.00    -0.164 SA
HETATM    9  C1  UNL     1      42.041   3.587   9.693  1.00  0.00     0.090 C 
ENDBRANCH   7   8
BRANCH   7  10
HETATM   10  C3  UNL     1      44.610   2.555  11.478  1.00  0.00     0.058 C 
BRANCH  10  11
HETATM   11  C4  UNL     1      44.489   1.100  11.230  1.00  0.00    -0.057 A 
HETATM   12  C5  UNL     1      44.785   0.621   9.949  1.00  0.00     0.007 A 
HETATM   13  C6  UNL     1      44.690  -0.702   9.630  1.00  0.00     0.001 A 
HETATM   14  C7  UNL     1      44.294  -1.632  10.574  1.00  0.00     0.000 A 
HETATM   15  C8  UNL     1      43.999  -1.177  11.837  1.00  0.00     0.001 A 
HETATM   16  C9  UNL     1      44.096   0.171  12.164  1.00  0.00     0.007 A 
ENDBRANCH  10  11
ENDBRANCH   7  10
ENDBRANCH   1   7
BRANCH   5  17
HETATM   17  C13 UNL     1      48.543   6.838  10.855  1.00  0.00    -0.009 A 
HETATM   18  C14 UNL     1      49.727   7.119  10.208  1.00  0.00     0.013 A 
HETATM   19  C15 UNL     1      50.418   8.293  10.381  1.00  0.00     0.001 A 
HETATM   20  C16 UNL     1      49.932   9.256  11.237  1.00  0.00     0.000 A 
HETATM   21  C17 UNL     1      48.742   9.004  11.906  1.00  0.00     0.001 A 
HETATM   22  C18 UNL     1      48.064   7.810  11.711  1.00  0.00     0.013 A 
ENDBRANCH   5  17
TORSDOF 5
ENDMDL
MODEL 3
REMARK VINA RESULT: -9.418870714      1.454      2.216
REMARK  5 active torsions:
REMARK  status: ('A' for Active; 'I' for Inactive)
REMARK    1  A    between atoms: S1_2  and  C2_3 
REMARK    2  A    between atoms: C2_3  and  C3_4 
REMARK    3  A    between atoms: C2_3  and  C10_11 
REMARK    4  A    between atoms: C3_4  and  C4_5 
REMARK    5  A    between atoms: C12_15  and  C13_16 
ROOT
HETATM    1  C10 UNL     1      44.969   3.270  10.151  1.00  0.00    -0.026 A 
HETATM    2  C11 UNL     1      44.583   4.328   9.337  1.00  0.00     0.096 A 
HETATM    3  N1  UNL     1      45.562   5.226   9.354  1.00  0.00    -0.365 N 
ATOM      4  H1  UNL     1      45.544   6.107   8.841  1.00  0.00     0.165 HD
HETATM    5  C12 UNL     1      46.577   4.823  10.134  1.00  0.00     0.042 A 
HETATM    6  C19 UNL     1      46.216   3.600  10.639  1.00  0.00     0.040 A 
ENDROOT
BRANCH   1   7
HETATM    7  C2  UNL     1      44.146   2.078  10.401  1.00  0.00     0.085 C 
BRANCH   7   8
HETATM    8  S1  UNL     1      42.409   2.335   9.975  1.00  0.00    -0.164 SA
HETATM    9  C1  UNL     1      41.398   0.869  10.127  1.00  0.00     0.090 C 
ENDBRANCH   7   8
BRANCH   7  10
HETATM   10  C3  UNL     1      44.327   1.552  11.799  1.00  0.00     0.058 C 
BRANCH  10  11
HETATM   11  C4  UNL     1      44.277   0.072  11.823  1.00  0.00    -0.057 A 
HETATM   12  C5  UNL     1      44.016  -0.560  13.044  1.00  0.00     0.007 A 
HETATM   13  C6  UNL     1      43.963  -1.919  13.160  1.00  0.00     0.001 A 
HETATM   14  C7  UNL     1      44.165  -2.732  12.061  1.00  0.00     0.000 A 
HETATM   15  C8  UNL     1      44.422  -2.126  10.854  1.00  0.00     0.001 A 
HETATM   16  C9  UNL     1      44.477  -0.742  10.734  1.00  0.00     0.007 A 
ENDBRANCH  10  11
ENDBRANCH   7  10
ENDBRANCH   1   7
BRANCH   5  17
HETATM   17  C13 UNL     1      47.800   5.578  10.364  1.00  0.00    -0.009 A 
HETATM   18  C14 UNL     1      47.829   6.688  11.180  1.00  0.00     0.013 A 
HETATM   19  C15 UNL     1      48.968   7.419  11.415  1.00  0.00     0.001 A 
HETATM   20  C16 UNL     1      50.154   7.051  10.820  1.00  0.00     0.000 A 
HETATM   21  C17 UNL     1      50.159   5.938   9.991  1.00  0.00     0.001 A 
HETATM   22  C18 UNL     1      48.994   5.218   9.772  1.00  0.00     0.013 A 
ENDBRANCH   5  17
TORSDOF 5
ENDMDL
MODEL 4
REMARK VINA RESULT: -9.413622786      1.444      1.937
REMARK  5 active torsions:
REMARK  status: ('A' for Active; 'I' for Inactive)
REMARK    1  A    between atoms: S1_2  and  C2_3 
REMARK    2  A    between atoms: C2_3  and  C3_4 
REMARK    3  A    between atoms: C2_3  and  C10_11 
REMARK    4  A    between atoms: C3_4  and  C4_5 
REMARK    5  A    between atoms: C12_15  and  C13_16 
ROOT
HETATM    1  C10 UNL     1      44.948   3.294  10.170  1.00  0.00    -0.026 A 
HETATM    2  C11 UNL     1      44.591   4.328   9.312  1.00  0.00     0.096 A 
HETATM    3  N1  UNL     1      45.578   5.216   9.322  1.00  0.00    -0.365 N 
ATOM      4  H1  UNL     1      45.581   6.080   8.781  1.00  0.00     0.165 HD
HETATM    5  C12 UNL     1      46.571   4.829  10.138  1.00  0.00     0.042 A 
HETATM    6  C19 UNL     1      46.187   3.627  10.674  1.00  0.00     0.040 A 
ENDROOT
BRANCH   1   7
HETATM    7  C2  UNL     1      44.106   2.118  10.440  1.00  0.00     0.085 C 
BRANCH   7   8
HETATM    8  S1  UNL     1      42.379   2.383   9.980  1.00  0.00    -0.164 SA
HETATM    9  C1  UNL     1      41.358   0.923  10.120  1.00  0.00     0.090 C 
ENDBRANCH   7   8
BRANCH   7  10
HETATM   10  C3  UNL     1      44.260   1.629  11.855  1.00  0.00     0.058 C 
BRANCH  10  11
HETATM   11  C4  UNL     1      44.249   0.150  11.912  1.00  0.00    -0.057 A 
HETATM   12  C5  UNL     1      44.463  -0.559  10.724  1.00  0.00     0.007 A 
HETATM   13  C6  UNL     1      44.459  -1.923  10.683  1.00  0.00     0.001 A 
HETATM   14  C7  UNL     1      44.241  -2.666  11.828  1.00  0.00     0.000 A 
HETATM   15  C8  UNL     1      44.029  -1.984  13.003  1.00  0.00     0.001 A 
HETATM   16  C9  UNL     1      44.033  -0.595  13.047  1.00  0.00     0.007 A 
ENDBRANCH  10  11
ENDBRANCH   7  10
ENDBRANCH   1   7
BRANCH   5  17
HETATM   17  C13 UNL     1      47.796   5.579  10.371  1.00  0.00    -0.009 A 
HETATM   18  C14 UNL     1      47.832   6.677  11.202  1.00  0.00     0.013 A 
HETATM   19  C15 UNL     1      48.974   7.403  11.440  1.00  0.00     0.001 A 
HETATM   20  C16 UNL     1      50.156   7.044  10.831  1.00  0.00     0.000 A 
HETATM   21  C17 UNL     1      50.153   5.942   9.986  1.00  0.00     0.001 A 
HETATM   22  C18 UNL     1      48.987   5.227   9.765  1.00  0.00     0.013 A 
ENDBRANCH   5  17
TORSDOF 5
ENDMDL
MODEL 5
REMARK VINA RESULT: -9.412553242      1.448      2.408
REMARK  5 active torsions:
REMARK  status: ('A' for Active; 'I' for Inactive)
REMARK    1  A    between atoms: S1_2  and  C2_3 
REMARK    2  A    between atoms: C2_3  and  C3_4 
REMARK    3  A    between atoms: C2_3  and  C10_11 
REMARK    4  A    between atoms: C3_4  and  C4_5 
REMARK    5  A    between atoms: C12_15  and  C13_16 
ROOT
HETATM    1  C10 UNL     1      44.973   3.296  10.133  1.00  0.00    -0.026 A 
HETATM    2  C11 UNL     1      44.602   4.336   9.289  1.00  0.00     0.096 A 
HETATM    3  N1  UNL     1      45.577   5.237   9.311  1.00  0.00    -0.365 N 
ATOM      4  H1  UNL     1      45.569   6.108   8.780  1.00  0.00     0.165 HD
HETATM    5  C12 UNL     1      46.575   4.854  10.122  1.00  0.00     0.042 A 
HETATM    6  C19 UNL     1      46.207   3.640  10.643  1.00  0.00     0.040 A 
ENDROOT
BRANCH   1   7
HETATM    7  C2  UNL     1      44.148   2.106  10.388  1.00  0.00     0.085 C 
BRANCH   7   8
HETATM    8  S1  UNL     1      42.408   2.369   9.977  1.00  0.00    -0.164 SA
HETATM    9  C1  UNL     1      41.392   0.909  10.150  1.00  0.00     0.090 C 
ENDBRANCH   7   8
BRANCH   7  10
HETATM   10  C3  UNL     1      44.339   1.577  11.784  1.00  0.00     0.058 C 
BRANCH  10  11
HETATM   11  C4  UNL     1      44.287   0.097  11.805  1.00  0.00    -0.057 A 
HETATM   12  C5  UNL     1      44.030  -0.536  13.026  1.00  0.00     0.007 A 
HETATM   13  C6  UNL     1      43.975  -1.895  13.140  1.00  0.00     0.001 A 
HETATM   14  C7  UNL     1      44.172  -2.707  12.038  1.00  0.00     0.000 A 
HETATM   15  C8  UNL     1      44.424  -2.099  10.832  1.00  0.00     0.001 A 
HETATM   16  C9  UNL     1      44.481  -0.715  10.714  1.00  0.00     0.007 A 
ENDBRANCH  10  11
ENDBRANCH   7  10
ENDBRANCH   1   7
BRANCH   5  17
HETATM   17  C13 UNL     1      47.790   5.618  10.365  1.00  0.00    -0.009 A 
HETATM   18  C14 UNL     1      48.981   5.310   9.744  1.00  0.00     0.013 A 
HETATM   19  C15 UNL     1      50.142   6.014   9.955  1.00  0.00     0.001 A 
HETATM   20  C16 UNL     1      50.149   7.083  10.823  1.00  0.00     0.000 A 
HETATM   21  C17 UNL     1      48.965   7.419  11.465  1.00  0.00     0.001 A 
HETATM   22  C18 UNL     1      47.808   6.692  11.233  1.00  0.00     0.013 A 
ENDBRANCH   5  17
TORSDOF 5
ENDMDL
