MODEL 1
REMARK VINA RESULT: -8.239017549      0.000      0.000
REMARK  8 active torsions:
REMARK  status: ('A' for Active; 'I' for Inactive)
REMARK    1  A    between atoms: C2_2  and  N1_3 
REMARK    2  A    between atoms: N1_3  and  C3_5 
REMARK    3  A    between atoms: C3_5  and  O1_6 
REMARK    4  A    between atoms: C3_5  and  C4_8 
REMARK    5  A    between atoms: C5_9  and  N2_10 
REMARK       I    between atoms: N2_10  and  C6_12 
REMARK    6  A    between atoms: C6_12  and  C7_14 
REMARK    7  A    between atoms: C7_14  and  N3_15 
REMARK    8  A    between atoms: N3_15  and  C8_18 
ROOT
HETATM    1  N2  UNL     1      56.329  39.523  15.975  1.00  0.00    -0.319 N 
ATOM      2  H2  UNL     1      55.731  38.733  15.732  1.00  0.00     0.169 HD
HETATM    3  C6  UNL     1      57.435  39.186  16.734  1.00  0.00     0.248 C 
HETATM    4  O2  UNL     1      58.285  40.018  17.178  1.00  0.00    -0.271 OA
ENDROOT
BRANCH   1   5
HETATM    5  C5  UNL     1      55.876  40.780  15.472  1.00  0.00     0.092 A 
HETATM    6  C4  UNL     1      55.226  41.862  15.968  1.00  0.00     0.056 A 
HETATM    7  C19 UNL     1      54.699  42.743  15.051  1.00  0.00    -0.028 A 
HETATM    8  C18 UNL     1      54.887  42.461  13.732  1.00  0.00    -0.008 A 
HETATM    9  C20 UNL     1      53.889  43.978  15.388  1.00  0.00     0.041 C 
HETATM   10  S1  UNL     1      55.760  41.020  13.745  1.00  0.00    -0.075 SA
HETATM   11  C23 UNL     1      54.425  43.300  12.578  1.00  0.00     0.047 C 
HETATM   12  C22 UNL     1      54.366  44.731  13.096  1.00  0.00     0.005 C 
HETATM   13  C21 UNL     1      53.380  44.692  14.211  1.00  0.00     0.005 C 
BRANCH   6  14
HETATM   14  C3  UNL     1      55.397  42.184  17.422  1.00  0.00     0.149 C 
BRANCH  14  15
HETATM   15  N1  UNL     1      54.420  42.353  18.382  1.00  0.00    -0.371 N 
ATOM     16  H1  UNL     1      54.180  43.282  18.728  1.00  0.00     0.161 HD
BRANCH  15  17
HETATM   17  C2  UNL     1      53.724  41.141  18.900  1.00  0.00     0.117 C 
HETATM   18  C1  UNL     1      52.612  40.713  18.006  1.00  0.00     0.026 C 
ENDBRANCH  15  17
ENDBRANCH  14  15
BRANCH  14  19
HETATM   19  O1  UNL     1      56.610  42.330  17.881  1.00  0.00    -0.346 OA
ATOM     20  H1  UNL     1      57.029  43.134  17.598  1.00  0.00     0.219 HD
ENDBRANCH  14  19
ENDBRANCH   6  14
ENDBRANCH   1   5
BRANCH   3  21
HETATM   21  C7  UNL     1      57.679  37.727  17.079  1.00  0.00     0.335 C 
BRANCH  21  22
HETATM   22  N3  UNL     1      58.450  37.047  16.090  1.00  0.00    -0.058 N 
ATOM     23  H32 UNL     1      58.648  37.663  15.301  1.00  0.00     0.278 HD
ATOM     24  H31 UNL     1      59.401  36.884  16.422  1.00  0.00     0.278 HD
BRANCH  22  25
HETATM   25  C8  UNL     1      57.849  35.813  15.635  1.00  0.00     0.127 C 
HETATM   26  C9  UNL     1      56.411  36.093  15.283  1.00  0.00     0.043 C 
HETATM   27  C10 UNL     1      55.776  34.867  14.645  1.00  0.00    -0.012 C 
HETATM   28  C11 UNL     1      56.515  34.541  13.387  1.00  0.00     0.009 C 
HETATM   29  C15 UNL     1      55.843  33.766  15.675  1.00  0.00     0.009 C 
HETATM   30  C12 UNL     1      57.951  34.196  13.727  1.00  0.00    -0.012 C 
HETATM   31  C13 UNL     1      58.011  33.057  14.705  1.00  0.00     0.009 C 
HETATM   32  C17 UNL     1      58.576  35.423  14.366  1.00  0.00     0.043 C 
HETATM   33  C14 UNL     1      57.287  33.476  15.973  1.00  0.00    -0.012 C 
HETATM   34  C16 UNL     1      57.989  34.686  16.603  1.00  0.00     0.043 C 
ENDBRANCH  22  25
ENDBRANCH  21  22
ENDBRANCH   3  21
TORSDOF 8
ENDMDL
MODEL 2
REMARK VINA RESULT: -8.184726415      0.088      1.344
REMARK  8 active torsions:
REMARK  status: ('A' for Active; 'I' for Inactive)
REMARK    1  A    between atoms: C2_2  and  N1_3 
REMARK    2  A    between atoms: N1_3  and  C3_5 
REMARK    3  A    between atoms: C3_5  and  O1_6 
REMARK    4  A    between atoms: C3_5  and  C4_8 
REMARK    5  A    between atoms: C5_9  and  N2_10 
REMARK       I    between atoms: N2_10  and  C6_12 
REMARK    6  A    between atoms: C6_12  and  C7_14 
REMARK    7  A    between atoms: C7_14  and  N3_15 
REMARK    8  A    between atoms: N3_15  and  C8_18 
ROOT
HETATM    1  N2  UNL     1      56.354  39.523  16.023  1.00  0.00    -0.319 N 
ATOM      2  H2  UNL     1      55.743  38.733  15.815  1.00  0.00     0.169 HD
HETATM    3  C6  UNL     1      57.481  39.193  16.754  1.00  0.00     0.248 C 
HETATM    4  O2  UNL     1      58.350  40.029  17.153  1.00  0.00    -0.271 OA
ENDROOT
BRANCH   1   5
HETATM    5  C5  UNL     1      55.893  40.773  15.508  1.00  0.00     0.092 A 
HETATM    6  C4  UNL     1      55.232  41.852  15.992  1.00  0.00     0.056 A 
HETATM    7  C19 UNL     1      54.703  42.722  15.066  1.00  0.00    -0.028 A 
HETATM    8  C18 UNL     1      54.901  42.433  13.751  1.00  0.00    -0.008 A 
HETATM    9  C20 UNL     1      53.881  43.953  15.390  1.00  0.00     0.041 C 
HETATM   10  S1  UNL     1      55.785  40.999  13.779  1.00  0.00    -0.075 SA
HETATM   11  C23 UNL     1      54.439  43.260  12.588  1.00  0.00     0.047 C 
HETATM   12  C22 UNL     1      54.365  44.694  13.094  1.00  0.00     0.005 C 
HETATM   13  C21 UNL     1      53.373  44.655  14.204  1.00  0.00     0.005 C 
BRANCH   6  14
HETATM   14  C3  UNL     1      55.392  42.187  17.445  1.00  0.00     0.149 C 
BRANCH  14  15
HETATM   15  N1  UNL     1      54.407  42.364  18.396  1.00  0.00    -0.371 N 
ATOM     16  H1  UNL     1      54.163  43.296  18.731  1.00  0.00     0.161 HD
BRANCH  15  17
HETATM   17  C2  UNL     1      53.711  41.155  18.922  1.00  0.00     0.117 C 
HETATM   18  C1  UNL     1      52.591  40.729  18.036  1.00  0.00     0.026 C 
ENDBRANCH  15  17
ENDBRANCH  14  15
BRANCH  14  19
HETATM   19  O1  UNL     1      56.602  42.336  17.911  1.00  0.00    -0.346 OA
ATOM     20  H1  UNL     1      57.036  41.515  18.108  1.00  0.00     0.219 HD
ENDBRANCH  14  19
ENDBRANCH   6  14
ENDBRANCH   1   5
BRANCH   3  21
HETATM   21  C7  UNL     1      57.726  37.740  17.121  1.00  0.00     0.335 C 
BRANCH  21  22
HETATM   22  N3  UNL     1      58.493  37.044  16.140  1.00  0.00    -0.058 N 
ATOM     23  H32 UNL     1      58.817  37.684  15.415  1.00  0.00     0.278 HD
ATOM     24  H31 UNL     1      59.392  36.753  16.525  1.00  0.00     0.278 HD
BRANCH  22  25
HETATM   25  C8  UNL     1      57.799  35.919  15.554  1.00  0.00     0.127 C 
HETATM   26  C9  UNL     1      58.480  35.572  14.255  1.00  0.00     0.043 C 
HETATM   27  C10 UNL     1      57.893  34.294  13.677  1.00  0.00    -0.012 C 
HETATM   28  C11 UNL     1      58.123  33.177  14.644  1.00  0.00     0.009 C 
HETATM   29  C15 UNL     1      56.430  34.569  13.428  1.00  0.00     0.009 C 
HETATM   30  C12 UNL     1      57.395  33.478  15.938  1.00  0.00    -0.012 C 
HETATM   31  C13 UNL     1      55.929  33.690  15.691  1.00  0.00     0.009 C 
HETATM   32  C17 UNL     1      57.985  34.756  16.507  1.00  0.00     0.043 C 
HETATM   33  C14 UNL     1      55.768  34.867  14.744  1.00  0.00    -0.012 C 
HETATM   34  C16 UNL     1      56.333  36.139  15.388  1.00  0.00     0.043 C 
ENDBRANCH  22  25
ENDBRANCH  21  22
ENDBRANCH   3  21
TORSDOF 8
ENDMDL
MODEL 3
REMARK VINA RESULT: -8.173192656      0.207      1.287
REMARK  8 active torsions:
REMARK  status: ('A' for Active; 'I' for Inactive)
REMARK    1  A    between atoms: C2_2  and  N1_3 
REMARK    2  A    between atoms: N1_3  and  C3_5 
REMARK    3  A    between atoms: C3_5  and  O1_6 
REMARK    4  A    between atoms: C3_5  and  C4_8 
REMARK    5  A    between atoms: C5_9  and  N2_10 
REMARK       I    between atoms: N2_10  and  C6_12 
REMARK    6  A    between atoms: C6_12  and  C7_14 
REMARK    7  A    between atoms: C7_14  and  N3_15 
REMARK    8  A    between atoms: N3_15  and  C8_18 
ROOT
HETATM    1  N2  UNL     1      56.272  39.543  15.915  1.00  0.00    -0.319 N 
ATOM      2  H2  UNL     1      55.672  38.769  15.629  1.00  0.00     0.169 HD
HETATM    3  C6  UNL     1      57.361  39.165  16.679  1.00  0.00     0.248 C 
HETATM    4  O2  UNL     1      58.210  39.970  17.171  1.00  0.00    -0.271 OA
ENDROOT
BRANCH   1   5
HETATM    5  C5  UNL     1      55.840  40.823  15.455  1.00  0.00     0.092 A 
HETATM    6  C4  UNL     1      55.216  41.901  15.989  1.00  0.00     0.056 A 
HETATM    7  C19 UNL     1      54.698  42.820  15.105  1.00  0.00    -0.028 A 
HETATM    8  C18 UNL     1      54.869  42.576  13.777  1.00  0.00    -0.008 A 
HETATM    9  C20 UNL     1      53.916  44.060  15.488  1.00  0.00     0.041 C 
HETATM   10  S1  UNL     1      55.713  41.118  13.737  1.00  0.00    -0.075 SA
HETATM   11  C23 UNL     1      54.414  43.459  12.653  1.00  0.00     0.047 C 
HETATM   12  C22 UNL     1      54.387  44.874  13.215  1.00  0.00     0.005 C 
HETATM   13  C21 UNL     1      53.410  44.820  14.337  1.00  0.00     0.005 C 
BRANCH   6  14
HETATM   14  C3  UNL     1      55.406  42.176  17.451  1.00  0.00     0.149 C 
BRANCH  14  15
HETATM   15  N1  UNL     1      54.440  42.333  18.425  1.00  0.00    -0.371 N 
ATOM     16  H1  UNL     1      54.215  43.256  18.796  1.00  0.00     0.161 HD
BRANCH  15  17
HETATM   17  C2  UNL     1      53.736  41.116  18.922  1.00  0.00     0.117 C 
HETATM   18  C1  UNL     1      52.617  40.716  18.023  1.00  0.00     0.026 C 
ENDBRANCH  15  17
ENDBRANCH  14  15
BRANCH  14  19
HETATM   19  O1  UNL     1      56.625  42.285  17.902  1.00  0.00    -0.346 OA
ATOM     20  H1  UNL     1      57.200  41.584  17.616  1.00  0.00     0.219 HD
ENDBRANCH  14  19
ENDBRANCH   6  14
ENDBRANCH   1   5
BRANCH   3  21
HETATM   21  C7  UNL     1      57.585  37.691  16.969  1.00  0.00     0.335 C 
BRANCH  21  22
HETATM   22  N3  UNL     1      58.454  37.068  16.025  1.00  0.00    -0.058 N 
ATOM     23  H32 UNL     1      58.725  37.727  15.295  1.00  0.00     0.278 HD
ATOM     24  H31 UNL     1      59.369  36.888  16.440  1.00  0.00     0.278 HD
BRANCH  22  25
HETATM   25  C8  UNL     1      57.909  35.860  15.446  1.00  0.00     0.127 C 
HETATM   26  C9  UNL     1      57.691  34.864  16.556  1.00  0.00     0.043 C 
HETATM   27  C10 UNL     1      56.968  33.636  16.028  1.00  0.00    -0.012 C 
HETATM   28  C11 UNL     1      55.632  34.053  15.500  1.00  0.00     0.009 C 
HETATM   29  C15 UNL     1      57.861  33.034  14.971  1.00  0.00     0.009 C 
HETATM   30  C12 UNL     1      55.830  35.008  14.341  1.00  0.00    -0.012 C 
HETATM   31  C13 UNL     1      56.669  34.380  13.265  1.00  0.00     0.009 C 
HETATM   32  C17 UNL     1      56.556  36.230  14.876  1.00  0.00     0.043 C 
HETATM   33  C14 UNL     1      58.023  34.029  13.857  1.00  0.00    -0.012 C 
HETATM   34  C16 UNL     1      58.733  35.303  14.334  1.00  0.00     0.043 C 
ENDBRANCH  22  25
ENDBRANCH  21  22
ENDBRANCH   3  21
TORSDOF 8
ENDMDL
MODEL 4
REMARK VINA RESULT: -8.084493442      1.942      2.951
REMARK  8 active torsions:
REMARK  status: ('A' for Active; 'I' for Inactive)
REMARK    1  A    between atoms: C2_2  and  N1_3 
REMARK    2  A    between atoms: N1_3  and  C3_5 
REMARK    3  A    between atoms: C3_5  and  O1_6 
REMARK    4  A    between atoms: C3_5  and  C4_8 
REMARK    5  A    between atoms: C5_9  and  N2_10 
REMARK       I    between atoms: N2_10  and  C6_12 
REMARK    6  A    between atoms: C6_12  and  C7_14 
REMARK    7  A    between atoms: C7_14  and  N3_15 
REMARK    8  A    between atoms: N3_15  and  C8_18 
ROOT
HETATM    1  N2  UNL     1      55.416  39.245  13.971  1.00  0.00    -0.319 N 
ATOM      2  H2  UNL     1      56.339  38.856  13.777  1.00  0.00     0.169 HD
HETATM    3  C6  UNL     1      54.381  38.335  13.863  1.00  0.00     0.248 C 
HETATM    4  O2  UNL     1      53.154  38.618  14.022  1.00  0.00    -0.271 OA
ENDROOT
BRANCH   1   5
HETATM    5  C5  UNL     1      55.423  40.634  14.303  1.00  0.00     0.092 A 
HETATM    6  C4  UNL     1      55.325  41.375  15.434  1.00  0.00     0.056 A 
HETATM    7  C19 UNL     1      55.058  42.716  15.276  1.00  0.00    -0.028 A 
HETATM    8  C18 UNL     1      54.931  43.183  14.004  1.00  0.00    -0.008 A 
HETATM    9  C20 UNL     1      54.852  43.707  16.403  1.00  0.00     0.041 C 
HETATM   10  S1  UNL     1      55.164  41.817  13.045  1.00  0.00    -0.075 SA
HETATM   11  C23 UNL     1      54.674  44.607  13.610  1.00  0.00     0.047 C 
HETATM   12  C22 UNL     1      55.252  45.464  14.728  1.00  0.00     0.005 C 
HETATM   13  C21 UNL     1      54.500  45.058  15.947  1.00  0.00     0.005 C 
BRANCH   6  14
HETATM   14  C3  UNL     1      55.814  40.774  16.718  1.00  0.00     0.149 C 
BRANCH  14  15
HETATM   15  N1  UNL     1      57.002  41.017  17.379  1.00  0.00    -0.371 N 
ATOM     16  H1  UNL     1      57.211  41.940  17.760  1.00  0.00     0.161 HD
BRANCH  15  17
HETATM   17  C2  UNL     1      57.971  39.893  17.521  1.00  0.00     0.117 C 
HETATM   18  C1  UNL     1      58.583  39.518  16.215  1.00  0.00     0.026 C 
ENDBRANCH  15  17
ENDBRANCH  14  15
BRANCH  14  19
HETATM   19  O1  UNL     1      55.048  39.908  17.322  1.00  0.00    -0.346 OA
ATOM     20  H1  UNL     1      55.043  39.053  16.910  1.00  0.00     0.219 HD
ENDBRANCH  14  19
ENDBRANCH   6  14
ENDBRANCH   1   5
BRANCH   3  21
HETATM   21  C7  UNL     1      54.701  36.887  13.533  1.00  0.00     0.335 C 
BRANCH  21  22
HETATM   22  N3  UNL     1      54.659  36.037  14.678  1.00  0.00    -0.058 N 
ATOM     23  H32 UNL     1      54.365  36.559  15.504  1.00  0.00     0.278 HD
ATOM     24  H31 UNL     1      53.883  35.377  14.609  1.00  0.00     0.278 HD
BRANCH  22  25
HETATM   25  C8  UNL     1      55.902  35.342  14.928  1.00  0.00     0.127 C 
HETATM   26  C9  UNL     1      56.557  35.061  13.601  1.00  0.00     0.043 C 
HETATM   27  C10 UNL     1      57.945  34.477  13.812  1.00  0.00    -0.012 C 
HETATM   28  C11 UNL     1      58.781  35.474  14.549  1.00  0.00     0.009 C 
HETATM   29  C15 UNL     1      57.756  33.186  14.571  1.00  0.00     0.009 C 
HETATM   30  C12 UNL     1      58.171  35.725  15.913  1.00  0.00    -0.012 C 
HETATM   31  C13 UNL     1      58.043  34.445  16.687  1.00  0.00     0.009 C 
HETATM   32  C17 UNL     1      56.785  36.305  15.693  1.00  0.00     0.043 C 
HETATM   33  C14 UNL     1      57.144  33.501  15.906  1.00  0.00    -0.012 C 
HETATM   34  C16 UNL     1      55.745  34.113  15.759  1.00  0.00     0.043 C 
ENDBRANCH  22  25
ENDBRANCH  21  22
ENDBRANCH   3  21
TORSDOF 8
ENDMDL
MODEL 5
REMARK VINA RESULT: -8.068212796      1.957      3.070
REMARK  8 active torsions:
REMARK  status: ('A' for Active; 'I' for Inactive)
REMARK    1  A    between atoms: C2_2  and  N1_3 
REMARK    2  A    between atoms: N1_3  and  C3_5 
REMARK    3  A    between atoms: C3_5  and  O1_6 
REMARK    4  A    between atoms: C3_5  and  C4_8 
REMARK    5  A    between atoms: C5_9  and  N2_10 
REMARK       I    between atoms: N2_10  and  C6_12 
REMARK    6  A    between atoms: C6_12  and  C7_14 
REMARK    7  A    between atoms: C7_14  and  N3_15 
REMARK    8  A    between atoms: N3_15  and  C8_18 
ROOT
HETATM    1  N2  UNL     1      55.193  39.225  14.083  1.00  0.00    -0.319 N 
ATOM      2  H2  UNL     1      56.102  38.786  13.938  1.00  0.00     0.169 HD
HETATM    3  C6  UNL     1      54.119  38.359  13.982  1.00  0.00     0.248 C 
HETATM    4  O2  UNL     1      52.902  38.705  14.088  1.00  0.00    -0.271 OA
ENDROOT
BRANCH   1   5
HETATM    5  C5  UNL     1      55.254  40.626  14.354  1.00  0.00     0.092 A 
HETATM    6  C4  UNL     1      55.211  41.418  15.453  1.00  0.00     0.056 A 
HETATM    7  C19 UNL     1      54.985  42.760  15.242  1.00  0.00    -0.028 A 
HETATM    8  C18 UNL     1      54.841  43.175  13.954  1.00  0.00    -0.008 A 
HETATM    9  C20 UNL     1      54.841  43.805  16.329  1.00  0.00     0.041 C 
HETATM   10  S1  UNL     1      55.003  41.762  13.051  1.00  0.00    -0.075 SA
HETATM   11  C23 UNL     1      54.621  44.589  13.504  1.00  0.00     0.047 C 
HETATM   12  C22 UNL     1      55.257  45.473  14.569  1.00  0.00     0.005 C 
HETATM   13  C21 UNL     1      54.523  45.146  15.823  1.00  0.00     0.005 C 
BRANCH   6  14
HETATM   14  C3  UNL     1      55.712  40.857  16.750  1.00  0.00     0.149 C 
BRANCH  14  15
HETATM   15  N1  UNL     1      56.899  41.133  17.400  1.00  0.00    -0.371 N 
ATOM     16  H1  UNL     1      57.116  42.079  17.716  1.00  0.00     0.161 HD
BRANCH  15  17
HETATM   17  C2  UNL     1      57.854  40.011  17.630  1.00  0.00     0.117 C 
HETATM   18  C1  UNL     1      58.568  39.626  16.381  1.00  0.00     0.026 C 
ENDBRANCH  15  17
ENDBRANCH  14  15
BRANCH  14  19
HETATM   19  O1  UNL     1      54.960  39.996  17.379  1.00  0.00    -0.346 OA
ATOM     20  H1  UNL     1      55.240  39.095  17.268  1.00  0.00     0.219 HD
ENDBRANCH  14  19
ENDBRANCH   6  14
ENDBRANCH   1   5
BRANCH   3  21
HETATM   21  C7  UNL     1      54.380  36.885  13.728  1.00  0.00     0.335 C 
BRANCH  21  22
HETATM   22  N3  UNL     1      54.641  36.155  14.925  1.00  0.00    -0.058 N 
ATOM     23  H32 UNL     1      54.504  36.746  15.745  1.00  0.00     0.278 HD
ATOM     24  H31 UNL     1      53.911  35.461  15.091  1.00  0.00     0.278 HD
BRANCH  22  25
HETATM   25  C8  UNL     1      55.948  35.537  14.954  1.00  0.00     0.127 C 
HETATM   26  C9  UNL     1      56.901  36.487  15.634  1.00  0.00     0.043 C 
HETATM   27  C10 UNL     1      58.253  35.822  15.837  1.00  0.00    -0.012 C 
HETATM   28  C11 UNL     1      58.074  34.624  16.714  1.00  0.00     0.009 C 
HETATM   29  C15 UNL     1      58.771  35.477  14.462  1.00  0.00     0.009 C 
HETATM   30  C12 UNL     1      57.167  33.629  16.020  1.00  0.00    -0.012 C 
HETATM   31  C13 UNL     1      57.720  33.242  14.679  1.00  0.00     0.009 C 
HETATM   32  C17 UNL     1      55.820  34.301  15.819  1.00  0.00     0.043 C 
HETATM   33  C14 UNL     1      57.827  34.496  13.827  1.00  0.00    -0.012 C 
HETATM   34  C16 UNL     1      56.436  35.104  13.612  1.00  0.00     0.043 C 
ENDBRANCH  22  25
ENDBRANCH  21  22
ENDBRANCH   3  21
TORSDOF 8
ENDMDL
