MODEL 1
REMARK VINA RESULT: -7.524115579      0.000      0.000
REMARK  8 active torsions:
REMARK  status: ('A' for Active; 'I' for Inactive)
REMARK    1  A    between atoms: C2_2  and  N1_3 
REMARK    2  A    between atoms: C3_4  and  N2_5 
REMARK    3  A    between atoms: C4_10  and  N4_11 
REMARK    4  A    between atoms: N4_11  and  N5_13 
REMARK       I    between atoms: C5_15  and  N7_17 
REMARK    5  A    between atoms: N7_17  and  N8_19 
REMARK    6  A    between atoms: N8_19  and  O1_23 
REMARK    7  A    between atoms: C6_26  and  O2_27 
REMARK    8  A    between atoms: C7_29  and  C8_30 
ROOT
HETATM    1  N1  UNL     1      -9.017  -3.901  -0.592  1.00  0.00    -0.013 N 
HETATM    2  C3  UNL     1      -8.704  -2.844  -1.362  1.00  0.00     0.707 A 
HETATM    3  N3  UNL     1      -9.582  -2.434  -2.295  1.00  0.00    -0.019 N 
ATOM      4  H3  UNL     1      -9.369  -1.635  -2.892  1.00  0.00     0.203 HD
HETATM    5  C4  UNL     1     -10.746  -3.096  -2.425  1.00  0.00     0.734 A 
HETATM    6  N10 UNL     1     -11.065  -4.165  -1.647  1.00  0.00     0.048 N 
HETATM    7  C6  UNL     1     -12.233  -4.816  -1.790  1.00  0.00     0.201 A 
HETATM    8  C7  UNL     1     -12.597  -5.910  -1.018  1.00  0.00     0.130 A 
HETATM    9  C10 UNL     1     -11.676  -6.304  -0.072  1.00  0.00     0.277 A 
HETATM   10  O4  UNL     1     -11.924  -7.289   0.673  1.00  0.00    -0.266 OA
HETATM   11  N11 UNL     1     -10.501  -5.619   0.045  1.00  0.00    -0.153 N 
ATOM     12  H11 UNL     1      -9.831  -5.924   0.751  1.00  0.00     0.187 HD
HETATM   13  C11 UNL     1     -10.185  -4.571  -0.717  1.00  0.00     0.725 A 
ENDROOT
BRANCH   5  14
HETATM   14  N4  UNL     1     -11.628  -2.752  -3.299  1.00  0.00    -0.128 N 
ATOM     15  H4  UNL     1     -12.210  -3.492  -3.693  1.00  0.00     0.205 HD
BRANCH  14  16
HETATM   16  N5  UNL     1     -11.850  -1.469  -3.745  1.00  0.00    -0.258 N 
HETATM   17  C5  UNL     1     -12.969  -0.991  -4.138  1.00  0.00     0.225 C 
HETATM   18  N6  UNL     1     -13.012   0.352  -4.563  1.00  0.00    -0.060 NA
HETATM   19  N7  UNL     1     -14.177  -1.738  -4.172  1.00  0.00    -0.231 N 
ATOM     20  H7  UNL     1     -14.289  -2.513  -3.518  1.00  0.00     0.194 HD
ATOM     21  H5  UNL     1     -11.046  -0.841  -3.762  1.00  0.00     0.190 HD
BRANCH  19  22
HETATM   22  N8  UNL     1     -15.214  -1.459  -5.060  1.00  0.00    -0.099 N 
HETATM   23  N9  UNL     1     -14.984  -1.525  -6.309  1.00  0.00    -0.303 N 
ATOM     24  H92 UNL     1     -14.042  -1.781  -6.604  1.00  0.00     0.181 HD
ATOM     25  H91 UNL     1     -15.744  -1.320  -6.959  1.00  0.00     0.181 HD
BRANCH  22  26
HETATM   26  O1  UNL     1     -16.483  -1.113  -4.662  1.00  0.00    -0.254 OA
ATOM     27  H1  UNL     1     -17.180  -1.743  -4.523  1.00  0.00     0.248 HD
ENDBRANCH  22  26
ENDBRANCH  19  22
ENDBRANCH  14  16
ENDBRANCH   5  14
BRANCH   2  28
HETATM   28  N2  UNL     1      -7.565  -2.262  -1.175  1.00  0.00    -0.233 N 
ATOM     29  H22 UNL     1      -6.831  -2.666  -0.594  1.00  0.00     0.174 HD
ATOM     30  H21 UNL     1      -7.399  -1.364  -1.627  1.00  0.00     0.174 HD
ENDBRANCH   2  28
BRANCH   7  31
HETATM   31  O2  UNL     1     -13.118  -4.367  -2.762  1.00  0.00    -0.344 OA
ATOM     32  H2  UNL     1     -13.615  -3.577  -2.586  1.00  0.00     0.219 HD
ENDBRANCH   7  31
BRANCH   1  33
HETATM   33  C2  UNL     1      -8.102  -4.374   0.423  1.00  0.00     0.162 C 
HETATM   34  C1  UNL     1      -7.832  -3.356   1.487  1.00  0.00     0.028 C 
ENDBRANCH   1  33
BRANCH   8  35
HETATM   35  C8  UNL     1     -13.878  -6.576  -1.218  1.00  0.00     0.165 C 
HETATM   36  C9  UNL     1     -15.087  -6.255  -0.442  1.00  0.00     0.097 C 
HETATM   37  O3  UNL     1     -13.925  -7.481  -2.121  1.00  0.00    -0.292 OA
ENDBRANCH   8  35
TORSDOF 8
ENDMDL
MODEL 2
REMARK VINA RESULT: -7.346305099      2.369      3.322
REMARK  8 active torsions:
REMARK  status: ('A' for Active; 'I' for Inactive)
REMARK    1  A    between atoms: C2_2  and  N1_3 
REMARK    2  A    between atoms: C3_4  and  N2_5 
REMARK    3  A    between atoms: C4_10  and  N4_11 
REMARK    4  A    between atoms: N4_11  and  N5_13 
REMARK       I    between atoms: C5_15  and  N7_17 
REMARK    5  A    between atoms: N7_17  and  N8_19 
REMARK    6  A    between atoms: N8_19  and  O1_23 
REMARK    7  A    between atoms: C6_26  and  O2_27 
REMARK    8  A    between atoms: C7_29  and  C8_30 
ROOT
HETATM    1  N1  UNL     1      -6.795  -2.857   0.951  1.00  0.00    -0.013 N 
HETATM    2  C3  UNL     1      -6.654  -2.123  -0.166  1.00  0.00     0.707 A 
HETATM    3  N3  UNL     1      -7.542  -2.279  -1.165  1.00  0.00    -0.019 N 
ATOM      4  H3  UNL     1      -7.458  -1.734  -2.023  1.00  0.00     0.203 HD
HETATM    5  C4  UNL     1      -8.542  -3.165  -1.011  1.00  0.00     0.734 A 
HETATM    6  N10 UNL     1      -8.687  -3.909   0.118  1.00  0.00     0.048 N 
HETATM    7  C6  UNL     1      -9.692  -4.791   0.256  1.00  0.00     0.201 A 
HETATM    8  C7  UNL     1      -9.876  -5.569   1.390  1.00  0.00     0.130 A 
HETATM    9  C10 UNL     1      -8.950  -5.385   2.395  1.00  0.00     0.277 A 
HETATM   10  O4  UNL     1      -9.040  -6.050   3.461  1.00  0.00    -0.266 OA
HETATM   11  N11 UNL     1      -7.943  -4.481   2.220  1.00  0.00    -0.153 N 
ATOM     12  H11 UNL     1      -7.267  -4.357   2.973  1.00  0.00     0.187 HD
HETATM   13  C11 UNL     1      -7.798  -3.750   1.113  1.00  0.00     0.725 A 
ENDROOT
BRANCH   5  14
HETATM   14  N4  UNL     1      -9.424  -3.360  -1.931  1.00  0.00    -0.128 N 
ATOM     15  H4  UNL     1      -9.648  -4.327  -2.167  1.00  0.00     0.205 HD
BRANCH  14  16
HETATM   16  N5  UNL     1     -10.088  -2.371  -2.619  1.00  0.00    -0.258 N 
HETATM   17  C5  UNL     1     -11.317  -2.393  -2.973  1.00  0.00     0.225 C 
HETATM   18  N6  UNL     1     -11.832  -1.286  -3.676  1.00  0.00    -0.060 NA
HETATM   19  N7  UNL     1     -12.196  -3.474  -2.697  1.00  0.00    -0.231 N 
ATOM     20  H7  UNL     1     -12.013  -4.055  -1.879  1.00  0.00     0.194 HD
ATOM     21  H5  UNL     1      -9.549  -1.542  -2.871  1.00  0.00     0.190 HD
BRANCH  19  22
HETATM   22  N8  UNL     1     -13.298  -3.775  -3.495  1.00  0.00    -0.099 N 
HETATM   23  N9  UNL     1     -14.369  -3.110  -3.335  1.00  0.00    -0.303 N 
ATOM     24  H92 UNL     1     -14.371  -2.381  -2.622  1.00  0.00     0.181 HD
ATOM     25  H91 UNL     1     -15.176  -3.330  -3.920  1.00  0.00     0.181 HD
BRANCH  22  26
HETATM   26  O1  UNL     1     -13.295  -4.759  -4.456  1.00  0.00    -0.254 OA
ATOM     27  H1  UNL     1     -14.060  -4.995  -4.969  1.00  0.00     0.248 HD
ENDBRANCH  22  26
ENDBRANCH  19  22
ENDBRANCH  14  16
ENDBRANCH   5  14
BRANCH   2  28
HETATM   28  N2  UNL     1      -5.666  -1.293  -0.237  1.00  0.00    -0.233 N 
ATOM     29  H22 UNL     1      -4.894  -1.301   0.429  1.00  0.00     0.174 HD
ATOM     30  H21 UNL     1      -5.663  -0.605  -0.989  1.00  0.00     0.174 HD
ENDBRANCH   2  28
BRANCH   7  31
HETATM   31  O2  UNL     1     -10.592  -4.928  -0.793  1.00  0.00    -0.344 OA
ATOM     32  H2  UNL     1     -11.459  -4.552  -0.693  1.00  0.00     0.219 HD
ENDBRANCH   7  31
BRANCH   1  33
HETATM   33  C2  UNL     1      -5.864  -2.721   2.049  1.00  0.00     0.162 C 
HETATM   34  C1  UNL     1      -6.273  -1.673   3.036  1.00  0.00     0.028 C 
ENDBRANCH   1  33
BRANCH   8  35
HETATM   35  C8  UNL     1     -10.986  -6.509   1.484  1.00  0.00     0.165 C 
HETATM   36  C9  UNL     1     -10.829  -7.964   1.333  1.00  0.00     0.097 C 
HETATM   37  O3  UNL     1     -12.145  -6.016   1.709  1.00  0.00    -0.292 OA
ENDBRANCH   8  35
TORSDOF 8
ENDMDL
MODEL 3
REMARK VINA RESULT: -7.013284357      4.144      6.461
REMARK  8 active torsions:
REMARK  status: ('A' for Active; 'I' for Inactive)
REMARK    1  A    between atoms: C2_2  and  N1_3 
REMARK    2  A    between atoms: C3_4  and  N2_5 
REMARK    3  A    between atoms: C4_10  and  N4_11 
REMARK    4  A    between atoms: N4_11  and  N5_13 
REMARK       I    between atoms: C5_15  and  N7_17 
REMARK    5  A    between atoms: N7_17  and  N8_19 
REMARK    6  A    between atoms: N8_19  and  O1_23 
REMARK    7  A    between atoms: C6_26  and  O2_27 
REMARK    8  A    between atoms: C7_29  and  C8_30 
ROOT
HETATM    1  N1  UNL     1     -16.942  -5.527   2.092  1.00  0.00    -0.013 N 
HETATM    2  C3  UNL     1     -16.232  -4.423   1.799  1.00  0.00     0.707 A 
HETATM    3  N3  UNL     1     -15.414  -4.438   0.731  1.00  0.00    -0.019 N 
ATOM      4  H3  UNL     1     -14.864  -3.614   0.487  1.00  0.00     0.203 HD
HETATM    5  C4  UNL     1     -15.333  -5.558  -0.008  1.00  0.00     0.734 A 
HETATM    6  N10 UNL     1     -16.050  -6.676   0.285  1.00  0.00     0.048 N 
HETATM    7  C6  UNL     1     -15.958  -7.789  -0.465  1.00  0.00     0.201 A 
HETATM    8  C7  UNL     1     -16.671  -8.950  -0.200  1.00  0.00     0.130 A 
HETATM    9  C10 UNL     1     -17.500  -8.902   0.900  1.00  0.00     0.277 A 
HETATM   10  O4  UNL     1     -18.185  -9.911   1.214  1.00  0.00    -0.266 OA
HETATM   11  N11 UNL     1     -17.568  -7.755   1.637  1.00  0.00    -0.153 N 
ATOM     12  H11 UNL     1     -18.187  -7.737   2.448  1.00  0.00     0.187 HD
HETATM   13  C11 UNL     1     -16.866  -6.657   1.352  1.00  0.00     0.725 A 
ENDROOT
BRANCH   5  14
HETATM   14  N4  UNL     1     -14.568  -5.636  -1.043  1.00  0.00    -0.128 N 
ATOM     15  H4  UNL     1     -13.877  -6.386  -1.059  1.00  0.00     0.205 HD
BRANCH  14  16
HETATM   16  N5  UNL     1     -14.608  -4.790  -2.127  1.00  0.00    -0.258 N 
HETATM   17  C5  UNL     1     -13.599  -4.367  -2.791  1.00  0.00     0.225 C 
HETATM   18  N6  UNL     1     -13.828  -3.501  -3.879  1.00  0.00    -0.060 NA
HETATM   19  N7  UNL     1     -12.256  -4.721  -2.493  1.00  0.00    -0.231 N 
ATOM     20  H7  UNL     1     -12.078  -5.615  -2.035  1.00  0.00     0.194 HD
ATOM     21  H5  UNL     1     -15.528  -4.470  -2.430  1.00  0.00     0.190 HD
BRANCH  19  22
HETATM   22  N8  UNL     1     -11.172  -3.901  -2.800  1.00  0.00    -0.099 N 
HETATM   23  N9  UNL     1     -11.184  -2.696  -2.397  1.00  0.00    -0.303 N 
ATOM     24  H92 UNL     1     -11.995  -2.383  -1.863  1.00  0.00     0.181 HD
ATOM     25  H91 UNL     1     -10.391  -2.095  -2.621  1.00  0.00     0.181 HD
BRANCH  22  26
HETATM   26  O1  UNL     1     -10.080  -4.322  -3.519  1.00  0.00    -0.254 OA
ATOM     27  H1  UNL     1      -9.186  -4.074  -3.312  1.00  0.00     0.248 HD
ENDBRANCH  22  26
ENDBRANCH  19  22
ENDBRANCH  14  16
ENDBRANCH   5  14
BRANCH   2  28
HETATM   28  N2  UNL     1     -16.365  -3.387   2.559  1.00  0.00    -0.233 N 
ATOM     29  H22 UNL     1     -16.756  -3.442   3.500  1.00  0.00     0.174 HD
ATOM     30  H21 UNL     1     -16.066  -2.480   2.201  1.00  0.00     0.174 HD
ENDBRANCH   2  28
BRANCH   7  31
HETATM   31  O2  UNL     1     -15.104  -7.771  -1.560  1.00  0.00    -0.344 OA
ATOM     32  H2  UNL     1     -15.392  -8.196  -2.360  1.00  0.00     0.219 HD
ENDBRANCH   7  31
BRANCH   1  33
HETATM   33  C2  UNL     1     -17.833  -5.554   3.230  1.00  0.00     0.162 C 
HETATM   34  C1  UNL     1     -17.159  -5.999   4.489  1.00  0.00     0.028 C 
ENDBRANCH   1  33
BRANCH   8  35
HETATM   35  C8  UNL     1     -16.531 -10.126  -1.049  1.00  0.00     0.165 C 
HETATM   36  C9  UNL     1     -15.635 -11.250  -0.733  1.00  0.00     0.097 C 
HETATM   37  O3  UNL     1     -17.234 -10.156  -2.118  1.00  0.00    -0.292 OA
ENDBRANCH   8  35
TORSDOF 8
ENDMDL
MODEL 4
REMARK VINA RESULT: -6.949689230      4.579      7.241
REMARK  8 active torsions:
REMARK  status: ('A' for Active; 'I' for Inactive)
REMARK    1  A    between atoms: C2_2  and  N1_3 
REMARK    2  A    between atoms: C3_4  and  N2_5 
REMARK    3  A    between atoms: C4_10  and  N4_11 
REMARK    4  A    between atoms: N4_11  and  N5_13 
REMARK       I    between atoms: C5_15  and  N7_17 
REMARK    5  A    between atoms: N7_17  and  N8_19 
REMARK    6  A    between atoms: N8_19  and  O1_23 
REMARK    7  A    between atoms: C6_26  and  O2_27 
REMARK    8  A    between atoms: C7_29  and  C8_30 
ROOT
HETATM    1  N1  UNL     1     -11.714  -7.718   2.045  1.00  0.00    -0.013 N 
HETATM    2  C3  UNL     1     -12.313  -8.832   2.501  1.00  0.00     0.707 A 
HETATM    3  N3  UNL     1     -13.265  -9.415   1.751  1.00  0.00    -0.019 N 
ATOM      4  H3  UNL     1     -13.735 -10.260   2.074  1.00  0.00     0.203 HD
HETATM    5  C4  UNL     1     -13.585  -8.863   0.566  1.00  0.00     0.734 A 
HETATM    6  N10 UNL     1     -12.979  -7.737   0.101  1.00  0.00     0.048 N 
HETATM    7  C6  UNL     1     -13.311  -7.198  -1.085  1.00  0.00     0.201 A 
HETATM    8  C7  UNL     1     -12.719  -6.052  -1.596  1.00  0.00     0.130 A 
HETATM    9  C10 UNL     1     -11.748  -5.479  -0.802  1.00  0.00     0.277 A 
HETATM   10  O4  UNL     1     -11.158  -4.435  -1.187  1.00  0.00    -0.266 OA
HETATM   11  N11 UNL     1     -11.438  -6.054   0.396  1.00  0.00    -0.153 N 
ATOM     12  H11 UNL     1     -10.717  -5.617   0.970  1.00  0.00     0.187 HD
HETATM   13  C11 UNL     1     -12.030  -7.158   0.854  1.00  0.00     0.725 A 
ENDROOT
BRANCH   5  14
HETATM   14  N4  UNL     1     -14.487  -9.374  -0.199  1.00  0.00    -0.128 N 
ATOM     15  H4  UNL     1     -15.103  -8.727  -0.693  1.00  0.00     0.205 HD
BRANCH  14  16
HETATM   16  N5  UNL     1     -14.688 -10.719  -0.405  1.00  0.00    -0.258 N 
HETATM   17  C5  UNL     1     -14.107 -11.443  -1.285  1.00  0.00     0.225 C 
HETATM   18  N6  UNL     1     -14.437 -12.811  -1.353  1.00  0.00    -0.060 NA
HETATM   19  N7  UNL     1     -13.143 -10.944  -2.202  1.00  0.00    -0.231 N 
ATOM     20  H7  UNL     1     -12.588 -10.132  -1.933  1.00  0.00     0.194 HD
ATOM     21  H5  UNL     1     -15.364 -11.184   0.203  1.00  0.00     0.190 HD
BRANCH  19  22
HETATM   22  N8  UNL     1     -12.924 -11.517  -3.453  1.00  0.00    -0.099 N 
HETATM   23  N9  UNL     1     -12.818 -10.755  -4.465  1.00  0.00    -0.303 N 
ATOM     24  H92 UNL     1     -12.900  -9.750  -4.311  1.00  0.00     0.181 HD
ATOM     25  H91 UNL     1     -12.657 -11.174  -5.381  1.00  0.00     0.181 HD
BRANCH  22  26
HETATM   26  O1  UNL     1     -12.813 -12.871  -3.661  1.00  0.00    -0.254 OA
ATOM     27  H1  UNL     1     -12.745 -13.267  -4.522  1.00  0.00     0.248 HD
ENDBRANCH  22  26
ENDBRANCH  19  22
ENDBRANCH  14  16
ENDBRANCH   5  14
BRANCH   2  28
HETATM   28  N2  UNL     1     -11.949  -9.299   3.650  1.00  0.00    -0.233 N 
ATOM     29  H22 UNL     1     -11.042  -9.739   3.802  1.00  0.00     0.174 HD
ATOM     30  H21 UNL     1     -12.598  -9.223   4.433  1.00  0.00     0.174 HD
ENDBRANCH   2  28
BRANCH   7  31
HETATM   31  O2  UNL     1     -14.298  -7.825  -1.836  1.00  0.00    -0.344 OA
ATOM     32  H2  UNL     1     -15.034  -7.303  -2.133  1.00  0.00     0.219 HD
ENDBRANCH   7  31
BRANCH   1  33
HETATM   33  C2  UNL     1     -10.685  -7.059   2.819  1.00  0.00     0.162 C 
HETATM   34  C1  UNL     1     -11.225  -5.991   3.718  1.00  0.00     0.028 C 
ENDBRANCH   1  33
BRANCH   8  35
HETATM   35  C8  UNL     1     -13.120  -5.513  -2.889  1.00  0.00     0.165 C 
HETATM   36  C9  UNL     1     -14.002  -4.345  -3.042  1.00  0.00     0.097 C 
HETATM   37  O3  UNL     1     -12.666  -6.106  -3.929  1.00  0.00    -0.292 OA
ENDBRANCH   8  35
TORSDOF 8
ENDMDL
MODEL 5
REMARK VINA RESULT: -6.938646798      3.281      5.676
REMARK  8 active torsions:
REMARK  status: ('A' for Active; 'I' for Inactive)
REMARK    1  A    between atoms: C2_2  and  N1_3 
REMARK    2  A    between atoms: C3_4  and  N2_5 
REMARK    3  A    between atoms: C4_10  and  N4_11 
REMARK    4  A    between atoms: N4_11  and  N5_13 
REMARK       I    between atoms: C5_15  and  N7_17 
REMARK    5  A    between atoms: N7_17  and  N8_19 
REMARK    6  A    between atoms: N8_19  and  O1_23 
REMARK    7  A    between atoms: C6_26  and  O2_27 
REMARK    8  A    between atoms: C7_29  and  C8_30 
ROOT
HETATM    1  N1  UNL     1      -9.034  -5.423   2.685  1.00  0.00    -0.013 N 
HETATM    2  C3  UNL     1     -10.109  -6.055   2.181  1.00  0.00     0.707 A 
HETATM    3  N3  UNL     1     -10.455  -5.833   0.900  1.00  0.00    -0.019 N 
ATOM      4  H3  UNL     1     -11.265  -6.300   0.493  1.00  0.00     0.203 HD
HETATM    5  C4  UNL     1      -9.713  -4.985   0.166  1.00  0.00     0.734 A 
HETATM    6  N10 UNL     1      -8.625  -4.344   0.673  1.00  0.00     0.048 N 
HETATM    7  C6  UNL     1      -7.894  -3.499  -0.074  1.00  0.00     0.201 A 
HETATM    8  C7  UNL     1      -6.778  -2.826   0.404  1.00  0.00     0.130 A 
HETATM    9  C10 UNL     1      -6.451  -3.076   1.719  1.00  0.00     0.277 A 
HETATM   10  O4  UNL     1      -5.453  -2.507   2.236  1.00  0.00    -0.266 OA
HETATM   11  N11 UNL     1      -7.216  -3.940   2.447  1.00  0.00    -0.153 N 
ATOM     12  H11 UNL     1      -6.959  -4.114   3.419  1.00  0.00     0.187 HD
HETATM   13  C11 UNL     1      -8.283  -4.569   1.953  1.00  0.00     0.725 A 
ENDROOT
BRANCH   5  14
HETATM   14  N4  UNL     1      -9.992  -4.730  -1.066  1.00  0.00    -0.128 N 
ATOM     15  H4  UNL     1      -9.219  -4.461  -1.675  1.00  0.00     0.205 HD
BRANCH  14  16
HETATM   16  N5  UNL     1     -11.247  -4.792  -1.627  1.00  0.00    -0.258 N 
HETATM   17  C5  UNL     1     -11.766  -3.924  -2.411  1.00  0.00     0.225 C 
HETATM   18  N6  UNL     1     -13.071  -4.152  -2.893  1.00  0.00    -0.060 NA
HETATM   19  N7  UNL     1     -11.100  -2.739  -2.824  1.00  0.00    -0.231 N 
ATOM     20  H7  UNL     1     -10.081  -2.739  -2.859  1.00  0.00     0.194 HD
ATOM     21  H5  UNL     1     -11.816  -5.606  -1.396  1.00  0.00     0.190 HD
BRANCH  19  22
HETATM   22  N8  UNL     1     -11.780  -1.578  -3.185  1.00  0.00    -0.099 N 
HETATM   23  N9  UNL     1     -11.365  -0.462  -2.738  1.00  0.00    -0.303 N 
ATOM     24  H92 UNL     1     -10.546  -0.471  -2.130  1.00  0.00     0.181 HD
ATOM     25  H91 UNL     1     -11.863   0.388  -3.002  1.00  0.00     0.181 HD
BRANCH  22  26
HETATM   26  O1  UNL     1     -12.884  -1.565  -4.004  1.00  0.00    -0.254 OA
ATOM     27  H1  UNL     1     -13.107  -0.839  -4.575  1.00  0.00     0.248 HD
ENDBRANCH  22  26
ENDBRANCH  19  22
ENDBRANCH  14  16
ENDBRANCH   5  14
BRANCH   2  28
HETATM   28  N2  UNL     1     -10.770  -6.855   2.952  1.00  0.00    -0.233 N 
ATOM     29  H22 UNL     1     -11.038  -6.603   3.903  1.00  0.00     0.174 HD
ATOM     30  H21 UNL     1     -11.031  -7.772   2.591  1.00  0.00     0.174 HD
ENDBRANCH   2  28
BRANCH   7  31
HETATM   31  O2  UNL     1      -8.277  -3.292  -1.393  1.00  0.00    -0.344 OA
ATOM     32  H2  UNL     1      -7.809  -3.759  -2.076  1.00  0.00     0.219 HD
ENDBRANCH   7  31
BRANCH   1  33
HETATM   33  C2  UNL     1      -8.627  -5.634   4.057  1.00  0.00     0.162 C 
HETATM   34  C1  UNL     1      -9.266  -4.672   5.009  1.00  0.00     0.028 C 
ENDBRANCH   1  33
BRANCH   8  35
HETATM   35  C8  UNL     1      -6.023  -1.922  -0.454  1.00  0.00     0.165 C 
HETATM   36  C9  UNL     1      -4.785  -2.310  -1.149  1.00  0.00     0.097 C 
HETATM   37  O3  UNL     1      -6.483  -0.735  -0.592  1.00  0.00    -0.292 OA
ENDBRANCH   8  35
TORSDOF 8
ENDMDL
