MODEL 1
REMARK VINA RESULT: -7.679801287      0.000      0.000
REMARK  8 active torsions:
REMARK  status: ('A' for Active; 'I' for Inactive)
REMARK    1  A    between atoms: N2_5  and  C4_6 
REMARK    2  A    between atoms: C5_9  and  N4_10 
REMARK    3  A    between atoms: N4_10  and  N5_12 
REMARK    4  A    between atoms: N5_12  and  C6_14 
REMARK    5  A    between atoms: C7_15  and  C8_16 
REMARK    6  A    between atoms: C8_16  and  O1_17 
REMARK    7  A    between atoms: C8_16  and  O2_19 
REMARK    8  A    between atoms: N7_25  and  N8_26 
ROOT
HETATM    1  N4  UNL     1     -12.201  -1.283  -4.198  1.00  0.00    -0.129 N 
ATOM      2  H4  UNL     1     -11.514  -1.229  -4.950  1.00  0.00     0.205 HD
ENDROOT
BRANCH   1   3
HETATM    3  C5  UNL     1     -12.252  -2.431  -3.364  1.00  0.00     0.726 A 
HETATM    4  N3  UNL     1     -13.223  -3.345  -3.230  1.00  0.00    -0.017 N 
HETATM    5  C4  UNL     1     -12.826  -4.247  -2.326  1.00  0.00     0.728 A 
ATOM      6  H3  UNL     1     -14.112  -3.351  -3.730  1.00  0.00     0.203 HD
HETATM    7  N10 UNL     1     -11.611  -3.874  -1.916  1.00  0.00    -0.116 N 
HETATM    8  N9  UNL     1     -11.271  -2.784  -2.541  1.00  0.00    -0.116 N 
ATOM      9  H10 UNL     1     -11.042  -4.364  -1.225  1.00  0.00     0.206 HD
ATOM     10  H9  UNL     1     -10.392  -2.281  -2.419  1.00  0.00     0.206 HD
BRANCH   5  11
HETATM   11  N2  UNL     1     -13.543  -5.399  -1.869  1.00  0.00    -0.116 N 
HETATM   12  C3  UNL     1     -14.598  -5.242  -0.902  1.00  0.00     0.188 C 
HETATM   13  C2  UNL     1     -14.421  -6.303   0.163  1.00  0.00     0.149 C 
HETATM   14  N1  UNL     1     -14.533  -7.593  -0.484  1.00  0.00    -0.336 N 
HETATM   15  C1  UNL     1     -15.437  -8.571   0.078  1.00  0.00     0.154 C 
HETATM   16  C10 UNL     1     -13.736  -7.812  -1.641  1.00  0.00     0.337 C 
HETATM   17  N11 UNL     1     -13.229  -6.664  -2.349  1.00  0.00    -0.235 N 
HETATM   18  O4  UNL     1     -13.514  -8.989  -1.988  1.00  0.00    -0.245 OA
ATOM     19  H11 UNL     1     -12.653  -6.778  -3.183  1.00  0.00     0.192 HD
ENDBRANCH   5  11
ENDBRANCH   1   3
BRANCH   1  20
HETATM   20  N5  UNL     1     -13.022  -0.308  -4.006  1.00  0.00    -0.268 N 
ATOM     21  H5  UNL     1     -13.180   0.022  -3.053  1.00  0.00     0.189 HD
BRANCH  20  22
HETATM   22  C6  UNL     1     -13.709   0.318  -5.063  1.00  0.00     0.174 A 
HETATM   23  C7  UNL     1     -14.796  -0.200  -5.722  1.00  0.00     0.116 A 
HETATM   24  N6  UNL     1     -15.167   0.703  -6.672  1.00  0.00    -0.303 N 
HETATM   25  C9  UNL     1     -14.344   1.753  -6.615  1.00  0.00     0.347 A 
ATOM     26  H6  UNL     1     -15.947   0.595  -7.321  1.00  0.00     0.170 HD
HETATM   27  O3  UNL     1     -14.384   2.792  -7.352  1.00  0.00    -0.245 OA
HETATM   28  N7  UNL     1     -13.450   1.504  -5.620  1.00  0.00    -0.192 N 
BRANCH  23  29
HETATM   29  C8  UNL     1     -15.516  -1.482  -5.528  1.00  0.00     0.309 C 
BRANCH  29  30
HETATM   30  O1  UNL     1     -15.843  -1.635  -4.176  1.00  0.00    -0.366 OA
ATOM     31  H1  UNL     1     -16.411  -2.388  -4.071  1.00  0.00     0.213 HD
ENDBRANCH  29  30
BRANCH  29  32
HETATM   32  O2  UNL     1     -14.686  -2.577  -5.842  1.00  0.00    -0.366 OA
ATOM     33  H2  UNL     1     -13.931  -2.607  -5.267  1.00  0.00     0.213 HD
ENDBRANCH  29  32
ENDBRANCH  23  29
BRANCH  28  34
HETATM   34  N8  UNL     1     -12.439   2.389  -5.278  1.00  0.00    -0.333 N 
ATOM     35  H82 UNL     1     -11.969   2.369  -4.373  1.00  0.00     0.177 HD
ATOM     36  H81 UNL     1     -12.051   3.136  -5.855  1.00  0.00     0.177 HD
ENDBRANCH  28  34
ENDBRANCH  20  22
ENDBRANCH   1  20
TORSDOF 8
ENDMDL
MODEL 2
REMARK VINA RESULT: -7.644838862      3.374      8.463
REMARK  8 active torsions:
REMARK  status: ('A' for Active; 'I' for Inactive)
REMARK    1  A    between atoms: N2_5  and  C4_6 
REMARK    2  A    between atoms: C5_9  and  N4_10 
REMARK    3  A    between atoms: N4_10  and  N5_12 
REMARK    4  A    between atoms: N5_12  and  C6_14 
REMARK    5  A    between atoms: C7_15  and  C8_16 
REMARK    6  A    between atoms: C8_16  and  O1_17 
REMARK    7  A    between atoms: C8_16  and  O2_19 
REMARK    8  A    between atoms: N7_25  and  N8_26 
ROOT
HETATM    1  N4  UNL     1     -11.155  -3.842  -2.345  1.00  0.00    -0.129 N 
ATOM      2  H4  UNL     1     -11.886  -4.512  -2.106  1.00  0.00     0.205 HD
ENDROOT
BRANCH   1   3
HETATM    3  C5  UNL     1     -11.504  -2.560  -2.845  1.00  0.00     0.726 A 
HETATM    4  N3  UNL     1     -12.373  -2.228  -3.811  1.00  0.00    -0.017 N 
HETATM    5  C4  UNL     1     -12.370  -0.897  -3.938  1.00  0.00     0.728 A 
ATOM      6  H3  UNL     1     -12.939  -2.880  -4.355  1.00  0.00     0.203 HD
HETATM    7  N10 UNL     1     -11.496  -0.426  -3.044  1.00  0.00    -0.116 N 
HETATM    8  N9  UNL     1     -10.979  -1.427  -2.391  1.00  0.00    -0.116 N 
ATOM      9  H10 UNL     1     -11.271   0.558  -2.897  1.00  0.00     0.206 HD
ATOM     10  H9  UNL     1     -10.282  -1.353  -1.650  1.00  0.00     0.206 HD
BRANCH   5  11
HETATM   11  N2  UNL     1     -13.143  -0.105  -4.845  1.00  0.00    -0.116 N 
HETATM   12  C3  UNL     1     -14.200  -0.720  -5.604  1.00  0.00     0.188 C 
HETATM   13  C2  UNL     1     -14.083  -0.251  -7.038  1.00  0.00     0.149 C 
HETATM   14  N1  UNL     1     -14.247   1.186  -7.041  1.00  0.00    -0.336 N 
HETATM   15  C1  UNL     1     -15.200   1.771  -7.958  1.00  0.00     0.154 C 
HETATM   16  C10 UNL     1     -13.449   1.935  -6.133  1.00  0.00     0.337 C 
HETATM   17  N11 UNL     1     -12.883   1.252  -4.998  1.00  0.00    -0.235 N 
HETATM   18  O4  UNL     1     -13.278   3.149  -6.362  1.00  0.00    -0.245 OA
ATOM     19  H11 UNL     1     -12.304   1.751  -4.323  1.00  0.00     0.192 HD
ENDBRANCH   5  11
ENDBRANCH   1   3
BRANCH   1  20
HETATM   20  N5  UNL     1      -9.915  -4.160  -2.192  1.00  0.00    -0.268 N 
ATOM     21  H5  UNL     1      -9.377  -4.447  -3.010  1.00  0.00     0.189 HD
BRANCH  20  22
HETATM   22  C6  UNL     1      -9.278  -4.125  -0.939  1.00  0.00     0.174 A 
HETATM   23  C7  UNL     1      -9.565  -4.948   0.122  1.00  0.00     0.116 A 
HETATM   24  N6  UNL     1      -8.735  -4.601   1.146  1.00  0.00    -0.303 N 
HETATM   25  C9  UNL     1      -7.952  -3.596   0.744  1.00  0.00     0.347 A 
ATOM     26  H6  UNL     1      -8.714  -5.038   2.067  1.00  0.00     0.170 HD
HETATM   27  O3  UNL     1      -7.052  -3.012   1.433  1.00  0.00    -0.245 OA
HETATM   28  N7  UNL     1      -8.295  -3.312  -0.541  1.00  0.00    -0.192 N 
BRANCH  23  29
HETATM   29  C8  UNL     1     -10.563  -6.037   0.251  1.00  0.00     0.309 C 
BRANCH  29  30
HETATM   30  O1  UNL     1     -11.812  -5.581  -0.187  1.00  0.00    -0.366 OA
ATOM     31  H1  UNL     1     -12.442  -5.659   0.520  1.00  0.00     0.213 HD
ENDBRANCH  29  30
BRANCH  29  32
HETATM   32  O2  UNL     1     -10.744  -6.396   1.602  1.00  0.00    -0.366 OA
ATOM     33  H2  UNL     1     -10.726  -7.340   1.707  1.00  0.00     0.213 HD
ENDBRANCH  29  32
ENDBRANCH  23  29
BRANCH  28  34
HETATM   34  N8  UNL     1      -7.681  -2.314  -1.280  1.00  0.00    -0.333 N 
ATOM     35  H82 UNL     1      -7.843  -2.186  -2.280  1.00  0.00     0.177 HD
ATOM     36  H81 UNL     1      -7.022  -1.611  -0.943  1.00  0.00     0.177 HD
ENDBRANCH  28  34
ENDBRANCH  20  22
ENDBRANCH   1  20
TORSDOF 8
ENDMDL
MODEL 3
REMARK VINA RESULT: -7.564428549      4.003      5.298
REMARK  8 active torsions:
REMARK  status: ('A' for Active; 'I' for Inactive)
REMARK    1  A    between atoms: N2_5  and  C4_6 
REMARK    2  A    between atoms: C5_9  and  N4_10 
REMARK    3  A    between atoms: N4_10  and  N5_12 
REMARK    4  A    between atoms: N5_12  and  C6_14 
REMARK    5  A    between atoms: C7_15  and  C8_16 
REMARK    6  A    between atoms: C8_16  and  O1_17 
REMARK    7  A    between atoms: C8_16  and  O2_19 
REMARK    8  A    between atoms: N7_25  and  N8_26 
ROOT
HETATM    1  N4  UNL     1     -12.204  -2.255  -3.889  1.00  0.00    -0.129 N 
ATOM      2  H4  UNL     1     -12.529  -2.824  -4.671  1.00  0.00     0.205 HD
ENDROOT
BRANCH   1   3
HETATM    3  C5  UNL     1     -11.276  -2.794  -2.959  1.00  0.00     0.726 A 
HETATM    4  N3  UNL     1     -10.119  -2.283  -2.515  1.00  0.00    -0.017 N 
HETATM    5  C4  UNL     1      -9.586  -3.148  -1.645  1.00  0.00     0.728 A 
ATOM      6  H3  UNL     1      -9.715  -1.388  -2.792  1.00  0.00     0.203 HD
HETATM    7  N10 UNL     1     -10.426  -4.184  -1.567  1.00  0.00    -0.116 N 
HETATM    8  N9  UNL     1     -11.438  -3.968  -2.357  1.00  0.00    -0.116 N 
ATOM      9  H10 UNL     1     -10.295  -5.010  -0.982  1.00  0.00     0.206 HD
ATOM     10  H9  UNL     1     -12.228  -4.598  -2.492  1.00  0.00     0.206 HD
BRANCH   5  11
HETATM   11  N2  UNL     1      -8.357  -3.016  -0.924  1.00  0.00    -0.116 N 
HETATM   12  C3  UNL     1      -8.087  -3.890   0.187  1.00  0.00     0.188 C 
HETATM   13  C2  UNL     1      -7.560  -3.049   1.330  1.00  0.00     0.149 C 
HETATM   14  N1  UNL     1      -6.333  -2.427   0.884  1.00  0.00    -0.336 N 
HETATM   15  C1  UNL     1      -5.158  -2.540   1.718  1.00  0.00     0.154 C 
HETATM   16  C10 UNL     1      -6.367  -1.737  -0.359  1.00  0.00     0.337 C 
HETATM   17  N11 UNL     1      -7.423  -2.053  -1.287  1.00  0.00    -0.235 N 
HETATM   18  O4  UNL     1      -5.480  -0.890  -0.587  1.00  0.00    -0.245 OA
ATOM     19  H11 UNL     1      -7.484  -1.580  -2.189  1.00  0.00     0.192 HD
ENDBRANCH   5  11
ENDBRANCH   1   3
BRANCH   1  20
HETATM   20  N5  UNL     1     -12.635  -1.050  -3.746  1.00  0.00    -0.268 N 
ATOM     21  H5  UNL     1     -12.280  -0.489  -2.971  1.00  0.00     0.189 HD
BRANCH  20  22
HETATM   22  C6  UNL     1     -13.578  -0.478  -4.620  1.00  0.00     0.174 A 
HETATM   23  C7  UNL     1     -14.742  -1.077  -5.035  1.00  0.00     0.116 A 
HETATM   24  N6  UNL     1     -15.375  -0.205  -5.870  1.00  0.00    -0.303 N 
HETATM   25  C9  UNL     1     -14.637   0.903  -5.977  1.00  0.00     0.347 A 
ATOM     26  H6  UNL     1     -16.266  -0.371  -6.336  1.00  0.00     0.170 HD
HETATM   27  O3  UNL     1     -14.912   1.935  -6.673  1.00  0.00    -0.245 OA
HETATM   28  N7  UNL     1     -13.533   0.723  -5.203  1.00  0.00    -0.192 N 
BRANCH  23  29
HETATM   29  C8  UNL     1     -15.307  -2.408  -4.709  1.00  0.00     0.309 C 
BRANCH  29  30
HETATM   30  O1  UNL     1     -14.914  -2.779  -3.418  1.00  0.00    -0.366 OA
ATOM     31  H1  UNL     1     -14.261  -2.168  -3.098  1.00  0.00     0.213 HD
ENDBRANCH  29  30
BRANCH  29  32
HETATM   32  O2  UNL     1     -14.784  -3.400  -5.563  1.00  0.00    -0.366 OA
ATOM     33  H2  UNL     1     -13.974  -3.754  -5.215  1.00  0.00     0.213 HD
ENDBRANCH  29  32
ENDBRANCH  23  29
BRANCH  28  34
HETATM   34  N8  UNL     1     -12.539   1.681  -5.075  1.00  0.00    -0.333 N 
ATOM     35  H82 UNL     1     -12.382   2.204  -4.213  1.00  0.00     0.177 HD
ATOM     36  H81 UNL     1     -11.870   1.975  -5.787  1.00  0.00     0.177 HD
ENDBRANCH  28  34
ENDBRANCH  20  22
ENDBRANCH   1  20
TORSDOF 8
ENDMDL
MODEL 4
REMARK VINA RESULT: -7.545623313      4.177      5.406
REMARK  8 active torsions:
REMARK  status: ('A' for Active; 'I' for Inactive)
REMARK    1  A    between atoms: N2_5  and  C4_6 
REMARK    2  A    between atoms: C5_9  and  N4_10 
REMARK    3  A    between atoms: N4_10  and  N5_12 
REMARK    4  A    between atoms: N5_12  and  C6_14 
REMARK    5  A    between atoms: C7_15  and  C8_16 
REMARK    6  A    between atoms: C8_16  and  O1_17 
REMARK    7  A    between atoms: C8_16  and  O2_19 
REMARK    8  A    between atoms: N7_25  and  N8_26 
ROOT
HETATM    1  N4  UNL     1     -11.835  -2.616  -3.796  1.00  0.00    -0.129 N 
ATOM      2  H4  UNL     1     -12.216  -3.214  -4.529  1.00  0.00     0.205 HD
ENDROOT
BRANCH   1   3
HETATM    3  C5  UNL     1     -10.743  -3.068  -3.009  1.00  0.00     0.726 A 
HETATM    4  N3  UNL     1     -10.020  -2.408  -2.093  1.00  0.00    -0.017 N 
HETATM    5  C4  UNL     1      -9.093  -3.242  -1.611  1.00  0.00     0.728 A 
ATOM      6  H3  UNL     1     -10.154  -1.436  -1.813  1.00  0.00     0.203 HD
HETATM    7  N10 UNL     1      -9.259  -4.410  -2.239  1.00  0.00    -0.116 N 
HETATM    8  N9  UNL     1     -10.250  -4.300  -3.077  1.00  0.00    -0.116 N 
ATOM      9  H10 UNL     1      -8.701  -5.249  -2.087  1.00  0.00     0.206 HD
ATOM     10  H9  UNL     1     -10.592  -5.041  -3.688  1.00  0.00     0.206 HD
BRANCH   5  11
HETATM   11  N2  UNL     1      -8.103  -2.966  -0.615  1.00  0.00    -0.116 N 
HETATM   12  C3  UNL     1      -7.019  -2.069  -0.919  1.00  0.00     0.188 C 
HETATM   13  C2  UNL     1      -5.733  -2.704  -0.432  1.00  0.00     0.149 C 
HETATM   14  N1  UNL     1      -5.846  -2.872   1.000  1.00  0.00    -0.336 N 
HETATM   15  C1  UNL     1      -4.774  -2.385   1.839  1.00  0.00     0.154 C 
HETATM   16  C10 UNL     1      -7.016  -3.513   1.491  1.00  0.00     0.337 C 
HETATM   17  N11 UNL     1      -8.179  -3.555   0.642  1.00  0.00    -0.235 N 
HETATM   18  O4  UNL     1      -6.980  -4.010   2.634  1.00  0.00    -0.245 OA
ATOM     19  H11 UNL     1      -9.038  -4.006   0.955  1.00  0.00     0.192 HD
ENDBRANCH   5  11
ENDBRANCH   1   3
BRANCH   1  20
HETATM   20  N5  UNL     1     -12.344  -1.451  -3.585  1.00  0.00    -0.268 N 
ATOM     21  H5  UNL     1     -11.966  -0.878  -2.829  1.00  0.00     0.189 HD
BRANCH  20  22
HETATM   22  C6  UNL     1     -13.403  -0.941  -4.358  1.00  0.00     0.174 A 
HETATM   23  C7  UNL     1     -14.550  -1.621  -4.682  1.00  0.00     0.116 A 
HETATM   24  N6  UNL     1     -15.321  -0.788  -5.437  1.00  0.00    -0.303 N 
HETATM   25  C9  UNL     1     -14.682   0.376  -5.583  1.00  0.00     0.347 A 
ATOM     26  H6  UNL     1     -16.235  -1.016  -5.827  1.00  0.00     0.170 HD
HETATM   27  O3  UNL     1     -15.097   1.395  -6.228  1.00  0.00    -0.245 OA
HETATM   28  N7  UNL     1     -13.503   0.270  -4.914  1.00  0.00    -0.192 N 
BRANCH  23  29
HETATM   29  C8  UNL     1     -14.981  -2.998  -4.338  1.00  0.00     0.309 C 
BRANCH  29  30
HETATM   30  O1  UNL     1     -14.592  -3.295  -3.027  1.00  0.00    -0.366 OA
ATOM     31  H1  UNL     1     -14.305  -2.500  -2.594  1.00  0.00     0.213 HD
ENDBRANCH  29  30
BRANCH  29  32
HETATM   32  O2  UNL     1     -14.328  -3.947  -5.150  1.00  0.00    -0.366 OA
ATOM     33  H2  UNL     1     -13.633  -4.383  -4.670  1.00  0.00     0.213 HD
ENDBRANCH  29  32
ENDBRANCH  23  29
BRANCH  28  34
HETATM   34  N8  UNL     1     -12.577   1.300  -4.853  1.00  0.00    -0.333 N 
ATOM     35  H82 UNL     1     -11.597   1.150  -4.613  1.00  0.00     0.177 HD
ATOM     36  H81 UNL     1     -12.744   2.291  -5.031  1.00  0.00     0.177 HD
ENDBRANCH  28  34
ENDBRANCH  20  22
ENDBRANCH   1  20
TORSDOF 8
ENDMDL
MODEL 5
REMARK VINA RESULT: -7.520136985      2.635      4.052
REMARK  8 active torsions:
REMARK  status: ('A' for Active; 'I' for Inactive)
REMARK    1  A    between atoms: N2_5  and  C4_6 
REMARK    2  A    between atoms: C5_9  and  N4_10 
REMARK    3  A    between atoms: N4_10  and  N5_12 
REMARK    4  A    between atoms: N5_12  and  C6_14 
REMARK    5  A    between atoms: C7_15  and  C8_16 
REMARK    6  A    between atoms: C8_16  and  O1_17 
REMARK    7  A    between atoms: C8_16  and  O2_19 
REMARK    8  A    between atoms: N7_25  and  N8_26 
ROOT
HETATM    1  N4  UNL     1     -14.131  -4.164  -2.212  1.00  0.00    -0.129 N 
ATOM      2  H4  UNL     1     -14.585  -3.502  -1.582  1.00  0.00     0.205 HD
ENDROOT
BRANCH   1   3
HETATM    3  C5  UNL     1     -13.786  -5.461  -1.748  1.00  0.00     0.726 A 
HETATM    4  N3  UNL     1     -14.354  -6.644  -2.022  1.00  0.00    -0.017 N 
HETATM    5  C4  UNL     1     -13.688  -7.593  -1.356  1.00  0.00     0.728 A 
ATOM      6  H3  UNL     1     -15.157  -6.794  -2.634  1.00  0.00     0.203 HD
HETATM    7  N10 UNL     1     -12.715  -6.978  -0.678  1.00  0.00    -0.116 N 
HETATM    8  N9  UNL     1     -12.778  -5.699  -0.916  1.00  0.00    -0.116 N 
ATOM      9  H10 UNL     1     -12.033  -7.436  -0.073  1.00  0.00     0.206 HD
ATOM     10  H9  UNL     1     -12.153  -4.994  -0.526  1.00  0.00     0.206 HD
BRANCH   5  11
HETATM   11  N2  UNL     1     -13.945  -9.000  -1.352  1.00  0.00    -0.116 N 
HETATM   12  C3  UNL     1     -14.607  -9.599  -0.222  1.00  0.00     0.188 C 
HETATM   13  C2  UNL     1     -13.855 -10.859   0.150  1.00  0.00     0.149 C 
HETATM   14  N1  UNL     1     -13.914 -11.753  -0.985  1.00  0.00    -0.336 N 
HETATM   15  C1  UNL     1     -14.341 -13.117  -0.769  1.00  0.00     0.154 C 
HETATM   16  C10 UNL     1     -13.542 -11.223  -2.251  1.00  0.00     0.337 C 
HETATM   17  N11 UNL     1     -13.562  -9.793  -2.427  1.00  0.00    -0.235 N 
HETATM   18  O4  UNL     1     -13.216 -12.023  -3.151  1.00  0.00    -0.245 OA
ATOM     19  H11 UNL     1     -13.302  -9.373  -3.318  1.00  0.00     0.192 HD
ENDBRANCH   5  11
ENDBRANCH   1   3
BRANCH   1  20
HETATM   20  N5  UNL     1     -13.870  -3.822  -3.426  1.00  0.00    -0.268 N 
ATOM     21  H5  UNL     1     -13.941  -4.526  -4.162  1.00  0.00     0.189 HD
BRANCH  20  22
HETATM   22  C6  UNL     1     -13.492  -2.512  -3.776  1.00  0.00     0.174 A 
HETATM   23  C7  UNL     1     -12.246  -1.968  -3.587  1.00  0.00     0.116 A 
HETATM   24  N6  UNL     1     -12.284  -0.688  -4.054  1.00  0.00    -0.303 N 
HETATM   25  C9  UNL     1     -13.510  -0.435  -4.520  1.00  0.00     0.347 A 
ATOM     26  H6  UNL     1     -11.504  -0.031  -4.049  1.00  0.00     0.170 HD
HETATM   27  O3  UNL     1     -13.917   0.659  -5.033  1.00  0.00    -0.245 OA
HETATM   28  N7  UNL     1     -14.245  -1.565  -4.343  1.00  0.00    -0.192 N 
BRANCH  23  29
HETATM   29  C8  UNL     1     -11.018  -2.557  -3.001  1.00  0.00     0.309 C 
BRANCH  29  30
HETATM   30  O1  UNL     1     -10.635  -3.677  -3.748  1.00  0.00    -0.366 OA
ATOM     31  H1  UNL     1      -9.968  -3.425  -4.377  1.00  0.00     0.213 HD
ENDBRANCH  29  30
BRANCH  29  32
HETATM   32  O2  UNL     1     -11.263  -3.038  -1.699  1.00  0.00    -0.366 OA
ATOM     33  H2  UNL     1     -10.732  -2.576  -1.062  1.00  0.00     0.213 HD
ENDBRANCH  29  32
ENDBRANCH  23  29
BRANCH  28  34
HETATM   34  N8  UNL     1     -15.576  -1.663  -4.716  1.00  0.00    -0.333 N 
ATOM     35  H82 UNL     1     -16.162  -0.848  -4.896  1.00  0.00     0.177 HD
ATOM     36  H81 UNL     1     -16.118  -2.517  -4.853  1.00  0.00     0.177 HD
ENDBRANCH  28  34
ENDBRANCH  20  22
ENDBRANCH   1  20
TORSDOF 8
ENDMDL
