MODEL 1
REMARK VINA RESULT: -8.882183777      0.000      0.000
REMARK  11 active torsions:
REMARK  status: ('A' for Active; 'I' for Inactive)
REMARK    1  A    between atoms: O1_2  and  C2_3 
REMARK       I    between atoms: C2_3  and  N1_5 
REMARK    2  A    between atoms: C5_10  and  C6_11 
REMARK       I    between atoms: C6_11  and  N2_13 
REMARK    3  A    between atoms: N2_13  and  C7_15 
REMARK    4  A    between atoms: C7_15  and  C8_16 
REMARK       I    between atoms: N3_19  and  C11_20 
REMARK    5  A    between atoms: C11_20  and  O5_22 
REMARK    6  A    between atoms: O5_22  and  C12_23 
REMARK    7  A    between atoms: C12_23  and  C13_24 
REMARK    8  A    between atoms: C16_27  and  C17_28 
REMARK    9  A    between atoms: C17_28  and  C18_29 
REMARK   10  A    between atoms: C18_29  and  N4_31 
REMARK   11  A    between atoms: C21_33  and  O6_34 
ROOT
HETATM    1  C2  UNL     1       8.349   9.943  20.435  1.00  0.00     0.381 C 
HETATM    2  O2  UNL     1       8.832   9.167  19.589  1.00  0.00    -0.236 OA
HETATM    3  N1  UNL     1       7.248   9.632  21.255  1.00  0.00    -0.223 N 
HETATM    4  C3  UNL     1       6.689  10.542  22.275  1.00  0.00     0.236 C 
HETATM    5  C4  UNL     1       5.764   9.657  23.076  1.00  0.00     0.292 C 
HETATM    6  F1  UNL     1       4.440   9.854  22.737  1.00  0.00    -0.202 F 
HETATM    7  F2  UNL     1       5.950   9.896  24.422  1.00  0.00    -0.202 F 
HETATM    8  C5  UNL     1       6.190   8.260  22.689  1.00  0.00     0.279 C 
HETATM    9  N3  UNL     1       6.496   8.460  21.269  1.00  0.00    -0.210 N 
HETATM   10  C11 UNL     1       6.110   7.672  20.159  1.00  0.00     0.383 C 
HETATM   11  O4  UNL     1       6.393   7.959  18.976  1.00  0.00    -0.236 OA
ENDROOT
BRANCH   8  12
HETATM   12  C6  UNL     1       7.410   7.864  23.419  1.00  0.00     0.248 C 
HETATM   13  O3  UNL     1       8.349   7.263  22.806  1.00  0.00    -0.271 OA
HETATM   14  N2  UNL     1       7.602   8.123  24.803  1.00  0.00    -0.359 N 
ATOM     15  H2  UNL     1       6.866   8.605  25.318  1.00  0.00     0.162 HD
BRANCH  14  16
HETATM   16  C7  UNL     1       8.800   7.729  25.508  1.00  0.00     0.127 C 
BRANCH  16  17
HETATM   17  C8  UNL     1       9.815   8.838  25.507  1.00  0.00     0.003 A 
HETATM   18  C9  UNL     1      11.233   8.532  25.866  1.00  0.00     0.007 A 
HETATM   19  C10 UNL     1      10.862   8.963  24.494  1.00  0.00     0.007 A 
ENDBRANCH  16  17
ENDBRANCH  14  16
ENDBRANCH   8  12
BRANCH  10  20
HETATM   20  O5  UNL     1       5.375   6.499  20.311  1.00  0.00    -0.302 OA
BRANCH  20  21
HETATM   21  C12 UNL     1       5.834   5.270  20.745  1.00  0.00     0.185 C 
BRANCH  21  22
HETATM   22  C13 UNL     1       5.926   4.180  19.735  1.00  0.00     0.010 C 
HETATM   23  C14 UNL     1       6.797   4.486  18.549  1.00  0.00     0.007 C 
HETATM   24  C15 UNL     1       8.242   4.344  18.955  1.00  0.00     0.005 C 
HETATM   25  C16 UNL     1       8.655   2.868  19.112  1.00  0.00    -0.013 C 
HETATM   26  C23 UNL     1       7.381   2.142  19.452  1.00  0.00     0.005 C 
HETATM   27  C24 UNL     1       6.534   2.975  20.429  1.00  0.00     0.007 C 
BRANCH  25  28
HETATM   28  C17 UNL     1       9.312   2.485  17.843  1.00  0.00     0.040 C 
BRANCH  28  29
HETATM   29  C18 UNL     1       9.317   1.054  17.451  1.00  0.00     0.219 C 
HETATM   30  C19 UNL     1      10.549   0.298  17.778  1.00  0.00     0.043 C 
BRANCH  29  31
HETATM   31  N4  UNL     1       8.878   0.874  16.075  1.00  0.00     0.097 N 
HETATM   32  C20 UNL     1       8.150  -0.314  15.772  1.00  0.00     0.306 C 
HETATM   33  C21 UNL     1       6.866   0.417  16.079  1.00  0.00     0.174 C 
HETATM   34  C22 UNL     1       7.687   1.640  15.731  1.00  0.00     0.306 C 
BRANCH  33  35
HETATM   35  O6  UNL     1       5.808   0.149  15.213  1.00  0.00    -0.392 OA
ATOM     36  H6  UNL     1       4.949   0.125  15.619  1.00  0.00     0.210 HD
ENDBRANCH  33  35
ENDBRANCH  29  31
ENDBRANCH  28  29
ENDBRANCH  25  28
ENDBRANCH  21  22
ENDBRANCH  20  21
ENDBRANCH  10  20
BRANCH   1  37
HETATM   37  O1  UNL     1       8.968  11.203  20.548  1.00  0.00    -0.308 OA
HETATM   38  C1  UNL     1       8.223  12.335  20.177  1.00  0.00     0.215 C 
ENDBRANCH   1  37
TORSDOF 11
ENDMDL
MODEL 2
REMARK VINA RESULT: -8.861708505      1.439      1.747
REMARK  11 active torsions:
REMARK  status: ('A' for Active; 'I' for Inactive)
REMARK    1  A    between atoms: O1_2  and  C2_3 
REMARK       I    between atoms: C2_3  and  N1_5 
REMARK    2  A    between atoms: C5_10  and  C6_11 
REMARK       I    between atoms: C6_11  and  N2_13 
REMARK    3  A    between atoms: N2_13  and  C7_15 
REMARK    4  A    between atoms: C7_15  and  C8_16 
REMARK       I    between atoms: N3_19  and  C11_20 
REMARK    5  A    between atoms: C11_20  and  O5_22 
REMARK    6  A    between atoms: O5_22  and  C12_23 
REMARK    7  A    between atoms: C12_23  and  C13_24 
REMARK    8  A    between atoms: C16_27  and  C17_28 
REMARK    9  A    between atoms: C17_28  and  C18_29 
REMARK   10  A    between atoms: C18_29  and  N4_31 
REMARK   11  A    between atoms: C21_33  and  O6_34 
ROOT
HETATM    1  C2  UNL     1       8.182  11.247  21.137  1.00  0.00     0.381 C 
HETATM    2  O2  UNL     1       9.021  11.186  20.220  1.00  0.00    -0.236 OA
HETATM    3  N1  UNL     1       7.599  10.122  21.752  1.00  0.00    -0.223 N 
HETATM    4  C3  UNL     1       6.622  10.193  22.857  1.00  0.00     0.236 C 
HETATM    5  C4  UNL     1       6.549   8.773  23.362  1.00  0.00     0.292 C 
HETATM    6  F1  UNL     1       5.413   8.125  22.918  1.00  0.00    -0.202 F 
HETATM    7  F2  UNL     1       6.589   8.772  24.742  1.00  0.00    -0.202 F 
HETATM    8  C5  UNL     1       7.776   8.124  22.765  1.00  0.00     0.279 C 
HETATM    9  N3  UNL     1       7.812   8.780  21.454  1.00  0.00    -0.210 N 
HETATM   10  C11 UNL     1       7.997   8.199  20.177  1.00  0.00     0.383 C 
HETATM   11  O4  UNL     1       7.968   8.852  19.111  1.00  0.00    -0.236 OA
ENDROOT
BRANCH   8  12
HETATM   12  C6  UNL     1       8.982   8.473  23.539  1.00  0.00     0.248 C 
HETATM   13  O3  UNL     1      10.021   8.899  22.939  1.00  0.00    -0.271 OA
HETATM   14  N2  UNL     1       9.054   8.359  24.954  1.00  0.00    -0.359 N 
ATOM     15  H2  UNL     1       8.236   8.022  25.461  1.00  0.00     0.162 HD
BRANCH  14  16
HETATM   16  C7  UNL     1      10.242   8.703  25.703  1.00  0.00     0.127 C 
BRANCH  16  17
HETATM   17  C8  UNL     1      11.039   7.474  26.040  1.00  0.00     0.003 A 
HETATM   18  C9  UNL     1      12.515   7.594  26.248  1.00  0.00     0.007 A 
HETATM   19  C10 UNL     1      11.607   7.228  27.365  1.00  0.00     0.007 A 
ENDBRANCH  16  17
ENDBRANCH  14  16
ENDBRANCH   8  12
BRANCH  10  20
HETATM   20  O5  UNL     1       8.229   6.836  20.016  1.00  0.00    -0.302 OA
BRANCH  20  21
HETATM   21  C12 UNL     1       7.604   5.794  20.675  1.00  0.00     0.185 C 
BRANCH  21  22
HETATM   22  C13 UNL     1       6.873   4.800  19.842  1.00  0.00     0.010 C 
HETATM   23  C14 UNL     1       7.460   4.558  18.480  1.00  0.00     0.007 C 
HETATM   24  C15 UNL     1       8.672   3.672  18.621  1.00  0.00     0.005 C 
HETATM   25  C16 UNL     1       8.286   2.210  18.919  1.00  0.00    -0.013 C 
HETATM   26  C23 UNL     1       6.946   2.293  19.600  1.00  0.00     0.005 C 
HETATM   27  C24 UNL     1       6.916   3.476  20.582  1.00  0.00     0.007 C 
BRANCH  25  28
HETATM   28  C17 UNL     1       8.321   1.501  17.621  1.00  0.00     0.040 C 
BRANCH  28  29
HETATM   29  C18 UNL     1       9.371   0.474  17.403  1.00  0.00     0.219 C 
HETATM   30  C19 UNL     1      10.690   0.758  18.016  1.00  0.00     0.043 C 
BRANCH  29  31
HETATM   31  N4  UNL     1       9.458   0.087  16.002  1.00  0.00     0.097 N 
HETATM   32  C20 UNL     1       9.822  -1.262  15.719  1.00  0.00     0.306 C 
HETATM   33  C21 UNL     1       8.362  -1.638  15.726  1.00  0.00     0.174 C 
HETATM   34  C22 UNL     1       8.166  -0.176  15.382  1.00  0.00     0.306 C 
BRANCH  33  35
HETATM   35  O6  UNL     1       7.975  -2.536  14.732  1.00  0.00    -0.392 OA
ATOM     36  H6  UNL     1       7.042  -2.561  14.550  1.00  0.00     0.210 HD
ENDBRANCH  33  35
ENDBRANCH  29  31
ENDBRANCH  28  29
ENDBRANCH  25  28
ENDBRANCH  21  22
ENDBRANCH  20  21
ENDBRANCH  10  20
BRANCH   1  37
HETATM   37  O1  UNL     1       7.817  12.540  21.560  1.00  0.00    -0.308 OA
HETATM   38  C1  UNL     1       7.240  13.402  20.611  1.00  0.00     0.215 C 
ENDBRANCH   1  37
TORSDOF 11
ENDMDL
MODEL 3
REMARK VINA RESULT: -8.809273860      1.273      1.484
REMARK  11 active torsions:
REMARK  status: ('A' for Active; 'I' for Inactive)
REMARK    1  A    between atoms: O1_2  and  C2_3 
REMARK       I    between atoms: C2_3  and  N1_5 
REMARK    2  A    between atoms: C5_10  and  C6_11 
REMARK       I    between atoms: C6_11  and  N2_13 
REMARK    3  A    between atoms: N2_13  and  C7_15 
REMARK    4  A    between atoms: C7_15  and  C8_16 
REMARK       I    between atoms: N3_19  and  C11_20 
REMARK    5  A    between atoms: C11_20  and  O5_22 
REMARK    6  A    between atoms: O5_22  and  C12_23 
REMARK    7  A    between atoms: C12_23  and  C13_24 
REMARK    8  A    between atoms: C16_27  and  C17_28 
REMARK    9  A    between atoms: C17_28  and  C18_29 
REMARK   10  A    between atoms: C18_29  and  N4_31 
REMARK   11  A    between atoms: C21_33  and  O6_34 
ROOT
HETATM    1  C2  UNL     1       8.293  10.911  21.175  1.00  0.00     0.381 C 
HETATM    2  O2  UNL     1       9.057  10.663  20.224  1.00  0.00    -0.236 OA
HETATM    3  N1  UNL     1       7.660   9.928  21.959  1.00  0.00    -0.223 N 
HETATM    4  C3  UNL     1       6.773  10.222  23.103  1.00  0.00     0.236 C 
HETATM    5  C4  UNL     1       6.613   8.885  23.785  1.00  0.00     0.292 C 
HETATM    6  F1  UNL     1       5.397   8.300  23.494  1.00  0.00    -0.202 F 
HETATM    7  F2  UNL     1       6.750   9.045  25.149  1.00  0.00    -0.202 F 
HETATM    8  C5  UNL     1       7.734   8.057  23.202  1.00  0.00     0.279 C 
HETATM    9  N3  UNL     1       7.734   8.546  21.819  1.00  0.00    -0.210 N 
HETATM   10  C11 UNL     1       7.778   7.803  20.616  1.00  0.00     0.383 C 
HETATM   11  O4  UNL     1       7.730   8.324  19.481  1.00  0.00    -0.236 OA
ENDROOT
BRANCH   8  12
HETATM   12  C6  UNL     1       9.017   8.380  23.853  1.00  0.00     0.248 C 
HETATM   13  O3  UNL     1      10.026   8.696  23.145  1.00  0.00    -0.271 OA
HETATM   14  N2  UNL     1       9.197   8.358  25.263  1.00  0.00    -0.359 N 
ATOM     15  H2  UNL     1       8.404   8.109  25.854  1.00  0.00     0.162 HD
BRANCH  14  16
HETATM   16  C7  UNL     1      10.460   8.675  25.891  1.00  0.00     0.127 C 
BRANCH  16  17
HETATM   17  C8  UNL     1      11.254   7.427  26.161  1.00  0.00     0.003 A 
HETATM   18  C9  UNL     1      12.743   7.517  26.265  1.00  0.00     0.007 A 
HETATM   19  C10 UNL     1      11.910   7.157  27.440  1.00  0.00     0.007 A 
ENDBRANCH  16  17
ENDBRANCH  14  16
ENDBRANCH   8  12
BRANCH  10  20
HETATM   20  O5  UNL     1       7.878   6.414  20.613  1.00  0.00    -0.302 OA
BRANCH  20  21
HETATM   21  C12 UNL     1       6.876   5.498  20.873  1.00  0.00     0.185 C 
BRANCH  21  22
HETATM   22  C13 UNL     1       6.547   4.522  19.799  1.00  0.00     0.010 C 
HETATM   23  C14 UNL     1       7.320   4.700  18.521  1.00  0.00     0.007 C 
HETATM   24  C15 UNL     1       8.711   4.149  18.711  1.00  0.00     0.005 C 
HETATM   25  C16 UNL     1       8.724   2.608  18.723  1.00  0.00    -0.013 C 
HETATM   26  C23 UNL     1       7.351   2.211  19.196  1.00  0.00     0.005 C 
HETATM   27  C24 UNL     1       6.885   3.141  20.329  1.00  0.00     0.007 C 
BRANCH  25  28
HETATM   28  C17 UNL     1       9.096   2.188  17.354  1.00  0.00     0.040 C 
BRANCH  28  29
HETATM   29  C18 UNL     1       8.750   0.812  16.917  1.00  0.00     0.219 C 
HETATM   30  C19 UNL     1       9.854  -0.177  16.962  1.00  0.00     0.043 C 
BRANCH  29  31
HETATM   31  N4  UNL     1       8.033   0.817  15.651  1.00  0.00     0.097 N 
HETATM   32  C20 UNL     1       7.084  -0.225  15.434  1.00  0.00     0.306 C 
HETATM   33  C21 UNL     1       6.014   0.650  16.037  1.00  0.00     0.174 C 
HETATM   34  C22 UNL     1       6.933   1.772  15.600  1.00  0.00     0.306 C 
BRANCH  33  35
HETATM   35  O6  UNL     1       4.780   0.612  15.389  1.00  0.00    -0.392 OA
ATOM     36  H6  UNL     1       4.716   1.149  14.608  1.00  0.00     0.210 HD
ENDBRANCH  33  35
ENDBRANCH  29  31
ENDBRANCH  28  29
ENDBRANCH  25  28
ENDBRANCH  21  22
ENDBRANCH  20  21
ENDBRANCH  10  20
BRANCH   1  37
HETATM   37  O1  UNL     1       8.072  12.274  21.455  1.00  0.00    -0.308 OA
HETATM   38  C1  UNL     1       7.291  13.011  20.548  1.00  0.00     0.215 C 
ENDBRANCH   1  37
TORSDOF 11
ENDMDL
MODEL 4
REMARK VINA RESULT: -8.778501478      1.822      2.586
REMARK  11 active torsions:
REMARK  status: ('A' for Active; 'I' for Inactive)
REMARK    1  A    between atoms: O1_2  and  C2_3 
REMARK       I    between atoms: C2_3  and  N1_5 
REMARK    2  A    between atoms: C5_10  and  C6_11 
REMARK       I    between atoms: C6_11  and  N2_13 
REMARK    3  A    between atoms: N2_13  and  C7_15 
REMARK    4  A    between atoms: C7_15  and  C8_16 
REMARK       I    between atoms: N3_19  and  C11_20 
REMARK    5  A    between atoms: C11_20  and  O5_22 
REMARK    6  A    between atoms: O5_22  and  C12_23 
REMARK    7  A    between atoms: C12_23  and  C13_24 
REMARK    8  A    between atoms: C16_27  and  C17_28 
REMARK    9  A    between atoms: C17_28  and  C18_29 
REMARK   10  A    between atoms: C18_29  and  N4_31 
REMARK   11  A    between atoms: C21_33  and  O6_34 
ROOT
HETATM    1  C2  UNL     1       8.308  11.286  21.448  1.00  0.00     0.381 C 
HETATM    2  O2  UNL     1       9.067  11.232  20.463  1.00  0.00    -0.236 OA
HETATM    3  N1  UNL     1       7.801  10.157  22.120  1.00  0.00    -0.223 N 
HETATM    4  C3  UNL     1       6.921  10.220  23.304  1.00  0.00     0.236 C 
HETATM    5  C4  UNL     1       6.918   8.804  23.824  1.00  0.00     0.292 C 
HETATM    6  F1  UNL     1       5.761   8.131  23.484  1.00  0.00    -0.202 F 
HETATM    7  F2  UNL     1       7.076   8.817  25.195  1.00  0.00    -0.202 F 
HETATM    8  C5  UNL     1       8.102   8.171  23.129  1.00  0.00     0.279 C 
HETATM    9  N3  UNL     1       8.013   8.815  21.815  1.00  0.00    -0.210 N 
HETATM   10  C11 UNL     1       8.099   8.226  20.532  1.00  0.00     0.383 C 
HETATM   11  O4  UNL     1       7.967   8.868  19.467  1.00  0.00    -0.236 OA
ENDROOT
BRANCH   8  12
HETATM   12  C6  UNL     1       9.363   8.549  23.795  1.00  0.00     0.248 C 
HETATM   13  O3  UNL     1      10.312   9.057  23.115  1.00  0.00    -0.271 OA
HETATM   14  N2  UNL     1       9.586   8.376  25.187  1.00  0.00    -0.359 N 
ATOM     15  H2  UNL     1       8.841   7.973  25.756  1.00  0.00     0.162 HD
BRANCH  14  16
HETATM   16  C7  UNL     1      10.826   8.748  25.829  1.00  0.00     0.127 C 
BRANCH  16  17
HETATM   17  C8  UNL     1      11.650   7.534  26.152  1.00  0.00     0.003 A 
HETATM   18  C9  UNL     1      13.099   7.514  25.783  1.00  0.00     0.007 A 
HETATM   19  C10 UNL     1      12.667   7.513  27.204  1.00  0.00     0.007 A 
ENDBRANCH  16  17
ENDBRANCH  14  16
ENDBRANCH   8  12
BRANCH  10  20
HETATM   20  O5  UNL     1       8.342   6.866  20.361  1.00  0.00    -0.302 OA
BRANCH  20  21
HETATM   21  C12 UNL     1       7.449   5.900  19.937  1.00  0.00     0.185 C 
BRANCH  21  22
HETATM   22  C13 UNL     1       7.852   5.062  18.774  1.00  0.00     0.010 C 
HETATM   23  C14 UNL     1       8.060   3.606  19.082  1.00  0.00     0.007 C 
HETATM   24  C15 UNL     1       6.714   2.936  19.204  1.00  0.00     0.005 C 
HETATM   25  C16 UNL     1       6.041   2.741  17.831  1.00  0.00    -0.013 C 
HETATM   26  C23 UNL     1       6.610   3.829  16.961  1.00  0.00     0.005 C 
HETATM   27  C24 UNL     1       6.732   5.141  17.754  1.00  0.00     0.007 C 
BRANCH  25  28
HETATM   28  C17 UNL     1       6.333   1.350  17.422  1.00  0.00     0.040 C 
BRANCH  28  29
HETATM   29  C18 UNL     1       7.304   1.124  16.322  1.00  0.00     0.219 C 
HETATM   30  C19 UNL     1       6.718   0.892  14.980  1.00  0.00     0.043 C 
BRANCH  29  31
HETATM   31  N4  UNL     1       8.310   0.140  16.690  1.00  0.00     0.097 N 
HETATM   32  C20 UNL     1       9.576   0.225  16.038  1.00  0.00     0.306 C 
HETATM   33  C21 UNL     1      10.063   1.127  17.145  1.00  0.00     0.174 C 
HETATM   34  C22 UNL     1       8.986   0.429  17.948  1.00  0.00     0.306 C 
BRANCH  33  35
HETATM   35  O6  UNL     1      11.368   0.890  17.574  1.00  0.00    -0.392 OA
ATOM     36  H6  UNL     1      11.633   1.373  18.348  1.00  0.00     0.210 HD
ENDBRANCH  33  35
ENDBRANCH  29  31
ENDBRANCH  28  29
ENDBRANCH  25  28
ENDBRANCH  21  22
ENDBRANCH  20  21
ENDBRANCH  10  20
BRANCH   1  37
HETATM   37  O1  UNL     1       7.957  12.576  21.891  1.00  0.00    -0.308 OA
HETATM   38  C1  UNL     1       7.926  13.610  20.939  1.00  0.00     0.215 C 
ENDBRANCH   1  37
TORSDOF 11
ENDMDL
MODEL 5
REMARK VINA RESULT: -8.593145034      1.270      1.385
REMARK  11 active torsions:
REMARK  status: ('A' for Active; 'I' for Inactive)
REMARK    1  A    between atoms: O1_2  and  C2_3 
REMARK       I    between atoms: C2_3  and  N1_5 
REMARK    2  A    between atoms: C5_10  and  C6_11 
REMARK       I    between atoms: C6_11  and  N2_13 
REMARK    3  A    between atoms: N2_13  and  C7_15 
REMARK    4  A    between atoms: C7_15  and  C8_16 
REMARK       I    between atoms: N3_19  and  C11_20 
REMARK    5  A    between atoms: C11_20  and  O5_22 
REMARK    6  A    between atoms: O5_22  and  C12_23 
REMARK    7  A    between atoms: C12_23  and  C13_24 
REMARK    8  A    between atoms: C16_27  and  C17_28 
REMARK    9  A    between atoms: C17_28  and  C18_29 
REMARK   10  A    between atoms: C18_29  and  N4_31 
REMARK   11  A    between atoms: C21_33  and  O6_34 
ROOT
HETATM    1  C2  UNL     1       8.517  10.198  21.393  1.00  0.00     0.381 C 
HETATM    2  O2  UNL     1       9.527   9.544  21.073  1.00  0.00    -0.236 OA
HETATM    3  N1  UNL     1       7.299   9.621  21.802  1.00  0.00    -0.223 N 
HETATM    4  C3  UNL     1       6.108  10.396  22.205  1.00  0.00     0.236 C 
HETATM    5  C4  UNL     1       5.208   9.364  22.839  1.00  0.00     0.292 C 
HETATM    6  F1  UNL     1       4.188   8.977  21.992  1.00  0.00    -0.202 F 
HETATM    7  F2  UNL     1       4.685   9.868  24.013  1.00  0.00    -0.202 F 
HETATM    8  C5  UNL     1       6.134   8.197  23.093  1.00  0.00     0.279 C 
HETATM    9  N3  UNL     1       6.984   8.269  21.900  1.00  0.00    -0.210 N 
HETATM   10  C11 UNL     1       7.383   7.227  21.032  1.00  0.00     0.383 C 
HETATM   11  O4  UNL     1       8.081   7.408  20.011  1.00  0.00    -0.236 OA
ENDROOT
BRANCH   8  12
HETATM   12  C6  UNL     1       6.942   8.424  24.306  1.00  0.00     0.248 C 
HETATM   13  O3  UNL     1       6.648   9.379  25.095  1.00  0.00    -0.271 OA
HETATM   14  N2  UNL     1       8.059   7.618  24.655  1.00  0.00    -0.359 N 
ATOM     15  H2  UNL     1       8.315   6.845  24.041  1.00  0.00     0.162 HD
BRANCH  14  16
HETATM   16  C7  UNL     1       8.845   7.850  25.845  1.00  0.00     0.127 C 
BRANCH  16  17
HETATM   17  C8  UNL     1      10.009   8.756  25.552  1.00  0.00     0.003 A 
HETATM   18  C9  UNL     1      11.389   8.183  25.506  1.00  0.00     0.007 A 
HETATM   19  C10 UNL     1      10.743   8.733  24.287  1.00  0.00     0.007 A 
ENDBRANCH  16  17
ENDBRANCH  14  16
ENDBRANCH   8  12
BRANCH  10  20
HETATM   20  O5  UNL     1       7.019   5.902  21.258  1.00  0.00    -0.302 OA
BRANCH  20  21
HETATM   21  C12 UNL     1       7.721   4.765  20.903  1.00  0.00     0.185 C 
BRANCH  21  22
HETATM   22  C13 UNL     1       7.131   3.901  19.844  1.00  0.00     0.010 C 
HETATM   23  C14 UNL     1       7.673   4.129  18.461  1.00  0.00     0.007 C 
HETATM   24  C15 UNL     1       9.029   3.476  18.354  1.00  0.00     0.005 C 
HETATM   25  C16 UNL     1       8.924   1.942  18.261  1.00  0.00    -0.013 C 
HETATM   26  C23 UNL     1       7.631   1.598  18.951  1.00  0.00     0.005 C 
HETATM   27  C24 UNL     1       7.449   2.463  20.210  1.00  0.00     0.007 C 
BRANCH  25  28
HETATM   28  C17 UNL     1       9.010   1.609  16.822  1.00  0.00     0.040 C 
BRANCH  28  29
HETATM   29  C18 UNL     1       8.422   0.329  16.355  1.00  0.00     0.219 C 
HETATM   30  C19 UNL     1       9.383  -0.771  16.102  1.00  0.00     0.043 C 
BRANCH  29  31
HETATM   31  N4  UNL     1       7.485   0.538  15.261  1.00  0.00     0.097 N 
HETATM   32  C20 UNL     1       6.383  -0.361  15.163  1.00  0.00     0.306 C 
HETATM   33  C21 UNL     1       5.571   0.571  16.028  1.00  0.00     0.174 C 
HETATM   34  C22 UNL     1       6.531   1.614  15.498  1.00  0.00     0.306 C 
BRANCH  33  35
HETATM   35  O6  UNL     1       4.243   0.737  15.639  1.00  0.00    -0.392 OA
ATOM     36  H6  UNL     1       3.994   1.628  15.422  1.00  0.00     0.210 HD
ENDBRANCH  33  35
ENDBRANCH  29  31
ENDBRANCH  28  29
ENDBRANCH  25  28
ENDBRANCH  21  22
ENDBRANCH  20  21
ENDBRANCH  10  20
BRANCH   1  37
HETATM   37  O1  UNL     1       8.638  11.599  21.329  1.00  0.00    -0.308 OA
HETATM   38  C1  UNL     1       8.188  12.244  20.164  1.00  0.00     0.215 C 
ENDBRANCH   1  37
TORSDOF 11
ENDMDL
