MODEL 1
REMARK VINA RESULT: -9.102096958      0.000      0.000
REMARK  7 active torsions:
REMARK  status: ('A' for Active; 'I' for Inactive)
REMARK    1  A    between atoms: C4_9  and  C5_10 
REMARK    2  A    between atoms: C4_9  and  C16_25 
REMARK    3  A    between atoms: C5_10  and  O1_11 
REMARK    4  A    between atoms: O1_11  and  C6_12 
REMARK    5  A    between atoms: C6_12  and  C7_13 
REMARK    6  A    between atoms: C7_13  and  N3_14 
REMARK       I    between atoms: N4_34  and  C23_35 
REMARK    7  A    between atoms: C23_35  and  C24_37 
ROOT
HETATM    1  C1  UNL     1       6.041   2.250  20.561  1.00  0.00     0.040 C 
HETATM    2  C2  UNL     1       6.150   2.412  19.052  1.00  0.00     0.150 C 
HETATM    3  C3  UNL     1       4.872   3.023  18.617  1.00  0.00     0.094 C 
HETATM    4  N1  UNL     1       3.971   2.286  18.023  1.00  0.00    -0.387 N 
ATOM      5  H11 UNL     1       3.092   2.707  17.723  1.00  0.00     0.157 HD
ATOM      6  H12 UNL     1       4.123   1.293  17.846  1.00  0.00     0.157 HD
HETATM    7  N2  UNL     1       4.662   4.400  18.861  1.00  0.00    -0.361 N 
ATOM      8  H2  UNL     1       3.745   4.716  19.176  1.00  0.00     0.162 HD
HETATM    9  C4  UNL     1       5.716   5.368  18.674  1.00  0.00     0.096 C 
HETATM   10  C22 UNL     1       7.031   4.778  19.076  1.00  0.00     0.165 C 
HETATM   11  N4  UNL     1       7.190   3.374  18.773  1.00  0.00    -0.338 N 
HETATM   12  C23 UNL     1       8.401   2.872  18.176  1.00  0.00     0.224 C 
HETATM   13  O4  UNL     1       9.340   3.645  17.915  1.00  0.00    -0.273 OA
ENDROOT
BRANCH   9  14
HETATM   14  C5  UNL     1       5.392   6.555  19.601  1.00  0.00     0.205 C 
BRANCH  14  15
HETATM   15  O1  UNL     1       6.412   6.770  20.490  1.00  0.00    -0.386 OA
BRANCH  15  16
HETATM   16  C6  UNL     1       6.087   7.582  21.571  1.00  0.00     0.198 C 
BRANCH  16  17
HETATM   17  C7  UNL     1       7.145   8.710  21.565  1.00  0.00     0.053 C 
HETATM   18  C12 UNL     1       6.408   9.937  21.100  1.00  0.00     0.059 C 
HETATM   19  C13 UNL     1       7.228  10.872  20.257  1.00  0.00     0.170 C 
HETATM   20  O3  UNL     1       7.703  10.082  19.181  1.00  0.00    -0.391 OA
HETATM   21  C14 UNL     1       8.785   9.379  19.761  1.00  0.00     0.170 C 
HETATM   22  C15 UNL     1       8.189   8.258  20.572  1.00  0.00     0.059 C 
BRANCH  17  23
HETATM   23  N3  UNL     1       7.694   8.800  22.834  1.00  0.00    -0.397 N 
HETATM   24  C8  UNL     1       8.589   9.812  23.183  1.00  0.00     0.144 C 
HETATM   25  C9  UNL     1       9.909   9.153  23.598  1.00  0.00     0.187 C 
HETATM   26  O2  UNL     1       9.687   8.166  24.525  1.00  0.00    -0.388 OA
HETATM   27  C10 UNL     1       8.395   8.073  24.982  1.00  0.00     0.187 C 
HETATM   28  C11 UNL     1       7.374   7.906  23.847  1.00  0.00     0.144 C 
ENDBRANCH  17  23
ENDBRANCH  16  17
ENDBRANCH  15  16
ENDBRANCH  14  15
ENDBRANCH   9  14
BRANCH   9  29
HETATM   29  C16 UNL     1       5.623   5.866  17.301  1.00  0.00    -0.025 A 
HETATM   30  C17 UNL     1       5.939   5.138  16.182  1.00  0.00     0.011 A 
HETATM   31  C18 UNL     1       5.789   5.767  14.981  1.00  0.00     0.026 A 
HETATM   32  C19 UNL     1       5.354   7.054  14.792  1.00  0.00     0.055 A 
HETATM   33 CL1  UNL     1       5.200   7.752  13.201  1.00  0.00    -0.083 Cl
HETATM   34  C20 UNL     1       5.032   7.785  15.945  1.00  0.00     0.056 A 
HETATM   35 CL2  UNL     1       4.485   9.423  15.720  1.00  0.00    -0.083 Cl
HETATM   36  C21 UNL     1       5.171   7.185  17.168  1.00  0.00     0.035 A 
ENDBRANCH   9  29
BRANCH  12  37
HETATM   37  C24 UNL     1       8.579   1.443  17.854  1.00  0.00     0.078 C 
HETATM   38  C25 UNL     1       9.986   0.961  17.641  1.00  0.00     0.014 C 
HETATM   39  C26 UNL     1       9.664   0.472  16.244  1.00  0.00     0.002 C 
HETATM   40  C27 UNL     1       8.287   1.097  16.413  1.00  0.00     0.014 C 
ENDBRANCH  12  37
TORSDOF 7
ENDMDL
MODEL 2
REMARK VINA RESULT: -9.069522119      0.606      1.220
REMARK  7 active torsions:
REMARK  status: ('A' for Active; 'I' for Inactive)
REMARK    1  A    between atoms: C4_9  and  C5_10 
REMARK    2  A    between atoms: C4_9  and  C16_25 
REMARK    3  A    between atoms: C5_10  and  O1_11 
REMARK    4  A    between atoms: O1_11  and  C6_12 
REMARK    5  A    between atoms: C6_12  and  C7_13 
REMARK    6  A    between atoms: C7_13  and  N3_14 
REMARK       I    between atoms: N4_34  and  C23_35 
REMARK    7  A    between atoms: C23_35  and  C24_37 
ROOT
HETATM    1  C1  UNL     1       5.943   2.219  20.594  1.00  0.00     0.040 C 
HETATM    2  C2  UNL     1       6.034   2.449  19.092  1.00  0.00     0.150 C 
HETATM    3  C3  UNL     1       4.758   3.094  18.703  1.00  0.00     0.094 C 
HETATM    4  N1  UNL     1       3.839   2.396  18.089  1.00  0.00    -0.387 N 
ATOM      5  H11 UNL     1       2.961   2.840  17.821  1.00  0.00     0.157 HD
ATOM      6  H12 UNL     1       3.976   1.410  17.866  1.00  0.00     0.157 HD
HETATM    7  N2  UNL     1       4.568   4.461  19.013  1.00  0.00    -0.361 N 
ATOM      8  H2  UNL     1       3.659   4.773  19.355  1.00  0.00     0.162 HD
HETATM    9  C4  UNL     1       5.631   5.424  18.855  1.00  0.00     0.096 C 
HETATM   10  C22 UNL     1       6.944   4.801  19.212  1.00  0.00     0.165 C 
HETATM   11  N4  UNL     1       7.082   3.410  18.843  1.00  0.00    -0.338 N 
HETATM   12  C23 UNL     1       8.278   2.922  18.206  1.00  0.00     0.224 C 
HETATM   13  O4  UNL     1       9.223   3.694  17.968  1.00  0.00    -0.273 OA
ENDROOT
BRANCH   9  14
HETATM   14  C5  UNL     1       5.334   6.570  19.840  1.00  0.00     0.205 C 
BRANCH  14  15
HETATM   15  O1  UNL     1       6.410   6.800  20.657  1.00  0.00    -0.386 OA
BRANCH  15  16
HETATM   16  C6  UNL     1       6.148   7.610  21.757  1.00  0.00     0.198 C 
BRANCH  16  17
HETATM   17  C7  UNL     1       7.228   8.717  21.713  1.00  0.00     0.053 C 
HETATM   18  C12 UNL     1       6.502   9.955  21.257  1.00  0.00     0.059 C 
HETATM   19  C13 UNL     1       7.318  10.866  20.384  1.00  0.00     0.170 C 
HETATM   20  O3  UNL     1       7.748  10.058  19.303  1.00  0.00    -0.391 OA
HETATM   21  C14 UNL     1       8.831   9.339  19.860  1.00  0.00     0.170 C 
HETATM   22  C15 UNL     1       8.235   8.237  20.696  1.00  0.00     0.059 C 
BRANCH  17  23
HETATM   23  N3  UNL     1       7.812   8.807  22.966  1.00  0.00    -0.397 N 
HETATM   24  C8  UNL     1       8.732   9.807  23.283  1.00  0.00     0.144 C 
HETATM   25  C9  UNL     1      10.053   9.130  23.667  1.00  0.00     0.187 C 
HETATM   26  O2  UNL     1       9.840   8.153  24.606  1.00  0.00    -0.388 OA
HETATM   27  C10 UNL     1       8.560   8.083  25.099  1.00  0.00     0.187 C 
HETATM   28  C11 UNL     1       7.506   7.925  23.993  1.00  0.00     0.144 C 
ENDBRANCH  17  23
ENDBRANCH  16  17
ENDBRANCH  15  16
ENDBRANCH  14  15
ENDBRANCH   9  14
BRANCH   9  29
HETATM   29  C16 UNL     1       5.525   5.985  17.508  1.00  0.00    -0.025 A 
HETATM   30  C17 UNL     1       5.166   7.280  17.226  1.00  0.00     0.011 A 
HETATM   31  C18 UNL     1       5.121   7.629  15.908  1.00  0.00     0.026 A 
HETATM   32  C19 UNL     1       5.400   6.807  14.846  1.00  0.00     0.055 A 
HETATM   33 CL1  UNL     1       5.310   7.369  13.198  1.00  0.00    -0.083 Cl
HETATM   34  C20 UNL     1       5.768   5.488  15.150  1.00  0.00     0.056 A 
HETATM   35 CL2  UNL     1       6.118   4.433  13.809  1.00  0.00    -0.083 Cl
HETATM   36  C21 UNL     1       5.823   5.104  16.462  1.00  0.00     0.035 A 
ENDBRANCH   9  29
BRANCH  12  37
HETATM   37  C24 UNL     1       8.434   1.507  17.817  1.00  0.00     0.078 C 
HETATM   38  C25 UNL     1       9.837   0.996  17.646  1.00  0.00     0.014 C 
HETATM   39  C26 UNL     1       9.570   0.590  16.211  1.00  0.00     0.002 C 
HETATM   40  C27 UNL     1       8.204   1.245  16.348  1.00  0.00     0.014 C 
ENDBRANCH  12  37
TORSDOF 7
ENDMDL
MODEL 3
REMARK VINA RESULT: -8.825071970      1.157      2.708
REMARK  7 active torsions:
REMARK  status: ('A' for Active; 'I' for Inactive)
REMARK    1  A    between atoms: C4_9  and  C5_10 
REMARK    2  A    between atoms: C4_9  and  C16_25 
REMARK    3  A    between atoms: C5_10  and  O1_11 
REMARK    4  A    between atoms: O1_11  and  C6_12 
REMARK    5  A    between atoms: C6_12  and  C7_13 
REMARK    6  A    between atoms: C7_13  and  N3_14 
REMARK       I    between atoms: N4_34  and  C23_35 
REMARK    7  A    between atoms: C23_35  and  C24_37 
ROOT
HETATM    1  C1  UNL     1       5.947   2.399  20.517  1.00  0.00     0.040 C 
HETATM    2  C2  UNL     1       6.093   2.513  19.006  1.00  0.00     0.150 C 
HETATM    3  C3  UNL     1       4.826   3.110  18.521  1.00  0.00     0.094 C 
HETATM    4  N1  UNL     1       3.940   2.354  17.928  1.00  0.00    -0.387 N 
ATOM      5  H11 UNL     1       3.068   2.765  17.594  1.00  0.00     0.157 HD
ATOM      6  H12 UNL     1       4.095   1.356  17.787  1.00  0.00     0.157 HD
HETATM    7  N2  UNL     1       4.610   4.494  18.716  1.00  0.00    -0.361 N 
ATOM      8  H2  UNL     1       3.686   4.819  18.999  1.00  0.00     0.162 HD
HETATM    9  C4  UNL     1       5.669   5.456  18.524  1.00  0.00     0.096 C 
HETATM   10  C22 UNL     1       6.973   4.880  18.977  1.00  0.00     0.165 C 
HETATM   11  N4  UNL     1       7.140   3.467  18.723  1.00  0.00    -0.338 N 
HETATM   12  C23 UNL     1       8.364   2.947  18.171  1.00  0.00     0.224 C 
HETATM   13  O4  UNL     1       9.310   3.712  17.909  1.00  0.00    -0.273 OA
ENDROOT
BRANCH   9  14
HETATM   14  C5  UNL     1       5.322   6.671  19.406  1.00  0.00     0.205 C 
BRANCH  14  15
HETATM   15  O1  UNL     1       6.184   6.763  20.467  1.00  0.00    -0.386 OA
BRANCH  15  16
HETATM   16  C6  UNL     1       5.591   7.112  21.676  1.00  0.00     0.198 C 
BRANCH  16  17
HETATM   17  C7  UNL     1       6.382   8.342  22.177  1.00  0.00     0.053 C 
HETATM   18  C12 UNL     1       7.772   8.166  21.627  1.00  0.00     0.059 C 
HETATM   19  C13 UNL     1       8.865   8.660  22.531  1.00  0.00     0.170 C 
HETATM   20  O3  UNL     1       8.674   7.974  23.755  1.00  0.00    -0.391 OA
HETATM   21  C14 UNL     1       7.614   8.693  24.357  1.00  0.00     0.170 C 
HETATM   22  C15 UNL     1       6.346   8.240  23.683  1.00  0.00     0.059 C 
BRANCH  17  23
HETATM   23  N3  UNL     1       5.724   9.486  21.756  1.00  0.00    -0.397 N 
HETATM   24  C8  UNL     1       4.614   9.993  22.432  1.00  0.00     0.144 C 
HETATM   25  C9  UNL     1       3.428   9.995  21.460  1.00  0.00     0.187 C 
HETATM   26  O2  UNL     1       3.773  10.602  20.279  1.00  0.00    -0.388 OA
HETATM   27  C10 UNL     1       5.015  11.190  20.263  1.00  0.00     0.187 C 
HETATM   28  C11 UNL     1       6.138  10.216  20.650  1.00  0.00     0.144 C 
ENDBRANCH  17  23
ENDBRANCH  16  17
ENDBRANCH  15  16
ENDBRANCH  14  15
ENDBRANCH   9  14
BRANCH   9  29
HETATM   29  C16 UNL     1       5.609   5.911  17.135  1.00  0.00    -0.025 A 
HETATM   30  C17 UNL     1       5.960   5.150  16.048  1.00  0.00     0.011 A 
HETATM   31  C18 UNL     1       5.838   5.740  14.824  1.00  0.00     0.026 A 
HETATM   32  C19 UNL     1       5.401   7.018  14.584  1.00  0.00     0.055 A 
HETATM   33 CL1  UNL     1       5.285   7.665  12.969  1.00  0.00    -0.083 Cl
HETATM   34  C20 UNL     1       5.045   7.783  15.705  1.00  0.00     0.056 A 
HETATM   35 CL2  UNL     1       4.495   9.409  15.414  1.00  0.00    -0.083 Cl
HETATM   36  C21 UNL     1       5.154   7.221  16.949  1.00  0.00     0.035 A 
ENDBRANCH   9  29
BRANCH  12  37
HETATM   37  C24 UNL     1       8.550   1.509  17.899  1.00  0.00     0.078 C 
HETATM   38  C25 UNL     1       9.959   1.029  17.695  1.00  0.00     0.014 C 
HETATM   39  C26 UNL     1       9.631   0.488  16.317  1.00  0.00     0.002 C 
HETATM   40  C27 UNL     1       8.252   1.110  16.473  1.00  0.00     0.014 C 
ENDBRANCH  12  37
TORSDOF 7
ENDMDL
MODEL 4
REMARK VINA RESULT: -8.782530024      0.768      1.035
REMARK  7 active torsions:
REMARK  status: ('A' for Active; 'I' for Inactive)
REMARK    1  A    between atoms: C4_9  and  C5_10 
REMARK    2  A    between atoms: C4_9  and  C16_25 
REMARK    3  A    between atoms: C5_10  and  O1_11 
REMARK    4  A    between atoms: O1_11  and  C6_12 
REMARK    5  A    between atoms: C6_12  and  C7_13 
REMARK    6  A    between atoms: C7_13  and  N3_14 
REMARK       I    between atoms: N4_34  and  C23_35 
REMARK    7  A    between atoms: C23_35  and  C24_37 
ROOT
HETATM    1  C1  UNL     1       5.726   2.285  20.228  1.00  0.00     0.040 C 
HETATM    2  C2  UNL     1       5.999   2.397  18.735  1.00  0.00     0.150 C 
HETATM    3  C3  UNL     1       4.754   2.931  18.134  1.00  0.00     0.094 C 
HETATM    4  N1  UNL     1       3.958   2.131  17.474  1.00  0.00    -0.387 N 
ATOM      5  H11 UNL     1       3.102   2.499  17.060  1.00  0.00     0.157 HD
ATOM      6  H12 UNL     1       4.172   1.140  17.357  1.00  0.00     0.157 HD
HETATM    7  N2  UNL     1       4.457   4.305  18.296  1.00  0.00    -0.361 N 
ATOM      8  H2  UNL     1       3.498   4.588  18.493  1.00  0.00     0.162 HD
HETATM    9  C4  UNL     1       5.483   5.314  18.188  1.00  0.00     0.096 C 
HETATM   10  C22 UNL     1       6.768   4.802  18.759  1.00  0.00     0.165 C 
HETATM   11  N4  UNL     1       7.021   3.397  18.535  1.00  0.00    -0.338 N 
HETATM   12  C23 UNL     1       8.312   2.932  18.098  1.00  0.00     0.224 C 
HETATM   13  O4  UNL     1       9.241   3.739  17.912  1.00  0.00    -0.273 OA
ENDROOT
BRANCH   9  14
HETATM   14  C5  UNL     1       5.005   6.516  19.024  1.00  0.00     0.205 C 
BRANCH  14  15
HETATM   15  O1  UNL     1       5.928   6.841  19.982  1.00  0.00    -0.386 OA
BRANCH  15  16
HETATM   16  C6  UNL     1       5.668   8.019  20.673  1.00  0.00     0.198 C 
BRANCH  16  17
HETATM   17  C7  UNL     1       7.026   8.754  20.751  1.00  0.00     0.053 C 
HETATM   18  C12 UNL     1       6.708  10.199  20.473  1.00  0.00     0.059 C 
HETATM   19  C13 UNL     1       7.773  10.934  19.709  1.00  0.00     0.170 C 
HETATM   20  O3  UNL     1       7.967  10.181  18.524  1.00  0.00    -0.391 OA
HETATM   21  C14 UNL     1       8.778   9.108  18.963  1.00  0.00     0.170 C 
HETATM   22  C15 UNL     1       7.867   8.133  19.661  1.00  0.00     0.059 C 
BRANCH  17  23
HETATM   23  N3  UNL     1       7.587   8.505  21.993  1.00  0.00    -0.397 N 
HETATM   24  C8  UNL     1       6.839   7.994  23.054  1.00  0.00     0.144 C 
HETATM   25  C9  UNL     1       6.882   9.013  24.198  1.00  0.00     0.187 C 
HETATM   26  O2  UNL     1       8.176   9.384  24.465  1.00  0.00    -0.388 OA
HETATM   27  C10 UNL     1       9.139   8.685  23.780  1.00  0.00     0.187 C 
HETATM   28  C11 UNL     1       8.932   8.725  22.259  1.00  0.00     0.144 C 
ENDBRANCH  17  23
ENDBRANCH  16  17
ENDBRANCH  15  16
ENDBRANCH  14  15
ENDBRANCH   9  14
BRANCH   9  29
HETATM   29  C16 UNL     1       5.525   5.757  16.795  1.00  0.00    -0.025 A 
HETATM   30  C17 UNL     1       5.921   4.977  15.737  1.00  0.00     0.011 A 
HETATM   31  C18 UNL     1       5.895   5.558  14.504  1.00  0.00     0.026 A 
HETATM   32  C19 UNL     1       5.512   6.846  14.227  1.00  0.00     0.055 A 
HETATM   33 CL1  UNL     1       5.518   7.481  12.603  1.00  0.00    -0.083 Cl
HETATM   34  C20 UNL     1       5.109   7.631  15.317  1.00  0.00     0.056 A 
HETATM   35 CL2  UNL     1       4.627   9.270  14.980  1.00  0.00    -0.083 Cl
HETATM   36  C21 UNL     1       5.122   7.079  16.570  1.00  0.00     0.035 A 
ENDBRANCH   9  29
BRANCH  12  37
HETATM   37  C24 UNL     1       8.588   1.503  17.858  1.00  0.00     0.078 C 
HETATM   38  C25 UNL     1      10.021   1.112  17.629  1.00  0.00     0.014 C 
HETATM   39  C26 UNL     1       9.696   0.514  16.275  1.00  0.00     0.002 C 
HETATM   40  C27 UNL     1       8.282   1.047  16.450  1.00  0.00     0.014 C 
ENDBRANCH  12  37
TORSDOF 7
ENDMDL
MODEL 5
REMARK VINA RESULT: -8.655814635      2.782      4.350
REMARK  7 active torsions:
REMARK  status: ('A' for Active; 'I' for Inactive)
REMARK    1  A    between atoms: C4_9  and  C5_10 
REMARK    2  A    between atoms: C4_9  and  C16_25 
REMARK    3  A    between atoms: C5_10  and  O1_11 
REMARK    4  A    between atoms: O1_11  and  C6_12 
REMARK    5  A    between atoms: C6_12  and  C7_13 
REMARK    6  A    between atoms: C7_13  and  N3_14 
REMARK       I    between atoms: N4_34  and  C23_35 
REMARK    7  A    between atoms: C23_35  and  C24_37 
ROOT
HETATM    1  C1  UNL     1       3.967   6.266  20.524  1.00  0.00     0.040 C 
HETATM    2  C2  UNL     1       4.087   4.996  19.695  1.00  0.00     0.150 C 
HETATM    3  C3  UNL     1       4.411   5.440  18.319  1.00  0.00     0.094 C 
HETATM    4  N1  UNL     1       3.484   5.419  17.397  1.00  0.00    -0.387 N 
ATOM      5  H11 UNL     1       3.707   5.725  16.450  1.00  0.00     0.157 HD
ATOM      6  H12 UNL     1       2.536   5.102  17.598  1.00  0.00     0.157 HD
HETATM    7  N2  UNL     1       5.726   5.880  18.039  1.00  0.00    -0.361 N 
ATOM      8  H2  UNL     1       5.862   6.695  17.443  1.00  0.00     0.162 HD
HETATM    9  C4  UNL     1       6.878   5.200  18.581  1.00  0.00     0.096 C 
HETATM   10  C22 UNL     1       6.582   4.710  19.963  1.00  0.00     0.165 C 
HETATM   11  N4  UNL     1       5.228   4.250  20.172  1.00  0.00    -0.338 N 
HETATM   12  C23 UNL     1       4.957   3.019  20.869  1.00  0.00     0.224 C 
HETATM   13  O4  UNL     1       5.892   2.329  21.313  1.00  0.00    -0.273 OA
ENDROOT
BRANCH   9  14
HETATM   14  C5  UNL     1       8.010   6.242  18.648  1.00  0.00     0.205 C 
BRANCH  14  15
HETATM   15  O1  UNL     1       7.505   7.495  18.873  1.00  0.00    -0.386 OA
BRANCH  15  16
HETATM   16  C6  UNL     1       8.324   8.332  19.623  1.00  0.00     0.198 C 
BRANCH  16  17
HETATM   17  C7  UNL     1       7.367   9.347  20.289  1.00  0.00     0.053 C 
HETATM   18  C12 UNL     1       6.049   9.166  19.584  1.00  0.00     0.059 C 
HETATM   19  C13 UNL     1       5.258  10.431  19.411  1.00  0.00     0.170 C 
HETATM   20  O3  UNL     1       6.123  11.320  18.727  1.00  0.00    -0.391 OA
HETATM   21  C14 UNL     1       6.972  11.787  19.757  1.00  0.00     0.170 C 
HETATM   22  C15 UNL     1       7.981  10.699  20.014  1.00  0.00     0.059 C 
BRANCH  17  23
HETATM   23  N3  UNL     1       7.343   9.097  21.652  1.00  0.00    -0.397 N 
HETATM   24  C8  UNL     1       8.041   9.891  22.562  1.00  0.00     0.144 C 
HETATM   25  C9  UNL     1       9.053   8.999  23.291  1.00  0.00     0.187 C 
HETATM   26  O2  UNL     1       8.439   7.873  23.781  1.00  0.00    -0.388 OA
HETATM   27  C10 UNL     1       7.072   7.848  23.652  1.00  0.00     0.187 C 
HETATM   28  C11 UNL     1       6.608   8.056  22.203  1.00  0.00     0.144 C 
ENDBRANCH  17  23
ENDBRANCH  16  17
ENDBRANCH  15  16
ENDBRANCH  14  15
ENDBRANCH   9  14
BRANCH   9  29
HETATM   29  C16 UNL     1       7.292   4.187  17.609  1.00  0.00    -0.025 A 
HETATM   30  C17 UNL     1       6.665   3.949  16.412  1.00  0.00     0.011 A 
HETATM   31  C18 UNL     1       7.193   2.964  15.630  1.00  0.00     0.026 A 
HETATM   32  C19 UNL     1       8.287   2.194  15.932  1.00  0.00     0.055 A 
HETATM   33 CL1  UNL     1       8.873   0.959  14.848  1.00  0.00    -0.083 Cl
HETATM   34  C20 UNL     1       8.918   2.449  17.159  1.00  0.00     0.056 A 
HETATM   35 CL2  UNL     1      10.304   1.472  17.556  1.00  0.00    -0.083 Cl
HETATM   36  C21 UNL     1       8.415   3.432  17.968  1.00  0.00     0.035 A 
ENDBRANCH   9  29
BRANCH  12  37
HETATM   37  C24 UNL     1       3.582   2.531  21.087  1.00  0.00     0.078 C 
HETATM   38  C25 UNL     1       3.009   2.694  22.467  1.00  0.00     0.014 C 
HETATM   39  C26 UNL     1       2.766   1.205  22.600  1.00  0.00     0.002 C 
HETATM   40  C27 UNL     1       3.483   1.034  21.269  1.00  0.00     0.014 C 
ENDBRANCH  12  37
TORSDOF 7
ENDMDL
