MODEL 1
REMARK VINA RESULT: -5.784507613      0.000      0.000
REMARK  2 active torsions:
REMARK  status: ('A' for Active; 'I' for Inactive)
REMARK    1  A    between atoms: N1_1  and  N2_4 
REMARK    2  A    between atoms: N2_4  and  C1_6 
ROOT
HETATM    1  C1  UNL     1      34.412  26.870  14.335  1.00  0.00     0.699 A 
HETATM    2  N3  UNL     1      34.549  26.794  13.009  1.00  0.00    -0.172 N 
ATOM      3  H3  UNL     1      35.092  26.080  12.522  1.00  0.00     0.186 HD
HETATM    4  C2  UNL     1      33.860  27.810  12.387  1.00  0.00     0.157 A 
HETATM    5  N4  UNL     1      33.644  28.217  11.175  1.00  0.00    -0.322 N 
ATOM      6  H4  UNL     1      34.055  27.712  10.390  1.00  0.00     0.169 HD
HETATM    7  C3  UNL     1      32.895  29.283  10.948  1.00  0.00     0.162 A 
HETATM    8  N5  UNL     1      32.542  29.885   9.688  1.00  0.00    -0.074 NA
HETATM    9  S1  UNL     1      32.468  29.742  12.544  1.00  0.00    -0.035 SA
HETATM   10  C4  UNL     1      33.289  28.520  13.409  1.00  0.00     0.138 A 
HETATM   11  N6  UNL     1      33.638  27.929  14.593  1.00  0.00    -0.180 N 
ATOM     12  H6  UNL     1      33.355  28.246  15.520  1.00  0.00     0.185 HD
ENDROOT
BRANCH   1  13
HETATM   13  N2  UNL     1      35.003  25.964  15.277  1.00  0.00    -0.138 N 
ATOM     14  H2  UNL     1      35.717  25.310  14.958  1.00  0.00     0.205 HD
BRANCH  13  15
HETATM   15  N1  UNL     1      34.622  25.955  16.622  1.00  0.00    -0.331 N 
ATOM     16  H12 UNL     1      33.653  25.729  16.847  1.00  0.00     0.177 HD
ATOM     17  H11 UNL     1      35.286  26.168  17.367  1.00  0.00     0.177 HD
ENDBRANCH  13  15
ENDBRANCH   1  13
TORSDOF 2
ENDMDL
MODEL 2
REMARK VINA RESULT: -5.732898255      1.412      1.636
REMARK  2 active torsions:
REMARK  status: ('A' for Active; 'I' for Inactive)
REMARK    1  A    between atoms: N1_1  and  N2_4 
REMARK    2  A    between atoms: N2_4  and  C1_6 
ROOT
HETATM    1  C1  UNL     1      34.799  26.594  15.111  1.00  0.00     0.699 A 
HETATM    2  N3  UNL     1      34.819  27.911  14.888  1.00  0.00    -0.172 N 
ATOM      3  H3  UNL     1      35.287  28.593  15.485  1.00  0.00     0.186 HD
HETATM    4  C2  UNL     1      34.122  28.224  13.744  1.00  0.00     0.157 A 
HETATM    5  N4  UNL     1      33.820  29.289  13.068  1.00  0.00    -0.322 N 
ATOM      6  H4  UNL     1      34.141  30.202  13.392  1.00  0.00     0.169 HD
HETATM    7  C3  UNL     1      33.099  29.202  11.963  1.00  0.00     0.162 A 
HETATM    8  N5  UNL     1      32.665  30.258  11.085  1.00  0.00    -0.074 NA
HETATM    9  S1  UNL     1      32.827  27.512  11.869  1.00  0.00    -0.035 SA
HETATM   10  C4  UNL     1      33.668  27.021  13.272  1.00  0.00     0.138 A 
HETATM   11  N6  UNL     1      34.093  26.036  14.123  1.00  0.00    -0.180 N 
ATOM     12  H6  UNL     1      33.901  25.040  14.019  1.00  0.00     0.185 HD
ENDROOT
BRANCH   1  13
HETATM   13  N2  UNL     1      35.429  25.938  16.219  1.00  0.00    -0.138 N 
ATOM     14  H2  UNL     1      36.427  25.732  16.173  1.00  0.00     0.205 HD
BRANCH  13  15
HETATM   15  N1  UNL     1      34.709  25.573  17.360  1.00  0.00    -0.331 N 
ATOM     16  H12 UNL     1      33.765  25.206  17.237  1.00  0.00     0.177 HD
ATOM     17  H11 UNL     1      35.106  25.666  18.295  1.00  0.00     0.177 HD
ENDBRANCH  13  15
ENDBRANCH   1  13
TORSDOF 2
ENDMDL
MODEL 3
REMARK VINA RESULT: -5.038959631      1.175      1.486
REMARK  2 active torsions:
REMARK  status: ('A' for Active; 'I' for Inactive)
REMARK    1  A    between atoms: N1_1  and  N2_4 
REMARK    2  A    between atoms: N2_4  and  C1_6 
ROOT
HETATM    1  C1  UNL     1      33.925  26.636  14.589  1.00  0.00     0.699 A 
HETATM    2  N3  UNL     1      32.829  27.297  14.210  1.00  0.00    -0.172 N 
ATOM      3  H3  UNL     1      31.956  27.323  14.737  1.00  0.00     0.186 HD
HETATM    4  C2  UNL     1      33.035  27.939  13.010  1.00  0.00     0.157 A 
HETATM    5  N4  UNL     1      32.360  28.693  12.200  1.00  0.00    -0.322 N 
ATOM      6  H4  UNL     1      31.395  28.939  12.422  1.00  0.00     0.169 HD
HETATM    7  C3  UNL     1      32.912  29.146  11.087  1.00  0.00     0.162 A 
HETATM    8  N5  UNL     1      32.332  29.987  10.071  1.00  0.00    -0.074 NA
HETATM    9  S1  UNL     1      34.482  28.466  11.186  1.00  0.00    -0.035 SA
HETATM   10  C4  UNL     1      34.327  27.634  12.670  1.00  0.00     0.138 A 
HETATM   11  N6  UNL     1      34.854  26.836  13.649  1.00  0.00    -0.180 N 
ATOM     12  H6  UNL     1      35.800  26.456  13.658  1.00  0.00     0.185 HD
ENDROOT
BRANCH   1  13
HETATM   13  N2  UNL     1      34.046  25.864  15.792  1.00  0.00    -0.138 N 
ATOM     14  H2  UNL     1      33.267  25.274  16.085  1.00  0.00     0.205 HD
BRANCH  13  15
HETATM   15  N1  UNL     1      35.205  25.901  16.573  1.00  0.00    -0.331 N 
ATOM     16  H12 UNL     1      36.101  26.013  16.099  1.00  0.00     0.177 HD
ATOM     17  H11 UNL     1      35.168  25.818  17.589  1.00  0.00     0.177 HD
ENDBRANCH  13  15
ENDBRANCH   1  13
TORSDOF 2
ENDMDL
MODEL 4
REMARK VINA RESULT: -4.783881443      1.505      1.860
REMARK  2 active torsions:
REMARK  status: ('A' for Active; 'I' for Inactive)
REMARK    1  A    between atoms: N1_1  and  N2_4 
REMARK    2  A    between atoms: N2_4  and  C1_6 
ROOT
HETATM    1  C1  UNL     1      34.968  26.246  15.712  1.00  0.00     0.699 A 
HETATM    2  N3  UNL     1      35.487  26.868  14.651  1.00  0.00    -0.172 N 
ATOM      3  H3  UNL     1      36.479  27.070  14.525  1.00  0.00     0.186 HD
HETATM    4  C2  UNL     1      34.502  27.201  13.750  1.00  0.00     0.157 A 
HETATM    5  N4  UNL     1      34.419  27.789  12.597  1.00  0.00    -0.322 N 
ATOM      6  H4  UNL     1      35.264  28.139  12.145  1.00  0.00     0.169 HD
HETATM    7  C3  UNL     1      33.247  27.937  12.002  1.00  0.00     0.162 A 
HETATM    8  N5  UNL     1      32.953  28.556  10.734  1.00  0.00    -0.074 NA
HETATM    9  S1  UNL     1      32.195  27.204  13.139  1.00  0.00    -0.035 SA
HETATM   10  C4  UNL     1      33.342  26.748  14.319  1.00  0.00     0.138 A 
HETATM   11  N6  UNL     1      33.648  26.167  15.519  1.00  0.00    -0.180 N 
ATOM     12  H6  UNL     1      32.979  25.743  16.161  1.00  0.00     0.185 HD
ENDROOT
BRANCH   1  13
HETATM   13  N2  UNL     1      35.722  25.766  16.835  1.00  0.00    -0.138 N 
ATOM     14  H2  UNL     1      36.734  25.893  16.846  1.00  0.00     0.205 HD
BRANCH  13  15
HETATM   15  N1  UNL     1      35.103  25.129  17.914  1.00  0.00    -0.331 N 
ATOM     16  H12 UNL     1      34.655  24.227  17.748  1.00  0.00     0.177 HD
ATOM     17  H11 UNL     1      35.093  25.543  18.846  1.00  0.00     0.177 HD
ENDBRANCH  13  15
ENDBRANCH   1  13
TORSDOF 2
ENDMDL
MODEL 5
REMARK VINA RESULT: -4.439848868      1.161      1.162
REMARK  2 active torsions:
REMARK  status: ('A' for Active; 'I' for Inactive)
REMARK    1  A    between atoms: N1_1  and  N2_4 
REMARK    2  A    between atoms: N2_4  and  C1_6 
ROOT
HETATM    1  C1  UNL     1      34.826  26.628  15.138  1.00  0.00     0.699 A 
HETATM    2  N3  UNL     1      34.227  26.107  14.063  1.00  0.00    -0.172 N 
ATOM      3  H3  UNL     1      34.071  25.110  13.913  1.00  0.00     0.186 HD
HETATM    4  C2  UNL     1      33.850  27.097  13.185  1.00  0.00     0.157 A 
HETATM    5  N4  UNL     1      33.259  27.181  12.034  1.00  0.00    -0.322 N 
ATOM      6  H4  UNL     1      32.947  26.332  11.562  1.00  0.00     0.169 HD
HETATM    7  C3  UNL     1      33.058  28.359  11.467  1.00  0.00     0.162 A 
HETATM    8  N5  UNL     1      32.427  28.654  10.206  1.00  0.00    -0.074 NA
HETATM    9  S1  UNL     1      33.744  29.416  12.628  1.00  0.00    -0.035 SA
HETATM   10  C4  UNL     1      34.252  28.263  13.782  1.00  0.00     0.138 A 
HETATM   11  N6  UNL     1      34.847  27.955  14.975  1.00  0.00    -0.180 N 
ATOM     12  H6  UNL     1      35.242  28.627  15.632  1.00  0.00     0.185 HD
ENDROOT
BRANCH   1  13
HETATM   13  N2  UNL     1      35.339  25.871  16.242  1.00  0.00    -0.138 N 
ATOM     14  H2  UNL     1      36.256  25.432  16.161  1.00  0.00     0.205 HD
BRANCH  13  15
HETATM   15  N1  UNL     1      34.613  25.720  17.427  1.00  0.00    -0.331 N 
ATOM     16  H12 UNL     1      35.052  26.010  18.301  1.00  0.00     0.177 HD
ATOM     17  H11 UNL     1      33.670  25.331  17.431  1.00  0.00     0.177 HD
ENDBRANCH  13  15
ENDBRANCH   1  13
TORSDOF 2
ENDMDL
