MODEL 1
REMARK VINA RESULT: -6.588594231      0.000      0.000
REMARK  10 active torsions:
REMARK  status: ('A' for Active; 'I' for Inactive)
REMARK    1  A    between atoms: N1_1  and  C1_4 
REMARK    2  A    between atoms: C2_7  and  N3_8 
REMARK    3  A    between atoms: N3_8  and  C3_10 
REMARK    4  A    between atoms: C3_10  and  C4_11 
REMARK    5  A    between atoms: C4_11  and  C5_12 
REMARK    6  A    between atoms: C5_12  and  N4_13 
REMARK    7  A    between atoms: C5_12  and  C6_17 
REMARK    8  A    between atoms: C6_17  and  O1_18 
REMARK    9  A    between atoms: C7_22  and  N6_23 
REMARK   10  A    between atoms: N6_23  and  N7_25 
ROOT
HETATM    1  C1  UNL     1       2.953  36.284  20.292  1.00  0.00     0.705 A 
HETATM    2  N2  UNL     1       3.273  36.398  18.971  1.00  0.00    -0.022 N 
ATOM      3  H2  UNL     1       2.962  37.219  18.453  1.00  0.00     0.203 HD
HETATM    4  C2  UNL     1       3.984  35.458  18.341  1.00  0.00     0.707 A 
HETATM    5  N5  UNL     1       4.394  34.365  19.046  1.00  0.00    -0.020 N 
ATOM      6  H5  UNL     1       4.938  33.636  18.585  1.00  0.00     0.203 HD
HETATM    7  C7  UNL     1       4.085  34.245  20.341  1.00  0.00     0.725 A 
HETATM    8  N8  UNL     1       3.373  35.193  20.960  1.00  0.00    -0.020 N 
ATOM      9  H8  UNL     1       3.145  35.089  21.949  1.00  0.00     0.203 HD
ENDROOT
BRANCH   4  10
HETATM   10  N3  UNL     1       4.300  35.544  17.085  1.00  0.00    -0.225 N 
ATOM     11  H3  UNL     1       3.876  34.878  16.439  1.00  0.00     0.177 HD
BRANCH  10  12
HETATM   12  C3  UNL     1       5.203  36.512  16.550  1.00  0.00     0.140 C 
BRANCH  12  13
HETATM   13  C4  UNL     1       6.389  36.696  17.447  1.00  0.00     0.055 C 
BRANCH  13  14
HETATM   14  C5  UNL     1       6.424  38.083  18.038  1.00  0.00     0.208 C 
BRANCH  14  15
HETATM   15  N4  UNL     1       7.497  38.830  17.365  1.00  0.00    -0.073 N 
ATOM     16  H43 UNL     1       8.101  38.233  16.799  1.00  0.00     0.274 HD
ATOM     17  H42 UNL     1       7.153  39.426  16.613  1.00  0.00     0.274 HD
ATOM     18  H41 UNL     1       8.009  39.350  18.078  1.00  0.00     0.274 HD
ENDBRANCH  14  15
BRANCH  14  19
HETATM   19  C6  UNL     1       6.812  38.046  19.508  1.00  0.00     0.197 C 
BRANCH  19  20
HETATM   20  O1  UNL     1       6.492  36.760  19.966  1.00  0.00    -0.399 OA
ATOM     21  H1  UNL     1       6.840  36.697  20.847  1.00  0.00     0.209 HD
ENDBRANCH  19  20
ENDBRANCH  14  19
ENDBRANCH  13  14
ENDBRANCH  12  13
ENDBRANCH  10  12
ENDBRANCH   4  10
BRANCH   1  22
HETATM   22  N1  UNL     1       2.272  37.180  20.902  1.00  0.00    -0.234 N 
ATOM     23  H12 UNL     1       2.422  38.165  20.684  1.00  0.00     0.174 HD
ATOM     24  H11 UNL     1       1.575  36.939  21.606  1.00  0.00     0.174 HD
ENDBRANCH   1  22
BRANCH   7  25
HETATM   25  N6  UNL     1       4.476  33.216  20.988  1.00  0.00    -0.133 N 
ATOM     26  H6  UNL     1       3.789  32.484  21.168  1.00  0.00     0.205 HD
BRANCH  25  27
HETATM   27  N7  UNL     1       5.758  33.019  21.463  1.00  0.00    -0.310 N 
HETATM   28  C8  UNL     1       6.665  32.165  20.748  1.00  0.00     0.169 C 
HETATM   29  C9  UNL     1       7.118  31.084  21.706  1.00  0.00     0.189 C 
HETATM   30  O2  UNL     1       7.184  31.482  23.017  1.00  0.00    -0.388 OA
HETATM   31  C10 UNL     1       7.349  32.824  23.232  1.00  0.00     0.189 C 
HETATM   32  C11 UNL     1       6.211  33.656  22.668  1.00  0.00     0.169 C 
ENDBRANCH  25  27
ENDBRANCH   7  25
TORSDOF 10
ENDMDL
MODEL 2
REMARK VINA RESULT: -6.540802594      2.986      6.624
REMARK  10 active torsions:
REMARK  status: ('A' for Active; 'I' for Inactive)
REMARK    1  A    between atoms: N1_1  and  C1_4 
REMARK    2  A    between atoms: C2_7  and  N3_8 
REMARK    3  A    between atoms: N3_8  and  C3_10 
REMARK    4  A    between atoms: C3_10  and  C4_11 
REMARK    5  A    between atoms: C4_11  and  C5_12 
REMARK    6  A    between atoms: C5_12  and  N4_13 
REMARK    7  A    between atoms: C5_12  and  C6_17 
REMARK    8  A    between atoms: C6_17  and  O1_18 
REMARK    9  A    between atoms: C7_22  and  N6_23 
REMARK   10  A    between atoms: N6_23  and  N7_25 
ROOT
HETATM    1  C1  UNL     1       5.618  37.236  16.728  1.00  0.00     0.705 A 
HETATM    2  N2  UNL     1       5.965  36.129  17.445  1.00  0.00    -0.022 N 
ATOM      3  H2  UNL     1       6.105  35.244  16.958  1.00  0.00     0.203 HD
HETATM    4  C2  UNL     1       6.126  36.177  18.771  1.00  0.00     0.707 A 
HETATM    5  N5  UNL     1       5.936  37.367  19.410  1.00  0.00    -0.020 N 
ATOM      6  H5  UNL     1       6.053  37.426  20.422  1.00  0.00     0.203 HD
HETATM    7  C7  UNL     1       5.596  38.457  18.715  1.00  0.00     0.725 A 
HETATM    8  N8  UNL     1       5.439  38.395  17.389  1.00  0.00    -0.020 N 
ATOM      9  H8  UNL     1       5.180  39.236  16.871  1.00  0.00     0.203 HD
ENDROOT
BRANCH   4  10
HETATM   10  N3  UNL     1       6.454  35.137  19.475  1.00  0.00    -0.225 N 
ATOM     11  H3  UNL     1       6.992  34.401  19.017  1.00  0.00     0.177 HD
BRANCH  10  12
HETATM   12  C3  UNL     1       6.111  34.958  20.849  1.00  0.00     0.140 C 
BRANCH  12  13
HETATM   13  C4  UNL     1       5.368  33.673  21.056  1.00  0.00     0.055 C 
BRANCH  13  14
HETATM   14  C5  UNL     1       3.877  33.896  21.091  1.00  0.00     0.208 C 
BRANCH  14  15
HETATM   15  N4  UNL     1       3.265  32.737  21.755  1.00  0.00    -0.073 N 
ATOM     16  H43 UNL     1       2.280  32.617  21.515  1.00  0.00     0.274 HD
ATOM     17  H42 UNL     1       3.602  31.847  21.389  1.00  0.00     0.274 HD
ATOM     18  H41 UNL     1       3.419  32.836  22.758  1.00  0.00     0.274 HD
ENDBRANCH  14  15
BRANCH  14  19
HETATM   19  C6  UNL     1       3.290  33.921  19.688  1.00  0.00     0.197 C 
BRANCH  19  20
HETATM   20  O1  UNL     1       4.017  32.982  18.943  1.00  0.00    -0.399 OA
ATOM     21  H1  UNL     1       3.680  33.028  18.056  1.00  0.00     0.209 HD
ENDBRANCH  19  20
ENDBRANCH  14  19
ENDBRANCH  13  14
ENDBRANCH  12  13
ENDBRANCH  10  12
ENDBRANCH   4  10
BRANCH   1  22
HETATM   22  N1  UNL     1       5.463  37.197  15.459  1.00  0.00    -0.234 N 
ATOM     23  H12 UNL     1       4.526  37.259  15.060  1.00  0.00     0.174 HD
ATOM     24  H11 UNL     1       6.256  37.106  14.823  1.00  0.00     0.174 HD
ENDBRANCH   1  22
BRANCH   7  25
HETATM   25  N6  UNL     1       5.422  39.564  19.328  1.00  0.00    -0.133 N 
ATOM     26  H6  UNL     1       6.253  40.086  19.605  1.00  0.00     0.205 HD
BRANCH  25  27
HETATM   27  N7  UNL     1       4.192  40.109  19.644  1.00  0.00    -0.310 N 
HETATM   28  C8  UNL     1       3.385  39.510  20.671  1.00  0.00     0.169 C 
HETATM   29  C9  UNL     1       2.052  39.154  20.047  1.00  0.00     0.189 C 
HETATM   30  O2  UNL     1       1.655  39.998  19.041  1.00  0.00    -0.388 OA
HETATM   31  C10 UNL     1       2.182  41.261  19.071  1.00  0.00     0.189 C 
HETATM   32  C11 UNL     1       3.697  41.272  18.964  1.00  0.00     0.169 C 
ENDBRANCH  25  27
ENDBRANCH   7  25
TORSDOF 10
ENDMDL
MODEL 3
REMARK VINA RESULT: -6.497186392      2.513      5.587
REMARK  10 active torsions:
REMARK  status: ('A' for Active; 'I' for Inactive)
REMARK    1  A    between atoms: N1_1  and  C1_4 
REMARK    2  A    between atoms: C2_7  and  N3_8 
REMARK    3  A    between atoms: N3_8  and  C3_10 
REMARK    4  A    between atoms: C3_10  and  C4_11 
REMARK    5  A    between atoms: C4_11  and  C5_12 
REMARK    6  A    between atoms: C5_12  and  N4_13 
REMARK    7  A    between atoms: C5_12  and  C6_17 
REMARK    8  A    between atoms: C6_17  and  O1_18 
REMARK    9  A    between atoms: C7_22  and  N6_23 
REMARK   10  A    between atoms: N6_23  and  N7_25 
ROOT
HETATM    1  C1  UNL     1       6.071  33.015  20.737  1.00  0.00     0.705 A 
HETATM    2  N2  UNL     1       4.708  32.996  20.684  1.00  0.00    -0.022 N 
ATOM      3  H2  UNL     1       4.200  32.277  21.200  1.00  0.00     0.203 HD
HETATM    4  C2  UNL     1       4.024  33.897  19.973  1.00  0.00     0.707 A 
HETATM    5  N5  UNL     1       4.716  34.852  19.288  1.00  0.00    -0.020 N 
ATOM      6  H5  UNL     1       4.213  35.549  18.738  1.00  0.00     0.203 HD
HETATM    7  C7  UNL     1       6.051  34.879  19.335  1.00  0.00     0.725 A 
HETATM    8  N8  UNL     1       6.724  33.972  20.051  1.00  0.00    -0.020 N 
ATOM      9  H8  UNL     1       7.743  34.005  20.078  1.00  0.00     0.203 HD
ENDROOT
BRANCH   4  10
HETATM   10  N3  UNL     1       2.727  33.898  19.906  1.00  0.00    -0.225 N 
ATOM     11  H3  UNL     1       2.296  33.845  18.983  1.00  0.00     0.177 HD
BRANCH  10  12
HETATM   12  C3  UNL     1       1.866  33.967  21.043  1.00  0.00     0.140 C 
BRANCH  12  13
HETATM   13  C4  UNL     1       1.064  35.233  21.035  1.00  0.00     0.055 C 
BRANCH  13  14
HETATM   14  C5  UNL     1       1.952  36.451  21.006  1.00  0.00     0.208 C 
BRANCH  14  15
HETATM   15  N4  UNL     1       1.605  37.287  22.164  1.00  0.00    -0.073 N 
ATOM     16  H43 UNL     1       1.254  38.207  21.897  1.00  0.00     0.274 HD
ATOM     17  H42 UNL     1       0.772  36.960  22.652  1.00  0.00     0.274 HD
ATOM     18  H41 UNL     1       2.424  37.336  22.769  1.00  0.00     0.274 HD
ENDBRANCH  14  15
BRANCH  14  19
HETATM   19  C6  UNL     1       1.671  37.309  19.782  1.00  0.00     0.197 C 
BRANCH  19  20
HETATM   20  O1  UNL     1       2.575  36.893  18.795  1.00  0.00    -0.399 OA
ATOM     21  H1  UNL     1       3.443  37.002  19.166  1.00  0.00     0.209 HD
ENDBRANCH  19  20
ENDBRANCH  14  19
ENDBRANCH  13  14
ENDBRANCH  12  13
ENDBRANCH  10  12
ENDBRANCH   4  10
BRANCH   1  22
HETATM   22  N1  UNL     1       6.732  32.156  21.417  1.00  0.00    -0.234 N 
ATOM     23  H12 UNL     1       6.522  32.022  22.406  1.00  0.00     0.174 HD
ATOM     24  H11 UNL     1       7.472  31.593  20.998  1.00  0.00     0.174 HD
ENDBRANCH   1  22
BRANCH   7  25
HETATM   25  N6  UNL     1       6.685  35.780  18.689  1.00  0.00    -0.133 N 
ATOM     26  H6  UNL     1       7.398  35.472  18.027  1.00  0.00     0.205 HD
BRANCH  25  27
HETATM   27  N7  UNL     1       6.478  37.139  18.818  1.00  0.00    -0.310 N 
HETATM   28  C8  UNL     1       6.688  37.779  20.087  1.00  0.00     0.169 C 
HETATM   29  C9  UNL     1       5.392  38.465  20.466  1.00  0.00     0.189 C 
HETATM   30  O2  UNL     1       4.658  38.917  19.399  1.00  0.00    -0.388 OA
HETATM   31  C10 UNL     1       5.358  39.169  18.250  1.00  0.00     0.189 C 
HETATM   32  C11 UNL     1       6.055  37.937  17.701  1.00  0.00     0.169 C 
ENDBRANCH  25  27
ENDBRANCH   7  25
TORSDOF 10
ENDMDL
MODEL 4
REMARK VINA RESULT: -6.478752197      2.348      4.232
REMARK  10 active torsions:
REMARK  status: ('A' for Active; 'I' for Inactive)
REMARK    1  A    between atoms: N1_1  and  C1_4 
REMARK    2  A    between atoms: C2_7  and  N3_8 
REMARK    3  A    between atoms: N3_8  and  C3_10 
REMARK    4  A    between atoms: C3_10  and  C4_11 
REMARK    5  A    between atoms: C4_11  and  C5_12 
REMARK    6  A    between atoms: C5_12  and  N4_13 
REMARK    7  A    between atoms: C5_12  and  C6_17 
REMARK    8  A    between atoms: C6_17  and  O1_18 
REMARK    9  A    between atoms: C7_22  and  N6_23 
REMARK   10  A    between atoms: N6_23  and  N7_25 
ROOT
HETATM    1  C1  UNL     1       5.651  37.298  16.565  1.00  0.00     0.705 A 
HETATM    2  N2  UNL     1       5.493  38.500  17.189  1.00  0.00    -0.022 N 
ATOM      3  H2  UNL     1       5.248  39.321  16.636  1.00  0.00     0.203 HD
HETATM    4  C2  UNL     1       5.654  38.627  18.511  1.00  0.00     0.707 A 
HETATM    5  N5  UNL     1       5.982  37.522  19.239  1.00  0.00    -0.020 N 
ATOM      6  H5  UNL     1       6.110  37.597  20.248  1.00  0.00     0.203 HD
HETATM    7  C7  UNL     1       6.138  36.340  18.635  1.00  0.00     0.725 A 
HETATM    8  N8  UNL     1       5.974  36.227  17.312  1.00  0.00    -0.020 N 
ATOM      9  H8  UNL     1       6.096  35.318  16.865  1.00  0.00     0.203 HD
ENDROOT
BRANCH   4  10
HETATM   10  N3  UNL     1       5.510  39.761  19.127  1.00  0.00    -0.225 N 
ATOM     11  H3  UNL     1       6.106  40.538  18.843  1.00  0.00     0.177 HD
BRANCH  10  12
HETATM   12  C3  UNL     1       4.572  39.988  20.179  1.00  0.00     0.140 C 
BRANCH  12  13
HETATM   13  C4  UNL     1       3.171  39.725  19.717  1.00  0.00     0.055 C 
BRANCH  13  14
HETATM   14  C5  UNL     1       2.520  38.628  20.521  1.00  0.00     0.208 C 
BRANCH  14  15
HETATM   15  N4  UNL     1       3.430  38.279  21.622  1.00  0.00    -0.073 N 
ATOM     16  H43 UNL     1       4.413  38.392  21.374  1.00  0.00     0.274 HD
ATOM     17  H42 UNL     1       3.405  38.955  22.385  1.00  0.00     0.274 HD
ATOM     18  H41 UNL     1       3.204  37.332  21.925  1.00  0.00     0.274 HD
ENDBRANCH  14  15
BRANCH  14  19
HETATM   19  C6  UNL     1       2.368  37.357  19.698  1.00  0.00     0.197 C 
BRANCH  19  20
HETATM   20  O1  UNL     1       1.177  37.500  18.972  1.00  0.00    -0.399 OA
ATOM     21  H1  UNL     1       0.497  37.094  19.496  1.00  0.00     0.209 HD
ENDBRANCH  19  20
ENDBRANCH  14  19
ENDBRANCH  13  14
ENDBRANCH  12  13
ENDBRANCH  10  12
ENDBRANCH   4  10
BRANCH   1  22
HETATM   22  N1  UNL     1       5.498  37.170  15.301  1.00  0.00    -0.234 N 
ATOM     23  H12 UNL     1       6.106  37.683  14.662  1.00  0.00     0.174 HD
ATOM     24  H11 UNL     1       4.781  36.562  14.905  1.00  0.00     0.174 HD
ENDBRANCH   1  22
BRANCH   7  25
HETATM   25  N6  UNL     1       6.446  35.314  19.330  1.00  0.00    -0.133 N 
ATOM     26  H6  UNL     1       7.296  34.811  19.077  1.00  0.00     0.205 HD
BRANCH  25  27
HETATM   27  N7  UNL     1       5.714  34.835  20.399  1.00  0.00    -0.310 N 
HETATM   28  C8  UNL     1       6.249  34.919  21.730  1.00  0.00     0.169 C 
HETATM   29  C9  UNL     1       6.285  33.514  22.292  1.00  0.00     0.189 C 
HETATM   30  O2  UNL     1       5.288  32.694  21.830  1.00  0.00    -0.388 OA
HETATM   31  C10 UNL     1       4.155  33.317  21.381  1.00  0.00     0.189 C 
HETATM   32  C11 UNL     1       4.418  34.247  20.210  1.00  0.00     0.169 C 
ENDBRANCH  25  27
ENDBRANCH   7  25
TORSDOF 10
ENDMDL
MODEL 5
REMARK VINA RESULT: -6.453524224      3.188      6.725
REMARK  10 active torsions:
REMARK  status: ('A' for Active; 'I' for Inactive)
REMARK    1  A    between atoms: N1_1  and  C1_4 
REMARK    2  A    between atoms: C2_7  and  N3_8 
REMARK    3  A    between atoms: N3_8  and  C3_10 
REMARK    4  A    between atoms: C3_10  and  C4_11 
REMARK    5  A    between atoms: C4_11  and  C5_12 
REMARK    6  A    between atoms: C5_12  and  N4_13 
REMARK    7  A    between atoms: C5_12  and  C6_17 
REMARK    8  A    between atoms: C6_17  and  O1_18 
REMARK    9  A    between atoms: C7_22  and  N6_23 
REMARK   10  A    between atoms: N6_23  and  N7_25 
ROOT
HETATM    1  C1  UNL     1       5.622  37.227  16.789  1.00  0.00     0.705 A 
HETATM    2  N2  UNL     1       5.836  36.092  17.514  1.00  0.00    -0.022 N 
ATOM      3  H2  UNL     1       5.941  35.202  17.027  1.00  0.00     0.203 HD
HETATM    4  C2  UNL     1       5.911  36.119  18.849  1.00  0.00     0.707 A 
HETATM    5  N5  UNL     1       5.769  37.317  19.487  1.00  0.00    -0.020 N 
ATOM      6  H5  UNL     1       5.823  37.360  20.505  1.00  0.00     0.203 HD
HETATM    7  C7  UNL     1       5.559  38.433  18.784  1.00  0.00     0.725 A 
HETATM    8  N8  UNL     1       5.486  38.392  17.449  1.00  0.00    -0.020 N 
ATOM      9  H8  UNL     1       5.326  39.253  16.926  1.00  0.00     0.203 HD
ENDROOT
BRANCH   4  10
HETATM   10  N3  UNL     1       6.114  35.053  19.560  1.00  0.00    -0.225 N 
ATOM     11  H3  UNL     1       7.018  34.588  19.479  1.00  0.00     0.177 HD
BRANCH  10  12
HETATM   12  C3  UNL     1       5.150  34.489  20.450  1.00  0.00     0.140 C 
BRANCH  12  13
HETATM   13  C4  UNL     1       3.769  34.572  19.873  1.00  0.00     0.055 C 
BRANCH  13  14
HETATM   14  C5  UNL     1       2.809  33.667  20.604  1.00  0.00     0.208 C 
BRANCH  14  15
HETATM   15  N4  UNL     1       2.260  32.714  19.628  1.00  0.00    -0.073 N 
ATOM     16  H43 UNL     1       1.511  33.114  19.063  1.00  0.00     0.274 HD
ATOM     17  H42 UNL     1       2.908  32.509  18.868  1.00  0.00     0.274 HD
ATOM     18  H41 UNL     1       1.970  31.880  20.137  1.00  0.00     0.274 HD
ENDBRANCH  14  15
BRANCH  14  19
HETATM   19  C6  UNL     1       1.614  34.444  21.134  1.00  0.00     0.197 C 
BRANCH  19  20
HETATM   20  O1  UNL     1       1.198  33.779  22.295  1.00  0.00    -0.399 OA
ATOM     21  H1  UNL     1       0.307  33.490  22.132  1.00  0.00     0.209 HD
ENDBRANCH  19  20
ENDBRANCH  14  19
ENDBRANCH  13  14
ENDBRANCH  12  13
ENDBRANCH  10  12
ENDBRANCH   4  10
BRANCH   1  22
HETATM   22  N1  UNL     1       5.549  37.208  15.511  1.00  0.00    -0.234 N 
ATOM     23  H12 UNL     1       4.767  36.737  15.055  1.00  0.00     0.174 HD
ATOM     24  H11 UNL     1       6.255  37.653  14.926  1.00  0.00     0.174 HD
ENDBRANCH   1  22
BRANCH   7  25
HETATM   25  N6  UNL     1       5.428  39.546  19.397  1.00  0.00    -0.133 N 
ATOM     26  H6  UNL     1       6.279  40.026  19.689  1.00  0.00     0.205 HD
BRANCH  25  27
HETATM   27  N7  UNL     1       4.221  40.149  19.693  1.00  0.00    -0.310 N 
HETATM   28  C8  UNL     1       3.390  39.615  20.736  1.00  0.00     0.169 C 
HETATM   29  C9  UNL     1       2.044  39.294  20.121  1.00  0.00     0.189 C 
HETATM   30  O2  UNL     1       1.682  40.121  19.088  1.00  0.00    -0.388 OA
HETATM   31  C10 UNL     1       2.259  41.362  19.080  1.00  0.00     0.189 C 
HETATM   32  C11 UNL     1       3.772  41.309  18.976  1.00  0.00     0.169 C 
ENDBRANCH  25  27
ENDBRANCH   7  25
TORSDOF 10
ENDMDL
