MODEL 1
REMARK VINA RESULT: -5.181310820      0.000      0.000
REMARK  2 active torsions:
REMARK  status: ('A' for Active; 'I' for Inactive)
REMARK    1  A    between atoms: O1_2  and  N1_3 
REMARK    2  A    between atoms: N1_3  and  C2_5 
ROOT
HETATM    1  C2  UNL     1       7.347   9.774 124.461  1.00  0.00     0.196 C 
HETATM    2  N2  UNL     1       6.344  10.485 123.874  1.00  0.00    -0.321 N 
ATOM      3  H2  UNL     1       6.368  10.589 122.860  1.00  0.00     0.169 HD
HETATM    4  C3  UNL     1       5.316  11.066 124.545  1.00  0.00     0.144 A 
HETATM    5  N3  UNL     1       4.550  12.061 124.043  1.00  0.00    -0.292 N 
ATOM      6  H3  UNL     1       4.632  12.500 123.125  1.00  0.00     0.172 HD
HETATM    7  C4  UNL     1       3.667  12.348 124.995  1.00  0.00     0.326 A 
HETATM    8  O2  UNL     1       2.781  13.246 124.866  1.00  0.00    -0.247 OA
HETATM    9  N4  UNL     1       3.825  11.591 126.079  1.00  0.00    -0.301 N 
ATOM     10  H4  UNL     1       3.272  11.624 126.936  1.00  0.00     0.171 HD
HETATM   11  C5  UNL     1       4.865  10.770 125.814  1.00  0.00     0.149 A 
HETATM   12  C6  UNL     1       5.283   9.853 126.756  1.00  0.00     0.279 C 
HETATM   13  O3  UNL     1       4.567   9.655 127.771  1.00  0.00    -0.265 OA
HETATM   14  N5  UNL     1       6.437   9.132 126.658  1.00  0.00    -0.285 N 
ATOM     15  H5  UNL     1       6.618   8.492 127.431  1.00  0.00     0.172 HD
HETATM   16  C7  UNL     1       7.371   9.144 125.688  1.00  0.00     0.294 C 
HETATM   17  O4  UNL     1       8.434   8.502 125.891  1.00  0.00    -0.264 OA
ENDROOT
BRANCH   1  18
HETATM   18  N1  UNL     1       8.398   9.713 123.720  1.00  0.00    -0.246 N 
ATOM     19  H1  UNL     1       9.220  10.245 124.003  1.00  0.00     0.196 HD
BRANCH  18  20
HETATM   20  O1  UNL     1       8.468   8.977 122.581  1.00  0.00    -0.284 OA
HETATM   21  C1  UNL     1       8.897   9.559 121.373  1.00  0.00     0.237 C 
ENDBRANCH  18  20
ENDBRANCH   1  18
TORSDOF 2
ENDMDL
MODEL 2
REMARK VINA RESULT: -4.856651943      4.520      7.216
REMARK  2 active torsions:
REMARK  status: ('A' for Active; 'I' for Inactive)
REMARK    1  A    between atoms: O1_2  and  N1_3 
REMARK    2  A    between atoms: N1_3  and  C2_5 
ROOT
HETATM    1  C2  UNL     1      11.353  10.771 118.851  1.00  0.00     0.196 C 
HETATM    2  N2  UNL     1      10.442   9.926 119.409  1.00  0.00    -0.321 N 
ATOM      3  H2  UNL     1      10.181   9.095 118.880  1.00  0.00     0.169 HD
HETATM    4  C3  UNL     1       9.857  10.113 120.621  1.00  0.00     0.144 A 
HETATM    5  N3  UNL     1       8.710   9.512 121.010  1.00  0.00    -0.292 N 
ATOM      6  H3  UNL     1       8.143   8.858 120.470  1.00  0.00     0.172 HD
HETATM    7  C4  UNL     1       8.476   9.951 122.243  1.00  0.00     0.326 A 
HETATM    8  O2  UNL     1       7.469   9.589 122.924  1.00  0.00    -0.247 OA
HETATM    9  N4  UNL     1       9.410  10.800 122.666  1.00  0.00    -0.301 N 
ATOM     10  H4  UNL     1       9.448  11.268 123.571  1.00  0.00     0.171 HD
HETATM   11  C5  UNL     1      10.296  10.917 121.652  1.00  0.00     0.149 A 
HETATM   12  C6  UNL     1      11.396  11.740 121.782  1.00  0.00     0.279 C 
HETATM   13  O3  UNL     1      11.667  12.218 122.914  1.00  0.00    -0.265 OA
HETATM   14  N5  UNL     1      12.225  12.073 120.752  1.00  0.00    -0.285 N 
ATOM     15  H5  UNL     1      12.998  12.693 120.996  1.00  0.00     0.172 HD
HETATM   16  C7  UNL     1      12.169  11.703 119.458  1.00  0.00     0.294 C 
HETATM   17  O4  UNL     1      12.958  12.264 118.654  1.00  0.00    -0.264 OA
ENDROOT
BRANCH   1  18
HETATM   18  N1  UNL     1      11.420  10.638 117.573  1.00  0.00    -0.246 N 
ATOM     19  H1  UNL     1      11.146  11.429 116.989  1.00  0.00     0.196 HD
BRANCH  18  20
HETATM   20  O1  UNL     1      11.836   9.500 116.960  1.00  0.00    -0.284 OA
HETATM   21  C1  UNL     1      13.157   9.379 116.486  1.00  0.00     0.237 C 
ENDBRANCH  18  20
ENDBRANCH   1  18
TORSDOF 2
ENDMDL
MODEL 3
REMARK VINA RESULT: -4.808582329      3.053      5.872
REMARK  2 active torsions:
REMARK  status: ('A' for Active; 'I' for Inactive)
REMARK    1  A    between atoms: O1_2  and  N1_3 
REMARK    2  A    between atoms: N1_3  and  C2_5 
ROOT
HETATM    1  C2  UNL     1       7.798  10.128 124.143  1.00  0.00     0.196 C 
HETATM    2  N2  UNL     1       7.887   9.774 122.831  1.00  0.00    -0.321 N 
ATOM      3  H2  UNL     1       7.113   9.245 122.429  1.00  0.00     0.169 HD
HETATM    4  C3  UNL     1       8.934  10.077 122.019  1.00  0.00     0.144 A 
HETATM    5  N3  UNL     1       9.208   9.431 120.863  1.00  0.00    -0.292 N 
ATOM      6  H3  UNL     1       8.688   8.656 120.451  1.00  0.00     0.172 HD
HETATM    7  C4  UNL     1      10.297  10.018 120.374  1.00  0.00     0.326 A 
HETATM    8  O2  UNL     1      10.841   9.664 119.285  1.00  0.00    -0.247 OA
HETATM    9  N4  UNL     1      10.734  11.005 121.154  1.00  0.00    -0.301 N 
ATOM     10  H4  UNL     1      11.548  11.599 120.992  1.00  0.00     0.171 HD
HETATM   11  C5  UNL     1       9.884  11.060 122.203  1.00  0.00     0.149 A 
HETATM   12  C6  UNL     1      10.072  11.992 123.202  1.00  0.00     0.279 C 
HETATM   13  O3  UNL     1      10.916  12.908 123.027  1.00  0.00    -0.265 OA
HETATM   14  N5  UNL     1       9.394  11.989 124.385  1.00  0.00    -0.285 N 
ATOM     15  H5  UNL     1       9.639  12.740 125.031  1.00  0.00     0.172 HD
HETATM   16  C7  UNL     1       8.446  11.137 124.823  1.00  0.00     0.294 C 
HETATM   17  O4  UNL     1       8.072  11.244 126.020  1.00  0.00    -0.264 OA
ENDROOT
BRANCH   1  18
HETATM   18  N1  UNL     1       6.977   9.379 124.793  1.00  0.00    -0.246 N 
ATOM     19  H1  UNL     1       5.995   9.654 124.827  1.00  0.00     0.196 HD
BRANCH  18  20
HETATM   20  O1  UNL     1       7.350   8.244 125.437  1.00  0.00    -0.284 OA
HETATM   21  C1  UNL     1       6.798   7.911 126.689  1.00  0.00     0.237 C 
ENDBRANCH  18  20
ENDBRANCH   1  18
TORSDOF 2
ENDMDL
MODEL 4
REMARK VINA RESULT: -4.776087558      2.063      5.256
REMARK  2 active torsions:
REMARK  status: ('A' for Active; 'I' for Inactive)
REMARK    1  A    between atoms: O1_2  and  N1_3 
REMARK    2  A    between atoms: N1_3  and  C2_5 
ROOT
HETATM    1  C2  UNL     1       6.250  10.692 124.569  1.00  0.00     0.196 C 
HETATM    2  N2  UNL     1       6.560  10.410 123.273  1.00  0.00    -0.321 N 
ATOM      3  H2  UNL     1       5.805  10.444 122.587  1.00  0.00     0.169 HD
HETATM    4  C3  UNL     1       7.802  10.084 122.829  1.00  0.00     0.144 A 
HETATM    5  N3  UNL     1       8.047   9.451 121.660  1.00  0.00    -0.292 N 
ATOM      6  H3  UNL     1       7.362   9.138 120.972  1.00  0.00     0.172 HD
HETATM    7  C4  UNL     1       9.369   9.319 121.595  1.00  0.00     0.326 A 
HETATM    8  O2  UNL     1       9.960   8.762 120.621  1.00  0.00    -0.247 OA
HETATM    9  N4  UNL     1       9.984   9.834 122.658  1.00  0.00    -0.301 N 
ATOM     10  H4  UNL     1      10.988   9.854 122.836  1.00  0.00     0.171 HD
HETATM   11  C5  UNL     1       9.008  10.326 123.454  1.00  0.00     0.149 A 
HETATM   12  C6  UNL     1       9.327  10.932 124.651  1.00  0.00     0.279 C 
HETATM   13  O3  UNL     1      10.532  11.197 124.895  1.00  0.00    -0.265 OA
HETATM   14  N5  UNL     1       8.410  11.272 125.602  1.00  0.00    -0.285 N 
ATOM     15  H5  UNL     1       8.792  11.713 126.438  1.00  0.00     0.172 HD
HETATM   16  C7  UNL     1       7.073  11.109 125.594  1.00  0.00     0.294 C 
HETATM   17  O4  UNL     1       6.447  11.361 126.657  1.00  0.00    -0.264 OA
ENDROOT
BRANCH   1  18
HETATM   18  N1  UNL     1       4.997  10.531 124.815  1.00  0.00    -0.246 N 
ATOM     19  H1  UNL     1       4.726   9.816 125.491  1.00  0.00     0.196 HD
BRANCH  18  20
HETATM   20  O1  UNL     1       4.018  11.262 124.223  1.00  0.00    -0.284 OA
HETATM   21  C1  UNL     1       3.375  12.302 124.921  1.00  0.00     0.237 C 
ENDBRANCH  18  20
ENDBRANCH   1  18
TORSDOF 2
ENDMDL
MODEL 5
REMARK VINA RESULT: -4.752071557      9.834     12.174
REMARK  2 active torsions:
REMARK  status: ('A' for Active; 'I' for Inactive)
REMARK    1  A    between atoms: O1_2  and  N1_3 
REMARK    2  A    between atoms: N1_3  and  C2_5 
ROOT
HETATM    1  C2  UNL     1      11.230  10.030 116.276  1.00  0.00     0.196 C 
HETATM    2  N2  UNL     1      11.397   9.333 115.117  1.00  0.00    -0.321 N 
ATOM      3  H2  UNL     1      10.781   9.559 114.336  1.00  0.00     0.169 HD
HETATM    4  C3  UNL     1      12.324   8.358 114.929  1.00  0.00     0.144 A 
HETATM    5  N3  UNL     1      12.257   7.426 113.953  1.00  0.00    -0.292 N 
ATOM      6  H3  UNL     1      11.528   7.325 113.246  1.00  0.00     0.172 HD
HETATM    7  C4  UNL     1      13.338   6.667 114.106  1.00  0.00     0.326 A 
HETATM    8  O2  UNL     1      13.602   5.681 113.354  1.00  0.00    -0.247 OA
HETATM    9  N4  UNL     1      14.095   7.063 115.127  1.00  0.00    -0.301 N 
ATOM     10  H4  UNL     1      14.970   6.642 115.441  1.00  0.00     0.171 HD
HETATM   11  C5  UNL     1      13.471   8.135 115.663  1.00  0.00     0.149 A 
HETATM   12  C6  UNL     1      14.013   8.782 116.754  1.00  0.00     0.279 C 
HETATM   13  O3  UNL     1      15.182   8.488 117.115  1.00  0.00    -0.265 OA
HETATM   14  N5  UNL     1      13.359   9.734 117.479  1.00  0.00    -0.285 N 
ATOM     15  H5  UNL     1      13.885  10.125 118.261  1.00  0.00     0.172 HD
HETATM   16  C7  UNL     1      12.120  10.233 117.310  1.00  0.00     0.294 C 
HETATM   17  O4  UNL     1      11.671  10.999 118.202  1.00  0.00    -0.264 OA
ENDROOT
BRANCH   1  18
HETATM   18  N1  UNL     1      10.057  10.550 116.365  1.00  0.00    -0.246 N 
ATOM     19  H1  UNL     1       9.592  10.542 117.273  1.00  0.00     0.196 HD
BRANCH  18  20
HETATM   20  O1  UNL     1       9.405  11.111 115.313  1.00  0.00    -0.284 OA
HETATM   21  C1  UNL     1       9.594  12.468 114.990  1.00  0.00     0.237 C 
ENDBRANCH  18  20
ENDBRANCH   1  18
TORSDOF 2
ENDMDL
