MODEL 1
REMARK VINA RESULT: -4.334517176      0.000      0.000
REMARK  5 active torsions:
REMARK  status: ('A' for Active; 'I' for Inactive)
REMARK    1  A    between atoms: N1_1  and  N2_4 
REMARK    2  A    between atoms: N2_4  and  C1_6 
REMARK    3  A    between atoms: C2_11  and  C3_12 
REMARK    4  A    between atoms: C3_12  and  N5_13 
REMARK    5  A    between atoms: C3_12  and  C4_17 
ROOT
HETATM    1  C1  UNL     1       3.788  13.456   9.477  1.00  0.00     0.179 A 
HETATM    2  N3  UNL     1       3.957  12.137   9.619  1.00  0.00    -0.278 N 
ATOM      3  H3  UNL     1       3.632  11.661  10.461  1.00  0.00     0.189 HD
HETATM    4  N4  UNL     1       4.528  11.489   8.694  1.00  0.00    -0.293 N 
ATOM      5  H4  UNL     1       4.664  10.482   8.789  1.00  0.00     0.187 HD
HETATM    6  C2  UNL     1       4.949  12.111   7.601  1.00  0.00     0.109 A 
HETATM    7  S1  UNL     1       4.491  13.724   7.940  1.00  0.00    -0.034 SA
ENDROOT
BRANCH   6   8
HETATM    8  C3  UNL     1       5.643  11.531   6.398  1.00  0.00     0.329 C 
BRANCH   8   9
HETATM    9  N5  UNL     1       4.731  10.544   5.852  1.00  0.00    -0.061 N 
ATOM     10  H53 UNL     1       4.585   9.741   6.464  1.00  0.00     0.275 HD
ATOM     11  H52 UNL     1       3.760  10.857   5.826  1.00  0.00     0.275 HD
ATOM     12  H51 UNL     1       5.105  10.296   4.937  1.00  0.00     0.275 HD
ENDBRANCH   8   9
BRANCH   8  13
HETATM   13  C4  UNL     1       6.873  10.860   6.842  1.00  0.00     0.268 C 
HETATM   14  N6  UNL     1       8.169  11.367   6.543  1.00  0.00    -0.060 NA
HETATM   15  O1  UNL     1       6.827   9.797   7.513  1.00  0.00    -0.274 OA
ENDBRANCH   8  13
ENDBRANCH   6   8
BRANCH   1  16
HETATM   16  N2  UNL     1       3.222  14.284  10.327  1.00  0.00    -0.285 N 
ATOM     17  H2  UNL     1       2.525  14.966  10.028  1.00  0.00     0.188 HD
BRANCH  16  18
HETATM   18  N1  UNL     1       3.627  14.181  11.669  1.00  0.00    -0.343 N 
ATOM     19  H12 UNL     1       3.815  15.015  12.223  1.00  0.00     0.176 HD
ATOM     20  H11 UNL     1       3.720  13.237  12.045  1.00  0.00     0.176 HD
ENDBRANCH  16  18
ENDBRANCH   1  16
TORSDOF 5
ENDMDL
MODEL 2
REMARK VINA RESULT: -4.207665061      5.528      7.043
REMARK  5 active torsions:
REMARK  status: ('A' for Active; 'I' for Inactive)
REMARK    1  A    between atoms: N1_1  and  N2_4 
REMARK    2  A    between atoms: N2_4  and  C1_6 
REMARK    3  A    between atoms: C2_11  and  C3_12 
REMARK    4  A    between atoms: C3_12  and  N5_13 
REMARK    5  A    between atoms: C3_12  and  C4_17 
ROOT
HETATM    1  C1  UNL     1      -0.019  11.571   2.352  1.00  0.00     0.179 A 
HETATM    2  N3  UNL     1       0.180  10.526   3.162  1.00  0.00    -0.278 N 
ATOM      3  H3  UNL     1      -0.585  10.155   3.726  1.00  0.00     0.189 HD
HETATM    4  N4  UNL     1       1.332  10.004   3.218  1.00  0.00    -0.293 N 
ATOM      5  H4  UNL     1       1.498   9.206   3.833  1.00  0.00     0.187 HD
HETATM    6  C2  UNL     1       2.323  10.487   2.483  1.00  0.00     0.109 A 
HETATM    7  S1  UNL     1       1.538  11.770   1.668  1.00  0.00    -0.034 SA
ENDROOT
BRANCH   6   8
HETATM    8  C3  UNL     1       3.751  10.017   2.405  1.00  0.00     0.329 C 
BRANCH   8   9
HETATM    9  N5  UNL     1       3.712   8.747   1.706  1.00  0.00    -0.061 N 
ATOM     10  H53 UNL     1       4.286   8.728   0.863  1.00  0.00     0.275 HD
ATOM     11  H52 UNL     1       4.193   7.995   2.199  1.00  0.00     0.275 HD
ATOM     12  H51 UNL     1       2.726   8.556   1.532  1.00  0.00     0.275 HD
ENDBRANCH   8   9
BRANCH   8  13
HETATM   13  C4  UNL     1       4.252   9.803   3.770  1.00  0.00     0.268 C 
HETATM   14  N6  UNL     1       3.658  10.420   4.907  1.00  0.00    -0.060 NA
HETATM   15  O1  UNL     1       5.239   9.054   3.989  1.00  0.00    -0.274 OA
ENDBRANCH   8  13
ENDBRANCH   6   8
BRANCH   1  16
HETATM   16  N2  UNL     1      -1.138  12.235   2.166  1.00  0.00    -0.285 N 
ATOM     17  H2  UNL     1      -1.373  13.056   2.724  1.00  0.00     0.188 HD
BRANCH  16  18
HETATM   18  N1  UNL     1      -1.993  11.756   1.159  1.00  0.00    -0.343 N 
ATOM     19  H12 UNL     1      -1.820  11.976   0.178  1.00  0.00     0.176 HD
ATOM     20  H11 UNL     1      -2.781  11.185   1.464  1.00  0.00     0.176 HD
ENDBRANCH  16  18
ENDBRANCH   1  16
TORSDOF 5
ENDMDL
MODEL 3
REMARK VINA RESULT: -4.136052917      2.907      5.484
REMARK  5 active torsions:
REMARK  status: ('A' for Active; 'I' for Inactive)
REMARK    1  A    between atoms: N1_1  and  N2_4 
REMARK    2  A    between atoms: N2_4  and  C1_6 
REMARK    3  A    between atoms: C2_11  and  C3_12 
REMARK    4  A    between atoms: C3_12  and  N5_13 
REMARK    5  A    between atoms: C3_12  and  C4_17 
ROOT
HETATM    1  C1  UNL     1       4.382  12.297   8.313  1.00  0.00     0.179 A 
HETATM    2  N3  UNL     1       4.034  12.110   9.590  1.00  0.00    -0.278 N 
ATOM      3  H3  UNL     1       3.997  11.170   9.984  1.00  0.00     0.189 HD
HETATM    4  N4  UNL     1       3.751  13.117  10.302  1.00  0.00    -0.293 N 
ATOM      5  H4  UNL     1       3.483  12.989  11.279  1.00  0.00     0.187 HD
HETATM    6  C2  UNL     1       3.800  14.338   9.787  1.00  0.00     0.109 A 
HETATM    7  S1  UNL     1       4.283  14.001   8.181  1.00  0.00    -0.034 SA
ENDROOT
BRANCH   6   8
HETATM    8  C3  UNL     1       3.504  15.653  10.457  1.00  0.00     0.329 C 
BRANCH   8   9
HETATM    9  N5  UNL     1       4.481  16.590   9.937  1.00  0.00    -0.061 N 
ATOM     10  H53 UNL     1       4.526  17.464  10.461  1.00  0.00     0.275 HD
ATOM     11  H52 UNL     1       5.447  16.302  10.097  1.00  0.00     0.275 HD
ATOM     12  H51 UNL     1       4.250  16.716   8.953  1.00  0.00     0.275 HD
ENDBRANCH   8   9
BRANCH   8  13
HETATM   13  C4  UNL     1       3.701  15.500  11.905  1.00  0.00     0.268 C 
HETATM   14  N6  UNL     1       4.635  16.287  12.635  1.00  0.00    -0.060 NA
HETATM   15  O1  UNL     1       3.041  14.656  12.564  1.00  0.00    -0.274 OA
ENDBRANCH   8  13
ENDBRANCH   6   8
BRANCH   1  16
HETATM   16  N2  UNL     1       4.706  11.378   7.431  1.00  0.00    -0.285 N 
ATOM     17  H2  UNL     1       4.044  10.658   7.139  1.00  0.00     0.188 HD
BRANCH  16  18
HETATM   18  N1  UNL     1       6.010  11.438   6.910  1.00  0.00    -0.343 N 
ATOM     19  H12 UNL     1       6.632  12.210   7.148  1.00  0.00     0.176 HD
ATOM     20  H11 UNL     1       6.289  10.677   6.292  1.00  0.00     0.176 HD
ENDBRANCH  16  18
ENDBRANCH   1  16
TORSDOF 5
ENDMDL
MODEL 4
REMARK VINA RESULT: -4.098557090      2.726      5.380
REMARK  5 active torsions:
REMARK  status: ('A' for Active; 'I' for Inactive)
REMARK    1  A    between atoms: N1_1  and  N2_4 
REMARK    2  A    between atoms: N2_4  and  C1_6 
REMARK    3  A    between atoms: C2_11  and  C3_12 
REMARK    4  A    between atoms: C3_12  and  N5_13 
REMARK    5  A    between atoms: C3_12  and  C4_17 
ROOT
HETATM    1  C1  UNL     1       4.895  11.645   7.597  1.00  0.00     0.179 A 
HETATM    2  N3  UNL     1       4.388  11.308   8.787  1.00  0.00    -0.278 N 
ATOM      3  H3  UNL     1       4.338  10.329   9.071  1.00  0.00     0.189 HD
HETATM    4  N4  UNL     1       3.970  12.222   9.556  1.00  0.00    -0.293 N 
ATOM      5  H4  UNL     1       3.579  11.980  10.467  1.00  0.00     0.187 HD
HETATM    6  C2  UNL     1       4.036  13.493   9.185  1.00  0.00     0.109 A 
HETATM    7  S1  UNL     1       4.744  13.350   7.634  1.00  0.00    -0.034 SA
ENDROOT
BRANCH   6   8
HETATM    8  C3  UNL     1       3.599  14.718   9.943  1.00  0.00     0.329 C 
BRANCH   8   9
HETATM    9  N5  UNL     1       3.569  14.330  11.340  1.00  0.00    -0.061 N 
ATOM     10  H53 UNL     1       2.714  13.844  11.610  1.00  0.00     0.275 HD
ATOM     11  H52 UNL     1       4.217  13.575  11.567  1.00  0.00     0.275 HD
ATOM     12  H51 UNL     1       3.736  15.185  11.869  1.00  0.00     0.275 HD
ENDBRANCH   8   9
BRANCH   8  13
HETATM   13  C4  UNL     1       2.241  15.079   9.511  1.00  0.00     0.268 C 
HETATM   14  N6  UNL     1       1.394  14.171   8.816  1.00  0.00    -0.060 NA
HETATM   15  O1  UNL     1       1.769  16.221   9.744  1.00  0.00    -0.274 OA
ENDBRANCH   8  13
ENDBRANCH   6   8
BRANCH   1  16
HETATM   16  N2  UNL     1       5.372  10.837   6.676  1.00  0.00    -0.285 N 
ATOM     17  H2  UNL     1       6.317  10.457   6.733  1.00  0.00     0.188 HD
BRANCH  16  18
HETATM   18  N1  UNL     1       4.514  10.526   5.607  1.00  0.00    -0.343 N 
ATOM     19  H12 UNL     1       4.369  11.187   4.844  1.00  0.00     0.176 HD
ATOM     20  H11 UNL     1       4.054   9.617   5.643  1.00  0.00     0.176 HD
ENDBRANCH  16  18
ENDBRANCH   1  16
TORSDOF 5
ENDMDL
MODEL 5
REMARK VINA RESULT: -4.056726801      4.148      5.881
REMARK  5 active torsions:
REMARK  status: ('A' for Active; 'I' for Inactive)
REMARK    1  A    between atoms: N1_1  and  N2_4 
REMARK    2  A    between atoms: N2_4  and  C1_6 
REMARK    3  A    between atoms: C2_11  and  C3_12 
REMARK    4  A    between atoms: C3_12  and  N5_13 
REMARK    5  A    between atoms: C3_12  and  C4_17 
ROOT
HETATM    1  C1  UNL     1       1.299  10.701   3.051  1.00  0.00     0.179 A 
HETATM    2  N3  UNL     1       1.852  11.905   3.235  1.00  0.00    -0.278 N 
ATOM      3  H3  UNL     1       1.340  12.753   2.990  1.00  0.00     0.189 HD
HETATM    4  N4  UNL     1       3.020  11.976   3.717  1.00  0.00    -0.293 N 
ATOM      5  H4  UNL     1       3.455  12.887   3.862  1.00  0.00     0.187 HD
HETATM    6  C2  UNL     1       3.682  10.872   4.034  1.00  0.00     0.109 A 
HETATM    7  S1  UNL     1       2.545   9.667   3.608  1.00  0.00    -0.034 SA
ENDROOT
BRANCH   6   8
HETATM    8  C3  UNL     1       5.066  10.739   4.613  1.00  0.00     0.329 C 
BRANCH   8   9
HETATM    9  N5  UNL     1       5.457   9.361   4.390  1.00  0.00    -0.061 N 
ATOM     10  H53 UNL     1       4.703   8.692   4.545  1.00  0.00     0.275 HD
ATOM     11  H52 UNL     1       5.620   9.137   3.408  1.00  0.00     0.275 HD
ATOM     12  H51 UNL     1       6.270   9.203   4.985  1.00  0.00     0.275 HD
ENDBRANCH   8   9
BRANCH   8  13
HETATM   13  C4  UNL     1       4.999  10.997   6.058  1.00  0.00     0.268 C 
HETATM   14  N6  UNL     1       6.062  10.662   6.943  1.00  0.00    -0.060 NA
HETATM   15  O1  UNL     1       3.985  11.532   6.576  1.00  0.00    -0.274 OA
ENDBRANCH   8  13
ENDBRANCH   6   8
BRANCH   1  16
HETATM   16  N2  UNL     1       0.106  10.437   2.566  1.00  0.00    -0.285 N 
ATOM     17  H2  UNL     1      -0.291   9.498   2.600  1.00  0.00     0.188 HD
BRANCH  16  18
HETATM   18  N1  UNL     1      -0.594  11.515   1.997  1.00  0.00    -0.343 N 
ATOM     19  H12 UNL     1      -0.137  12.144   1.337  1.00  0.00     0.176 HD
ATOM     20  H11 UNL     1      -1.567  11.627   2.281  1.00  0.00     0.176 HD
ENDBRANCH  16  18
ENDBRANCH   1  16
TORSDOF 5
ENDMDL
