MODEL 1
REMARK VINA RESULT: -4.242623133      0.000      0.000
REMARK  5 active torsions:
REMARK  status: ('A' for Active; 'I' for Inactive)
REMARK    1  A    between atoms: N1_1  and  C1_4 
REMARK    2  A    between atoms: C1_4  and  N2_5 
REMARK    3  A    between atoms: C1_4  and  C2_10 
REMARK    4  A    between atoms: N2_5  and  N3_7 
REMARK    5  A    between atoms: C5_18  and  N6_19 
ROOT
HETATM    1  C2  UNL     1      -1.327 -16.592   3.379  1.00  0.00     0.117 A 
HETATM    2  N4  UNL     1      -1.623 -17.038   2.113  1.00  0.00    -0.347 N 
ATOM      3  H4  UNL     1      -0.894 -17.516   1.583  1.00  0.00     0.167 HD
HETATM    4  C3  UNL     1      -2.809 -16.879   1.548  1.00  0.00     0.184 A 
HETATM    5  N5  UNL     1      -3.780 -16.261   2.212  1.00  0.00    -0.318 N 
ATOM      6  H5  UNL     1      -4.690 -16.145   1.764  1.00  0.00     0.169 HD
HETATM    7  C4  UNL     1      -3.605 -15.787   3.448  1.00  0.00     0.281 A 
HETATM    8  O1  UNL     1      -4.488 -15.198   4.109  1.00  0.00    -0.265 OA
HETATM    9  C5  UNL     1      -2.334 -15.971   4.026  1.00  0.00     0.201 A 
ENDROOT
BRANCH   1  10
HETATM   10  C1  UNL     1       0.012 -16.794   3.907  1.00  0.00     0.143 C 
BRANCH  10  11
HETATM   11  N1  UNL     1       1.062 -16.337   3.460  1.00  0.00    -0.383 N 
ATOM     12  H12 UNL     1       1.273 -15.358   3.265  1.00  0.00     0.157 HD
ATOM     13  H11 UNL     1       1.796 -17.022   3.275  1.00  0.00     0.157 HD
ENDBRANCH  10  11
BRANCH  10  14
HETATM   14  N2  UNL     1       0.145 -17.615   5.100  1.00  0.00    -0.291 N 
ATOM     15  H2  UNL     1       0.818 -17.362   5.823  1.00  0.00     0.188 HD
BRANCH  14  16
HETATM   16  N3  UNL     1      -0.639 -18.733   5.248  1.00  0.00    -0.344 N 
ATOM     17  H32 UNL     1      -0.810 -19.331   4.440  1.00  0.00     0.176 HD
ATOM     18  H31 UNL     1      -1.040 -18.953   6.160  1.00  0.00     0.176 HD
ENDBRANCH  14  16
ENDBRANCH  10  14
ENDBRANCH   1  10
BRANCH   9  19
HETATM   19  N6  UNL     1      -2.189 -15.476   5.336  1.00  0.00    -0.107 N 
HETATM   20  O2  UNL     1      -2.360 -16.270   6.315  1.00  0.00    -0.531 OA
HETATM   21  O3  UNL     1      -1.925 -14.178   5.674  1.00  0.00    -0.531 OA
ENDBRANCH   9  19
TORSDOF 5
ENDMDL
MODEL 2
REMARK VINA RESULT: -4.159395689      2.209      2.663
REMARK  5 active torsions:
REMARK  status: ('A' for Active; 'I' for Inactive)
REMARK    1  A    between atoms: N1_1  and  C1_4 
REMARK    2  A    between atoms: C1_4  and  N2_5 
REMARK    3  A    between atoms: C1_4  and  C2_10 
REMARK    4  A    between atoms: N2_5  and  N3_7 
REMARK    5  A    between atoms: C5_18  and  N6_19 
ROOT
HETATM    1  C2  UNL     1      -0.773 -17.332   5.049  1.00  0.00     0.117 A 
HETATM    2  N4  UNL     1      -0.961 -18.692   5.133  1.00  0.00    -0.347 N 
ATOM      3  H4  UNL     1      -0.217 -19.307   4.804  1.00  0.00     0.167 HD
HETATM    4  C3  UNL     1      -2.061 -19.241   5.621  1.00  0.00     0.184 A 
HETATM    5  N5  UNL     1      -3.050 -18.466   6.058  1.00  0.00    -0.318 N 
ATOM      6  H5  UNL     1      -3.893 -18.903   6.431  1.00  0.00     0.169 HD
HETATM    7  C4  UNL     1      -2.975 -17.133   6.024  1.00  0.00     0.281 A 
HETATM    8  O1  UNL     1      -3.878 -16.366   6.421  1.00  0.00    -0.265 OA
HETATM    9  C5  UNL     1      -1.792 -16.576   5.501  1.00  0.00     0.201 A 
ENDROOT
BRANCH   1  10
HETATM   10  C1  UNL     1       0.463 -16.823   4.477  1.00  0.00     0.143 C 
BRANCH  10  11
HETATM   11  N1  UNL     1       0.641 -16.431   3.325  1.00  0.00    -0.383 N 
ATOM     12  H12 UNL     1       1.116 -15.577   3.032  1.00  0.00     0.157 HD
ATOM     13  H11 UNL     1       0.275 -17.040   2.593  1.00  0.00     0.157 HD
ENDBRANCH  10  11
BRANCH  10  14
HETATM   14  N2  UNL     1       1.625 -16.750   5.349  1.00  0.00    -0.291 N 
ATOM     15  H2  UNL     1       1.904 -15.858   5.757  1.00  0.00     0.188 HD
BRANCH  14  16
HETATM   16  N3  UNL     1       2.344 -17.888   5.620  1.00  0.00    -0.344 N 
ATOM     17  H32 UNL     1       3.284 -17.985   5.237  1.00  0.00     0.176 HD
ATOM     18  H31 UNL     1       1.934 -18.620   6.200  1.00  0.00     0.176 HD
ENDBRANCH  14  16
ENDBRANCH  10  14
ENDBRANCH   1  10
BRANCH   9  19
HETATM   19  N6  UNL     1      -1.739 -15.169   5.497  1.00  0.00    -0.107 N 
HETATM   20  O2  UNL     1      -1.935 -14.549   4.404  1.00  0.00    -0.531 OA
HETATM   21  O3  UNL     1      -1.437 -14.379   6.572  1.00  0.00    -0.531 OA
ENDBRANCH   9  19
TORSDOF 5
ENDMDL
MODEL 3
REMARK VINA RESULT: -4.066219462      2.198      2.769
REMARK  5 active torsions:
REMARK  status: ('A' for Active; 'I' for Inactive)
REMARK    1  A    between atoms: N1_1  and  C1_4 
REMARK    2  A    between atoms: C1_4  and  N2_5 
REMARK    3  A    between atoms: C1_4  and  C2_10 
REMARK    4  A    between atoms: N2_5  and  N3_7 
REMARK    5  A    between atoms: C5_18  and  N6_19 
ROOT
HETATM    1  C2  UNL     1      -0.762 -17.409   5.133  1.00  0.00     0.117 A 
HETATM    2  N4  UNL     1      -1.005 -18.761   5.201  1.00  0.00    -0.347 N 
ATOM      3  H4  UNL     1      -0.247 -19.403   4.967  1.00  0.00     0.167 HD
HETATM    4  C3  UNL     1      -2.174 -19.270   5.554  1.00  0.00     0.184 A 
HETATM    5  N5  UNL     1      -3.181 -18.459   5.864  1.00  0.00    -0.318 N 
ATOM      6  H5  UNL     1      -4.077 -18.866   6.134  1.00  0.00     0.169 HD
HETATM    7  C4  UNL     1      -3.058 -17.130   5.833  1.00  0.00     0.281 A 
HETATM    8  O1  UNL     1      -3.977 -16.330   6.114  1.00  0.00    -0.265 OA
HETATM    9  C5  UNL     1      -1.803 -16.616   5.455  1.00  0.00     0.201 A 
ENDROOT
BRANCH   1  10
HETATM   10  C1  UNL     1       0.550 -16.945   4.713  1.00  0.00     0.143 C 
BRANCH  10  11
HETATM   11  N1  UNL     1       1.604 -17.033   5.340  1.00  0.00    -0.383 N 
ATOM     12  H12 UNL     1       2.548 -17.052   4.955  1.00  0.00     0.157 HD
ATOM     13  H11 UNL     1       1.508 -17.085   6.354  1.00  0.00     0.157 HD
ENDBRANCH  10  11
BRANCH  10  14
HETATM   14  N2  UNL     1       0.650 -16.314   3.406  1.00  0.00    -0.291 N 
ATOM     15  H2  UNL     1       0.226 -15.401   3.245  1.00  0.00     0.188 HD
BRANCH  14  16
HETATM   16  N3  UNL     1       1.319 -16.953   2.391  1.00  0.00    -0.344 N 
ATOM     17  H32 UNL     1       1.996 -16.431   1.836  1.00  0.00     0.176 HD
ATOM     18  H31 UNL     1       1.133 -17.939   2.204  1.00  0.00     0.176 HD
ENDBRANCH  14  16
ENDBRANCH  10  14
ENDBRANCH   1  10
BRANCH   9  19
HETATM   19  N6  UNL     1      -1.703 -15.212   5.451  1.00  0.00    -0.107 N 
HETATM   20  O2  UNL     1      -1.863 -14.586   4.355  1.00  0.00    -0.531 OA
HETATM   21  O3  UNL     1      -1.390 -14.431   6.530  1.00  0.00    -0.531 OA
ENDBRANCH   9  19
TORSDOF 5
ENDMDL
MODEL 4
REMARK VINA RESULT: -4.060925640      0.538      1.353
REMARK  5 active torsions:
REMARK  status: ('A' for Active; 'I' for Inactive)
REMARK    1  A    between atoms: N1_1  and  C1_4 
REMARK    2  A    between atoms: C1_4  and  N2_5 
REMARK    3  A    between atoms: C1_4  and  C2_10 
REMARK    4  A    between atoms: N2_5  and  N3_7 
REMARK    5  A    between atoms: C5_18  and  N6_19 
ROOT
HETATM    1  C2  UNL     1      -1.365 -16.541   3.466  1.00  0.00     0.117 A 
HETATM    2  N4  UNL     1      -1.657 -17.002   2.203  1.00  0.00    -0.347 N 
ATOM      3  H4  UNL     1      -0.921 -17.468   1.674  1.00  0.00     0.167 HD
HETATM    4  C3  UNL     1      -2.848 -16.870   1.643  1.00  0.00     0.184 A 
HETATM    5  N5  UNL     1      -3.829 -16.267   2.308  1.00  0.00    -0.318 N 
ATOM      6  H5  UNL     1      -4.742 -16.172   1.863  1.00  0.00     0.169 HD
HETATM    7  C4  UNL     1      -3.657 -15.781   3.540  1.00  0.00     0.281 A 
HETATM    8  O1  UNL     1      -4.549 -15.207   4.202  1.00  0.00    -0.265 OA
HETATM    9  C5  UNL     1      -2.381 -15.937   4.113  1.00  0.00     0.201 A 
ENDROOT
BRANCH   1  10
HETATM   10  C1  UNL     1      -0.019 -16.713   3.988  1.00  0.00     0.143 C 
BRANCH  10  11
HETATM   11  N1  UNL     1       0.297 -17.113   5.107  1.00  0.00    -0.383 N 
ATOM     12  H12 UNL     1       0.942 -16.667   5.760  1.00  0.00     0.157 HD
ATOM     13  H11 UNL     1      -0.148 -17.981   5.405  1.00  0.00     0.157 HD
ENDBRANCH  10  11
BRANCH  10  14
HETATM   14  N2  UNL     1       1.089 -16.394   3.102  1.00  0.00    -0.291 N 
ATOM     15  H2  UNL     1       1.341 -15.421   2.927  1.00  0.00     0.188 HD
BRANCH  14  16
HETATM   16  N3  UNL     1       1.796 -17.408   2.503  1.00  0.00    -0.344 N 
ATOM     17  H32 UNL     1       1.886 -17.418   1.487  1.00  0.00     0.176 HD
ATOM     18  H31 UNL     1       2.221 -18.137   3.076  1.00  0.00     0.176 HD
ENDBRANCH  14  16
ENDBRANCH  10  14
ENDBRANCH   1  10
BRANCH   9  19
HETATM   19  N6  UNL     1      -2.239 -15.431   5.419  1.00  0.00    -0.107 N 
HETATM   20  O2  UNL     1      -2.428 -16.213   6.405  1.00  0.00    -0.531 OA
HETATM   21  O3  UNL     1      -1.962 -14.133   5.747  1.00  0.00    -0.531 OA
ENDBRANCH   9  19
TORSDOF 5
ENDMDL
MODEL 5
REMARK VINA RESULT: -3.942568019      2.990      5.189
REMARK  5 active torsions:
REMARK  status: ('A' for Active; 'I' for Inactive)
REMARK    1  A    between atoms: N1_1  and  C1_4 
REMARK    2  A    between atoms: C1_4  and  N2_5 
REMARK    3  A    between atoms: C1_4  and  C2_10 
REMARK    4  A    between atoms: N2_5  and  N3_7 
REMARK    5  A    between atoms: C5_18  and  N6_19 
ROOT
HETATM    1  C2  UNL     1      -4.780 -15.970   6.045  1.00  0.00     0.117 A 
HETATM    2  N4  UNL     1      -5.270 -15.605   7.277  1.00  0.00    -0.347 N 
ATOM      3  H4  UNL     1      -6.226 -15.866   7.516  1.00  0.00     0.167 HD
HETATM    4  C3  UNL     1      -4.560 -14.931   8.167  1.00  0.00     0.184 A 
HETATM    5  N5  UNL     1      -3.310 -14.575   7.884  1.00  0.00    -0.318 N 
ATOM      6  H5  UNL     1      -2.775 -14.056   8.580  1.00  0.00     0.169 HD
HETATM    7  C4  UNL     1      -2.733 -14.877   6.718  1.00  0.00     0.281 A 
HETATM    8  O1  UNL     1      -1.563 -14.563   6.409  1.00  0.00    -0.265 OA
HETATM    9  C5  UNL     1      -3.510 -15.596   5.791  1.00  0.00     0.201 A 
ENDROOT
BRANCH   1  10
HETATM   10  C1  UNL     1      -5.644 -16.691   5.125  1.00  0.00     0.143 C 
BRANCH  10  11
HETATM   11  N1  UNL     1      -5.708 -17.909   4.967  1.00  0.00    -0.383 N 
ATOM     12  H12 UNL     1      -5.983 -18.405   4.120  1.00  0.00     0.157 HD
ATOM     13  H11 UNL     1      -5.448 -18.471   5.778  1.00  0.00     0.157 HD
ENDBRANCH  10  11
BRANCH  10  14
HETATM   14  N2  UNL     1      -6.547 -15.906   4.299  1.00  0.00    -0.291 N 
ATOM     15  H2  UNL     1      -7.536 -15.840   4.541  1.00  0.00     0.188 HD
BRANCH  14  16
HETATM   16  N3  UNL     1      -6.063 -15.252   3.192  1.00  0.00    -0.344 N 
ATOM     17  H32 UNL     1      -5.344 -14.539   3.311  1.00  0.00     0.176 HD
ATOM     18  H31 UNL     1      -6.427 -15.484   2.268  1.00  0.00     0.176 HD
ENDBRANCH  14  16
ENDBRANCH  10  14
ENDBRANCH   1  10
BRANCH   9  19
HETATM   19  N6  UNL     1      -2.865 -15.914   4.580  1.00  0.00    -0.107 N 
HETATM   20  O2  UNL     1      -3.039 -15.155   3.573  1.00  0.00    -0.531 OA
HETATM   21  O3  UNL     1      -2.088 -17.016   4.356  1.00  0.00    -0.531 OA
ENDBRANCH   9  19
TORSDOF 5
ENDMDL
