MODEL 1
REMARK VINA RESULT: -7.833263768      0.000      0.000
REMARK  10 active torsions:
REMARK  status: ('A' for Active; 'I' for Inactive)
REMARK    1  A    between atoms: O1_2  and  C2_3 
REMARK    2  A    between atoms: C2_3  and  C3_5 
REMARK    3  A    between atoms: C3_5  and  N1_6 
REMARK    4  A    between atoms: C4_7  and  O3_8 
REMARK    5  A    between atoms: C5_10  and  C6_11 
REMARK    6  A    between atoms: N2_12  and  C7_14 
REMARK    7  A    between atoms: C10_18  and  N3_19 
REMARK       I    between atoms: N3_19  and  C11_21 
REMARK    8  A    between atoms: C11_21  and  C12_23 
REMARK    9  A    between atoms: C12_23  and  O5_24 
REMARK   10  A    between atoms: C14_31  and  N6_32 
ROOT
HETATM    1  N1  UNL     1     -10.398  62.314  11.466  1.00  0.00    -0.309 N 
HETATM    2  C4  UNL     1     -10.984  61.281  10.838  1.00  0.00     0.172 A 
HETATM    3  C5  UNL     1     -12.256  61.242  10.277  1.00  0.00     0.101 A 
HETATM    4  N4  UNL     1     -12.963  62.359  10.366  1.00  0.00    -0.335 N 
ATOM      5  H4  UNL     1     -13.903  62.390   9.972  1.00  0.00     0.168 HD
HETATM    6  C13 UNL     1     -12.456  63.471  10.977  1.00  0.00     0.154 A 
HETATM    7  N5  UNL     1     -13.147  64.646  11.017  1.00  0.00    -0.174 N 
ATOM      8  H5  UNL     1     -14.087  64.684  10.622  1.00  0.00     0.186 HD
HETATM    9  C14 UNL     1     -12.629  65.737  11.555  1.00  0.00     0.680 A 
HETATM   10  N7  UNL     1     -11.372  65.696  12.088  1.00  0.00    -0.154 N 
ATOM     11  H7  UNL     1     -10.987  66.543  12.508  1.00  0.00     0.187 HD
HETATM   12  C15 UNL     1     -10.632  64.588  12.078  1.00  0.00     0.290 A 
HETATM   13  O6  UNL     1      -9.455  64.510  12.549  1.00  0.00    -0.265 OA
HETATM   14  C16 UNL     1     -11.159  63.432  11.523  1.00  0.00     0.151 A 
ENDROOT
BRANCH   3  15
HETATM   15  C6  UNL     1     -12.459  60.076   9.429  1.00  0.00     0.122 C 
HETATM   16  N2  UNL     1     -12.833  58.802   9.680  1.00  0.00    -0.361 N 
ATOM     17  H2  UNL     1     -12.156  58.230   9.175  1.00  0.00     0.165 HD
BRANCH  16  18
HETATM   18  C7  UNL     1     -13.685  57.883  10.287  1.00  0.00     0.066 A 
HETATM   19  C8  UNL     1     -14.974  57.646   9.953  1.00  0.00     0.081 A 
HETATM   20  S1  UNL     1     -15.509  56.528  11.114  1.00  0.00    -0.109 SA
HETATM   21  C9  UNL     1     -14.115  56.367  12.022  1.00  0.00     0.081 A 
HETATM   22  C10 UNL     1     -13.214  57.165  11.430  1.00  0.00     0.068 A 
BRANCH  22  23
HETATM   23  N3  UNL     1     -11.849  57.367  11.889  1.00  0.00    -0.323 N 
HETATM   24  C11 UNL     1     -11.453  57.356  13.234  1.00  0.00     0.245 C 
HETATM   25  O4  UNL     1     -12.122  57.184  14.251  1.00  0.00    -0.271 OA
ATOM     26  H3  UNL     1     -11.130  57.526  11.184  1.00  0.00     0.169 HD
BRANCH  24  27
HETATM   27  C12 UNL     1      -9.940  57.584  13.439  1.00  0.00     0.267 C 
BRANCH  27  28
HETATM   28  O5  UNL     1      -9.832  58.212  14.696  1.00  0.00    -0.392 OA
ATOM     29  H5  UNL     1      -9.224  57.674  15.189  1.00  0.00     0.210 HD
ENDBRANCH  27  28
ENDBRANCH  24  27
ENDBRANCH  22  23
ENDBRANCH  16  18
ENDBRANCH   3  15
BRANCH   2  30
HETATM   30  O3  UNL     1     -10.246  60.206  10.764  1.00  0.00    -0.344 OA
ATOM     31  H3  UNL     1     -10.518  59.588  10.096  1.00  0.00     0.219 HD
ENDBRANCH   2  30
BRANCH   1  32
HETATM   32  C3  UNL     1      -9.184  62.074  12.158  1.00  0.00     0.242 C 
BRANCH  32  33
HETATM   33  C2  UNL     1      -9.240  61.327  13.424  1.00  0.00     0.276 C 
HETATM   34  O2  UNL     1     -10.133  61.355  14.279  1.00  0.00    -0.263 OA
BRANCH  33  35
HETATM   35  O1  UNL     1      -8.127  60.487  13.694  1.00  0.00    -0.325 OA
HETATM   36  C1  UNL     1      -7.185  59.982  12.858  1.00  0.00     0.213 C 
ENDBRANCH  33  35
ENDBRANCH  32  33
ENDBRANCH   1  32
BRANCH   9  37
HETATM   37  N6  UNL     1     -13.234  66.855  11.594  1.00  0.00    -0.234 N 
ATOM     38  H62 UNL     1     -14.006  66.985  10.939  1.00  0.00     0.174 HD
ATOM     39  H61 UNL     1     -12.994  67.602  12.246  1.00  0.00     0.174 HD
ENDBRANCH   9  37
TORSDOF 10
ENDMDL
MODEL 2
REMARK VINA RESULT: -7.630702538      2.902      6.395
REMARK  10 active torsions:
REMARK  status: ('A' for Active; 'I' for Inactive)
REMARK    1  A    between atoms: O1_2  and  C2_3 
REMARK    2  A    between atoms: C2_3  and  C3_5 
REMARK    3  A    between atoms: C3_5  and  N1_6 
REMARK    4  A    between atoms: C4_7  and  O3_8 
REMARK    5  A    between atoms: C5_10  and  C6_11 
REMARK    6  A    between atoms: N2_12  and  C7_14 
REMARK    7  A    between atoms: C10_18  and  N3_19 
REMARK       I    between atoms: N3_19  and  C11_21 
REMARK    8  A    between atoms: C11_21  and  C12_23 
REMARK    9  A    between atoms: C12_23  and  O5_24 
REMARK   10  A    between atoms: C14_31  and  N6_32 
ROOT
HETATM    1  N1  UNL     1     -12.519  58.286  11.943  1.00  0.00    -0.309 N 
HETATM    2  C4  UNL     1     -11.765  59.285  11.454  1.00  0.00     0.172 A 
HETATM    3  C5  UNL     1     -11.887  59.912  10.219  1.00  0.00     0.101 A 
HETATM    4  N4  UNL     1     -12.869  59.476   9.443  1.00  0.00    -0.335 N 
ATOM      5  H4  UNL     1     -13.007  59.899   8.525  1.00  0.00     0.168 HD
HETATM    6  C13 UNL     1     -13.699  58.470   9.849  1.00  0.00     0.154 A 
HETATM    7  N5  UNL     1     -14.753  58.059   9.088  1.00  0.00    -0.174 N 
ATOM      8  H5  UNL     1     -14.898  58.480   8.170  1.00  0.00     0.186 HD
HETATM    9  C14 UNL     1     -15.591  57.127   9.510  1.00  0.00     0.680 A 
HETATM   10  N7  UNL     1     -15.404  56.556  10.736  1.00  0.00    -0.154 N 
ATOM     11  H7  UNL     1     -16.053  55.832  11.047  1.00  0.00     0.187 HD
HETATM   12  C15 UNL     1     -14.403  56.912  11.541  1.00  0.00     0.290 A 
HETATM   13  O6  UNL     1     -14.202  56.418  12.693  1.00  0.00    -0.265 OA
HETATM   14  C16 UNL     1     -13.511  57.884  11.114  1.00  0.00     0.151 A 
ENDROOT
BRANCH   3  15
HETATM   15  C6  UNL     1     -11.104  61.136  10.133  1.00  0.00     0.122 C 
HETATM   16  N2  UNL     1     -11.245  62.367  10.675  1.00  0.00    -0.361 N 
ATOM     17  H2  UNL     1     -11.111  63.009   9.894  1.00  0.00     0.165 HD
BRANCH  16  18
HETATM   18  C7  UNL     1     -11.482  63.191  11.771  1.00  0.00     0.066 A 
HETATM   19  C8  UNL     1     -10.546  63.718  12.593  1.00  0.00     0.081 A 
HETATM   20  S1  UNL     1     -11.443  64.517  13.793  1.00  0.00    -0.109 SA
HETATM   21  C9  UNL     1     -12.993  64.180  13.265  1.00  0.00     0.081 A 
HETATM   22  C10 UNL     1     -12.835  63.458  12.146  1.00  0.00     0.068 A 
BRANCH  22  23
HETATM   23  N3  UNL     1     -13.921  62.916  11.343  1.00  0.00    -0.323 N 
HETATM   24  C11 UNL     1     -14.666  61.778  11.680  1.00  0.00     0.245 C 
HETATM   25  O4  UNL     1     -14.579  61.040  12.660  1.00  0.00    -0.271 OA
ATOM     26  H3  UNL     1     -14.155  63.398  10.475  1.00  0.00     0.169 HD
BRANCH  24  27
HETATM   27  C12 UNL     1     -15.768  61.430  10.655  1.00  0.00     0.267 C 
BRANCH  27  28
HETATM   28  O5  UNL     1     -16.253  60.169  11.054  1.00  0.00    -0.392 OA
ATOM     29  H5  UNL     1     -15.846  59.549  10.460  1.00  0.00     0.210 HD
ENDBRANCH  27  28
ENDBRANCH  24  27
ENDBRANCH  22  23
ENDBRANCH  16  18
ENDBRANCH   3  15
BRANCH   2  30
HETATM   30  O3  UNL     1     -10.819  59.689  12.259  1.00  0.00    -0.344 OA
ATOM     31  H3  UNL     1     -10.186  60.273  11.858  1.00  0.00     0.219 HD
ENDBRANCH   2  30
BRANCH   1  32
HETATM   32  C3  UNL     1     -12.087  57.642  13.130  1.00  0.00     0.242 C 
BRANCH  32  33
HETATM   33  C2  UNL     1     -11.966  58.447  14.355  1.00  0.00     0.276 C 
HETATM   34  O2  UNL     1     -12.818  59.186  14.861  1.00  0.00    -0.263 OA
BRANCH  33  35
HETATM   35  O1  UNL     1     -10.713  58.371  15.021  1.00  0.00    -0.325 OA
HETATM   36  C1  UNL     1      -9.915  59.355  15.506  1.00  0.00     0.213 C 
ENDBRANCH  33  35
ENDBRANCH  32  33
ENDBRANCH   1  32
BRANCH   9  37
HETATM   37  N6  UNL     1     -16.595  56.730   8.837  1.00  0.00    -0.234 N 
ATOM     38  H62 UNL     1     -16.670  57.068   7.877  1.00  0.00     0.174 HD
ATOM     39  H61 UNL     1     -17.302  56.094   9.205  1.00  0.00     0.174 HD
ENDBRANCH   9  37
TORSDOF 10
ENDMDL
MODEL 3
REMARK VINA RESULT: -7.598869311      0.504      1.063
REMARK  10 active torsions:
REMARK  status: ('A' for Active; 'I' for Inactive)
REMARK    1  A    between atoms: O1_2  and  C2_3 
REMARK    2  A    between atoms: C2_3  and  C3_5 
REMARK    3  A    between atoms: C3_5  and  N1_6 
REMARK    4  A    between atoms: C4_7  and  O3_8 
REMARK    5  A    between atoms: C5_10  and  C6_11 
REMARK    6  A    between atoms: N2_12  and  C7_14 
REMARK    7  A    between atoms: C10_18  and  N3_19 
REMARK       I    between atoms: N3_19  and  C11_21 
REMARK    8  A    between atoms: C11_21  and  C12_23 
REMARK    9  A    between atoms: C12_23  and  O5_24 
REMARK   10  A    between atoms: C14_31  and  N6_32 
ROOT
HETATM    1  N1  UNL     1     -10.403  62.364  11.440  1.00  0.00    -0.309 N 
HETATM    2  C4  UNL     1     -10.993  61.344  10.794  1.00  0.00     0.172 A 
HETATM    3  C5  UNL     1     -12.256  61.328  10.210  1.00  0.00     0.101 A 
HETATM    4  N4  UNL     1     -12.948  62.454  10.297  1.00  0.00    -0.335 N 
ATOM      5  H4  UNL     1     -13.880  62.501   9.886  1.00  0.00     0.168 HD
HETATM    6  C13 UNL     1     -12.436  63.554  10.925  1.00  0.00     0.154 A 
HETATM    7  N5  UNL     1     -13.110  64.738  10.963  1.00  0.00    -0.174 N 
ATOM      8  H5  UNL     1     -14.042  64.792  10.552  1.00  0.00     0.186 HD
HETATM    9  C14 UNL     1     -12.586  65.817  11.519  1.00  0.00     0.680 A 
HETATM   10  N7  UNL     1     -11.340  65.754  12.073  1.00  0.00    -0.154 N 
ATOM     11  H7  UNL     1     -10.950  66.591  12.506  1.00  0.00     0.187 HD
HETATM   12  C15 UNL     1     -10.616  64.636  12.067  1.00  0.00     0.290 A 
HETATM   13  O6  UNL     1      -9.448  64.537  12.558  1.00  0.00    -0.265 OA
HETATM   14  C16 UNL     1     -11.150  63.492  11.493  1.00  0.00     0.151 A 
ENDROOT
BRANCH   3  15
HETATM   15  C6  UNL     1     -12.459  60.172   9.350  1.00  0.00     0.122 C 
HETATM   16  N2  UNL     1     -12.850  58.899   9.584  1.00  0.00    -0.361 N 
ATOM     17  H2  UNL     1     -12.173  58.325   9.082  1.00  0.00     0.165 HD
BRANCH  16  18
HETATM   18  C7  UNL     1     -13.718  57.984  10.172  1.00  0.00     0.066 A 
HETATM   19  C8  UNL     1     -15.014  57.782   9.840  1.00  0.00     0.081 A 
HETATM   20  S1  UNL     1     -15.567  56.647  10.975  1.00  0.00    -0.109 SA
HETATM   21  C9  UNL     1     -14.172  56.434  11.871  1.00  0.00     0.081 A 
HETATM   22  C10 UNL     1     -13.258  57.227  11.295  1.00  0.00     0.068 A 
BRANCH  22  23
HETATM   23  N3  UNL     1     -11.886  57.388  11.751  1.00  0.00    -0.323 N 
HETATM   24  C11 UNL     1     -11.487  57.360  13.095  1.00  0.00     0.245 C 
HETATM   25  O4  UNL     1     -12.158  57.202  14.113  1.00  0.00    -0.271 OA
ATOM     26  H3  UNL     1     -11.164  57.530  11.044  1.00  0.00     0.169 HD
BRANCH  24  27
HETATM   27  C12 UNL     1      -9.967  57.544  13.297  1.00  0.00     0.267 C 
BRANCH  27  28
HETATM   28  O5  UNL     1      -9.827  57.989  14.626  1.00  0.00    -0.392 OA
ATOM     29  H5  UNL     1     -10.497  57.525  15.114  1.00  0.00     0.210 HD
ENDBRANCH  27  28
ENDBRANCH  24  27
ENDBRANCH  22  23
ENDBRANCH  16  18
ENDBRANCH   3  15
BRANCH   2  30
HETATM   30  O3  UNL     1     -10.269  60.259  10.724  1.00  0.00    -0.344 OA
ATOM     31  H3  UNL     1     -10.654  59.563  10.204  1.00  0.00     0.219 HD
ENDBRANCH   2  30
BRANCH   1  32
HETATM   32  C3  UNL     1      -9.205  62.101  12.152  1.00  0.00     0.242 C 
BRANCH  32  33
HETATM   33  C2  UNL     1      -9.298  61.385  13.432  1.00  0.00     0.276 C 
HETATM   34  O2  UNL     1      -8.536  60.514  13.869  1.00  0.00    -0.263 OA
BRANCH  33  35
HETATM   35  O1  UNL     1     -10.406  61.731  14.253  1.00  0.00    -0.325 OA
HETATM   36  C1  UNL     1     -11.555  61.056  14.507  1.00  0.00     0.213 C 
ENDBRANCH  33  35
ENDBRANCH  32  33
ENDBRANCH   1  32
BRANCH   9  37
HETATM   37  N6  UNL     1     -13.177  66.943  11.557  1.00  0.00    -0.234 N 
ATOM     38  H62 UNL     1     -13.826  67.098  12.328  1.00  0.00     0.174 HD
ATOM     39  H61 UNL     1     -13.020  67.683  10.872  1.00  0.00     0.174 HD
ENDBRANCH   9  37
TORSDOF 10
ENDMDL
MODEL 4
REMARK VINA RESULT: -7.584463985      2.986      6.500
REMARK  10 active torsions:
REMARK  status: ('A' for Active; 'I' for Inactive)
REMARK    1  A    between atoms: O1_2  and  C2_3 
REMARK    2  A    between atoms: C2_3  and  C3_5 
REMARK    3  A    between atoms: C3_5  and  N1_6 
REMARK    4  A    between atoms: C4_7  and  O3_8 
REMARK    5  A    between atoms: C5_10  and  C6_11 
REMARK    6  A    between atoms: N2_12  and  C7_14 
REMARK    7  A    between atoms: C10_18  and  N3_19 
REMARK       I    between atoms: N3_19  and  C11_21 
REMARK    8  A    between atoms: C11_21  and  C12_23 
REMARK    9  A    between atoms: C12_23  and  O5_24 
REMARK   10  A    between atoms: C14_31  and  N6_32 
ROOT
HETATM    1  N1  UNL     1     -12.334  59.957  12.632  1.00  0.00    -0.309 N 
HETATM    2  C4  UNL     1     -11.190  60.532  12.223  1.00  0.00     0.172 A 
HETATM    3  C5  UNL     1     -10.688  60.592  10.927  1.00  0.00     0.101 A 
HETATM    4  N4  UNL     1     -11.432  60.022   9.991  1.00  0.00    -0.335 N 
ATOM      5  H4  UNL     1     -11.115  60.035   9.022  1.00  0.00     0.168 HD
HETATM    6  C13 UNL     1     -12.618  59.417  10.300  1.00  0.00     0.154 A 
HETATM    7  N5  UNL     1     -13.424  58.886   9.337  1.00  0.00    -0.174 N 
ATOM      8  H5  UNL     1     -13.113  58.899   8.365  1.00  0.00     0.186 HD
HETATM    9  C14 UNL     1     -14.599  58.356   9.632  1.00  0.00     0.680 A 
HETATM   10  N7  UNL     1     -15.023  58.333  10.930  1.00  0.00    -0.154 N 
ATOM     11  H7  UNL     1     -15.928  57.913  11.145  1.00  0.00     0.187 HD
HETATM   12  C15 UNL     1     -14.296  58.840  11.924  1.00  0.00     0.290 A 
HETATM   13  O6  UNL     1     -14.659  58.853  13.141  1.00  0.00    -0.265 OA
HETATM   14  C16 UNL     1     -13.059  59.397  11.635  1.00  0.00     0.151 A 
ENDROOT
BRANCH   3  15
HETATM   15  C6  UNL     1      -9.586  61.534  10.797  1.00  0.00     0.122 C 
HETATM   16  N2  UNL     1      -9.493  62.876  10.929  1.00  0.00    -0.361 N 
ATOM     17  H2  UNL     1      -8.983  63.182  10.101  1.00  0.00     0.165 HD
BRANCH  16  18
HETATM   18  C7  UNL     1      -9.749  64.047  11.636  1.00  0.00     0.066 A 
HETATM   19  C8  UNL     1     -10.955  64.636  11.799  1.00  0.00     0.081 A 
HETATM   20  S1  UNL     1     -10.612  66.074  12.635  1.00  0.00    -0.109 SA
HETATM   21  C9  UNL     1      -8.951  65.937  12.771  1.00  0.00     0.081 A 
HETATM   22  C10 UNL     1      -8.644  64.771  12.183  1.00  0.00     0.068 A 
BRANCH  22  23
HETATM   23  N3  UNL     1      -7.298  64.238  12.041  1.00  0.00    -0.323 N 
HETATM   24  C11 UNL     1      -6.865  63.021  12.586  1.00  0.00     0.245 C 
HETATM   25  O4  UNL     1      -7.480  62.193  13.255  1.00  0.00    -0.271 OA
ATOM     26  H3  UNL     1      -6.624  64.786  11.507  1.00  0.00     0.169 HD
BRANCH  24  27
HETATM   27  C12 UNL     1      -5.389  62.689  12.273  1.00  0.00     0.267 C 
BRANCH  27  28
HETATM   28  O5  UNL     1      -4.646  63.340  13.277  1.00  0.00    -0.392 OA
ATOM     29  H5  UNL     1      -4.598  64.247  12.999  1.00  0.00     0.210 HD
ENDBRANCH  27  28
ENDBRANCH  24  27
ENDBRANCH  22  23
ENDBRANCH  16  18
ENDBRANCH   3  15
BRANCH   2  30
HETATM   30  O3  UNL     1     -10.496  61.091  13.178  1.00  0.00    -0.344 OA
ATOM     31  H3  UNL     1      -9.794  61.654  12.875  1.00  0.00     0.219 HD
ENDBRANCH   2  30
BRANCH   1  32
HETATM   32  C3  UNL     1     -12.549  59.816  14.026  1.00  0.00     0.242 C 
BRANCH  32  33
HETATM   33  C2  UNL     1     -11.617  58.977  14.794  1.00  0.00     0.276 C 
HETATM   34  O2  UNL     1     -10.944  59.302  15.779  1.00  0.00    -0.263 OA
BRANCH  33  35
HETATM   35  O1  UNL     1     -11.468  57.641  14.334  1.00  0.00    -0.325 OA
HETATM   36  C1  UNL     1     -10.365  56.979  13.902  1.00  0.00     0.213 C 
ENDBRANCH  33  35
ENDBRANCH  32  33
ENDBRANCH   1  32
BRANCH   9  37
HETATM   37  N6  UNL     1     -15.386  57.868   8.760  1.00  0.00    -0.234 N 
ATOM     38  H62 UNL     1     -15.715  58.499   8.029  1.00  0.00     0.174 HD
ATOM     39  H61 UNL     1     -15.684  56.892   8.755  1.00  0.00     0.174 HD
ENDBRANCH   9  37
TORSDOF 10
ENDMDL
MODEL 5
REMARK VINA RESULT: -7.563545200      3.218      5.421
REMARK  10 active torsions:
REMARK  status: ('A' for Active; 'I' for Inactive)
REMARK    1  A    between atoms: O1_2  and  C2_3 
REMARK    2  A    between atoms: C2_3  and  C3_5 
REMARK    3  A    between atoms: C3_5  and  N1_6 
REMARK    4  A    between atoms: C4_7  and  O3_8 
REMARK    5  A    between atoms: C5_10  and  C6_11 
REMARK    6  A    between atoms: N2_12  and  C7_14 
REMARK    7  A    between atoms: C10_18  and  N3_19 
REMARK       I    between atoms: N3_19  and  C11_21 
REMARK    8  A    between atoms: C11_21  and  C12_23 
REMARK    9  A    between atoms: C12_23  and  O5_24 
REMARK   10  A    between atoms: C14_31  and  N6_32 
ROOT
HETATM    1  N1  UNL     1     -12.318  59.753  13.485  1.00  0.00    -0.309 N 
HETATM    2  C4  UNL     1     -13.257  58.904  13.035  1.00  0.00     0.172 A 
HETATM    3  C5  UNL     1     -13.065  57.633  12.503  1.00  0.00     0.101 A 
HETATM    4  N4  UNL     1     -11.810  57.212  12.445  1.00  0.00    -0.335 N 
ATOM      5  H4  UNL     1     -11.609  56.288  12.065  1.00  0.00     0.168 HD
HETATM    6  C13 UNL     1     -10.780  57.995  12.886  1.00  0.00     0.154 A 
HETATM    7  N5  UNL     1      -9.492  57.548  12.893  1.00  0.00    -0.174 N 
ATOM      8  H5  UNL     1      -9.285  56.623  12.516  1.00  0.00     0.186 HD
HETATM    9  C14 UNL     1      -8.506  58.284  13.376  1.00  0.00     0.680 A 
HETATM   10  N7  UNL     1      -8.773  59.525  13.881  1.00  0.00    -0.154 N 
ATOM     11  H7  UNL     1      -8.002  60.086  14.243  1.00  0.00     0.187 HD
HETATM   12  C15 UNL     1     -10.007  60.026  13.916  1.00  0.00     0.290 A 
HETATM   13  O6  UNL     1     -10.302  61.167  14.390  1.00  0.00    -0.265 OA
HETATM   14  C16 UNL     1     -11.055  59.271  13.410  1.00  0.00     0.151 A 
ENDROOT
BRANCH   3  15
HETATM   15  C6  UNL     1     -14.306  56.881  12.389  1.00  0.00     0.122 C 
HETATM   16  N2  UNL     1     -15.329  56.909  11.505  1.00  0.00    -0.361 N 
ATOM     17  H2  UNL     1     -16.169  56.933  12.084  1.00  0.00     0.165 HD
BRANCH  16  18
HETATM   18  C7  UNL     1     -15.804  56.921  10.197  1.00  0.00     0.066 A 
HETATM   19  C8  UNL     1     -16.645  56.019   9.643  1.00  0.00     0.081 A 
HETATM   20  S1  UNL     1     -16.753  56.490   8.015  1.00  0.00    -0.109 SA
HETATM   21  C9  UNL     1     -15.734  57.816   8.032  1.00  0.00     0.081 A 
HETATM   22  C10 UNL     1     -15.309  57.918   9.299  1.00  0.00     0.068 A 
BRANCH  22  23
HETATM   23  N3  UNL     1     -14.378  58.922   9.789  1.00  0.00    -0.323 N 
HETATM   24  C11 UNL     1     -13.150  59.227   9.186  1.00  0.00     0.245 C 
HETATM   25  O4  UNL     1     -12.625  58.752   8.181  1.00  0.00    -0.271 OA
ATOM     26  H3  UNL     1     -14.636  59.440  10.629  1.00  0.00     0.169 HD
BRANCH  24  27
HETATM   27  C12 UNL     1     -12.363  60.344   9.906  1.00  0.00     0.267 C 
BRANCH  27  28
HETATM   28  O5  UNL     1     -11.366  60.737   8.992  1.00  0.00    -0.392 OA
ATOM     29  H5  UNL     1     -11.351  60.052   8.334  1.00  0.00     0.210 HD
ENDBRANCH  27  28
ENDBRANCH  24  27
ENDBRANCH  22  23
ENDBRANCH  16  18
ENDBRANCH   3  15
BRANCH   2  30
HETATM   30  O3  UNL     1     -14.479  59.356  13.123  1.00  0.00    -0.344 OA
ATOM     31  H3  UNL     1     -14.860  59.290  13.990  1.00  0.00     0.219 HD
ENDBRANCH   2  30
BRANCH   1  32
HETATM   32  C3  UNL     1     -12.706  61.084  13.780  1.00  0.00     0.242 C 
BRANCH  32  33
HETATM   33  C2  UNL     1     -13.538  61.319  14.970  1.00  0.00     0.276 C 
HETATM   34  O2  UNL     1     -14.773  61.332  15.038  1.00  0.00    -0.263 OA
BRANCH  33  35
HETATM   35  O1  UNL     1     -12.832  61.574  16.176  1.00  0.00    -0.325 OA
HETATM   36  C1  UNL     1     -12.438  62.748  16.731  1.00  0.00     0.213 C 
ENDBRANCH  33  35
ENDBRANCH  32  33
ENDBRANCH   1  32
BRANCH   9  37
HETATM   37  N6  UNL     1      -7.295  57.895  13.417  1.00  0.00    -0.234 N 
ATOM     38  H62 UNL     1      -6.631  58.502  13.897  1.00  0.00     0.174 HD
ATOM     39  H61 UNL     1      -6.974  57.016  13.010  1.00  0.00     0.174 HD
ENDBRANCH   9  37
TORSDOF 10
ENDMDL
