MODEL 1
REMARK VINA RESULT: -9.258170075      0.000      0.000
REMARK  12 active torsions:
REMARK  status: ('A' for Active; 'I' for Inactive)
REMARK    1  A    between atoms: O1_2  and  C2_3 
REMARK    2  A    between atoms: C2_3  and  C3_5 
REMARK    3  A    between atoms: C3_5  and  C4_6 
REMARK    4  A    between atoms: C3_5  and  C13_28 
REMARK       I    between atoms: C4_6  and  N1_8 
REMARK    5  A    between atoms: N1_8  and  N2_10 
REMARK    6  A    between atoms: C5_11  and  O4_12 
REMARK    7  A    between atoms: C6_18  and  C7_19 
REMARK    8  A    between atoms: C7_19  and  O5_20 
REMARK    9  A    between atoms: C7_19  and  C8_22 
REMARK   10  A    between atoms: C8_22  and  C9_23 
REMARK   11  A    between atoms: C14_31  and  N6_32 
REMARK   12  A    between atoms: C15_37  and  N8_38 
ROOT
HETATM    1  C4  UNL     1     -13.134  57.775  11.732  1.00  0.00     0.256 C 
HETATM    2  O3  UNL     1     -12.402  56.904  11.202  1.00  0.00    -0.270 OA
HETATM    3  N1  UNL     1     -14.458  57.963  11.349  1.00  0.00    -0.256 N 
ATOM      4  H1  UNL     1     -14.910  58.707  11.881  1.00  0.00     0.191 HD
ENDROOT
BRANCH   1   5
HETATM    5  C3  UNL     1     -12.505  58.636  12.834  1.00  0.00     0.230 C 
BRANCH   5   6
HETATM    6  C2  UNL     1     -13.514  59.558  13.408  1.00  0.00     0.277 C 
HETATM    7  O2  UNL     1     -13.750  59.636  14.666  1.00  0.00    -0.264 OA
BRANCH   6   8
HETATM    8  O1  UNL     1     -14.303  60.423  12.657  1.00  0.00    -0.326 OA
HETATM    9  C1  UNL     1     -14.287  61.807  12.815  1.00  0.00     0.213 C 
ENDBRANCH   6   8
ENDBRANCH   5   6
BRANCH   5  10
HETATM   10  C13 UNL     1     -11.273  59.282  12.430  1.00  0.00     0.059 A 
HETATM   11  N5  UNL     1     -11.183  60.295  11.564  1.00  0.00    -0.194 N 
HETATM   12  C14 UNL     1     -10.007  60.893  11.213  1.00  0.00     0.677 A 
ATOM     13  H5  UNL     1     -12.043  60.642  11.140  1.00  0.00     0.184 HD
HETATM   14  N7  UNL     1      -8.882  60.442  11.766  1.00  0.00    -0.177 N 
HETATM   15  C15 UNL     1      -8.888  59.429  12.646  1.00  0.00     0.122 A 
ATOM     16  H7  UNL     1      -7.994  60.876  11.514  1.00  0.00     0.185 HD
HETATM   17  C16 UNL     1     -10.083  58.826  12.997  1.00  0.00     0.007 A 
HETATM   18  C17 UNL     1     -10.103  57.738  13.947  1.00  0.00     0.054 C 
BRANCH  12  19
HETATM   19  N6  UNL     1     -10.003  61.865  10.368  1.00  0.00    -0.234 N 
ATOM     20  H62 UNL     1     -10.224  61.720   9.383  1.00  0.00     0.174 HD
ATOM     21  H61 UNL     1      -9.777  62.810  10.676  1.00  0.00     0.174 HD
ENDBRANCH  12  19
BRANCH  15  22
HETATM   22  N8  UNL     1      -7.780  59.013  13.166  1.00  0.00    -0.385 N 
ATOM     23  H82 UNL     1      -6.958  58.886  12.575  1.00  0.00     0.157 HD
ATOM     24  H81 UNL     1      -7.725  58.812  14.164  1.00  0.00     0.157 HD
ENDBRANCH  15  22
ENDBRANCH   5  10
ENDBRANCH   1   5
BRANCH   3  25
HETATM   25  N2  UNL     1     -15.301  57.400  10.442  1.00  0.00    -0.176 N 
HETATM   26  C5  UNL     1     -16.146  56.407  10.885  1.00  0.00     0.261 A 
HETATM   27  N3  UNL     1     -17.014  55.793  10.062  1.00  0.00    -0.263 N 
HETATM   28  N4  UNL     1     -17.090  56.115   8.805  1.00  0.00    -0.290 N 
ATOM     29  H3  UNL     1     -17.622  55.062  10.430  1.00  0.00     0.190 HD
HETATM   30  C6  UNL     1     -16.331  57.054   8.257  1.00  0.00     0.151 A 
ATOM     31  H4  UNL     1     -17.762  55.624   8.216  1.00  0.00     0.187 HD
HETATM   32  C12 UNL     1     -15.420  57.693   9.143  1.00  0.00     0.300 A 
HETATM   33  O6  UNL     1     -14.708  58.580   8.614  1.00  0.00    -0.263 OA
BRANCH  26  34
HETATM   34  O4  UNL     1     -16.134  56.006  12.186  1.00  0.00    -0.330 OA
ATOM     35  H4  UNL     1     -16.910  55.636  12.591  1.00  0.00     0.221 HD
ENDBRANCH  26  34
BRANCH  30  36
HETATM   36  C7  UNL     1     -16.352  57.466   6.895  1.00  0.00     0.099 C 
BRANCH  36  37
HETATM   37  O5  UNL     1     -15.184  57.296   6.275  1.00  0.00    -0.358 OA
ATOM     38  H5  UNL     1     -15.259  56.819   5.457  1.00  0.00     0.217 HD
ENDBRANCH  36  37
BRANCH  36  39
HETATM   39  C8  UNL     1     -17.366  58.018   6.072  1.00  0.00     0.041 C 
BRANCH  39  40
HETATM   40  C9  UNL     1     -17.912  59.147   5.881  1.00  0.00    -0.085 C 
HETATM   41  C10 UNL     1     -17.807  60.107   7.116  1.00  0.00     0.043 C 
HETATM   42  C11 UNL     1     -18.633  59.743   4.742  1.00  0.00     0.043 C 
ENDBRANCH  39  40
ENDBRANCH  36  39
ENDBRANCH  30  36
ENDBRANCH   3  25
TORSDOF 12
ENDMDL
MODEL 2
REMARK VINA RESULT: -8.854320901      1.335      1.501
REMARK  12 active torsions:
REMARK  status: ('A' for Active; 'I' for Inactive)
REMARK    1  A    between atoms: O1_2  and  C2_3 
REMARK    2  A    between atoms: C2_3  and  C3_5 
REMARK    3  A    between atoms: C3_5  and  C4_6 
REMARK    4  A    between atoms: C3_5  and  C13_28 
REMARK       I    between atoms: C4_6  and  N1_8 
REMARK    5  A    between atoms: N1_8  and  N2_10 
REMARK    6  A    between atoms: C5_11  and  O4_12 
REMARK    7  A    between atoms: C6_18  and  C7_19 
REMARK    8  A    between atoms: C7_19  and  O5_20 
REMARK    9  A    between atoms: C7_19  and  C8_22 
REMARK   10  A    between atoms: C8_22  and  C9_23 
REMARK   11  A    between atoms: C14_31  and  N6_32 
REMARK   12  A    between atoms: C15_37  and  N8_38 
ROOT
HETATM    1  C4  UNL     1     -12.656  57.692  12.138  1.00  0.00     0.256 C 
HETATM    2  O3  UNL     1     -12.158  56.884  11.315  1.00  0.00    -0.270 OA
HETATM    3  N1  UNL     1     -14.000  58.045  12.109  1.00  0.00    -0.256 N 
ATOM      4  H1  UNL     1     -14.239  58.708  12.847  1.00  0.00     0.191 HD
ENDROOT
BRANCH   1   5
HETATM    5  C3  UNL     1     -11.710  58.281  13.191  1.00  0.00     0.230 C 
BRANCH   5   6
HETATM    6  C2  UNL     1     -12.486  58.869  14.309  1.00  0.00     0.277 C 
HETATM    7  O2  UNL     1     -12.337  58.501  15.530  1.00  0.00    -0.264 OA
BRANCH   6   8
HETATM    8  O1  UNL     1     -13.445  59.866  14.160  1.00  0.00    -0.326 OA
HETATM    9  C1  UNL     1     -13.248  61.185  14.561  1.00  0.00     0.213 C 
ENDBRANCH   6   8
ENDBRANCH   5   6
BRANCH   5  10
HETATM   10  C13 UNL     1     -10.706  59.166  12.638  1.00  0.00     0.059 A 
HETATM   11  N5  UNL     1     -10.949  60.185  11.810  1.00  0.00    -0.194 N 
HETATM   12  C14 UNL     1      -9.981  61.011  11.314  1.00  0.00     0.677 A 
ATOM     13  H5  UNL     1     -11.915  60.357  11.532  1.00  0.00     0.184 HD
HETATM   14  N7  UNL     1      -8.719  60.788  11.676  1.00  0.00    -0.177 N 
HETATM   15  C15 UNL     1      -8.391  59.785  12.506  1.00  0.00     0.122 A 
ATOM     16  H7  UNL     1      -7.983  61.394  11.314  1.00  0.00     0.185 HD
HETATM   17  C16 UNL     1      -9.376  58.951  13.004  1.00  0.00     0.007 A 
HETATM   18  C17 UNL     1      -9.038  57.871  13.901  1.00  0.00     0.054 C 
BRANCH  12  19
HETATM   19  N6  UNL     1     -10.297  61.972  10.518  1.00  0.00    -0.234 N 
ATOM     20  H62 UNL     1     -10.874  62.756  10.827  1.00  0.00     0.174 HD
ATOM     21  H61 UNL     1      -9.970  61.966   9.553  1.00  0.00     0.174 HD
ENDBRANCH  12  19
BRANCH  15  22
HETATM   22  N8  UNL     1      -7.157  59.594  12.839  1.00  0.00    -0.385 N 
ATOM     23  H82 UNL     1      -6.466  59.370  12.122  1.00  0.00     0.157 HD
ATOM     24  H81 UNL     1      -6.872  59.667  13.815  1.00  0.00     0.157 HD
ENDBRANCH  15  22
ENDBRANCH   5  10
ENDBRANCH   1   5
BRANCH   3  25
HETATM   25  N2  UNL     1     -15.077  57.727  11.341  1.00  0.00    -0.176 N 
HETATM   26  C5  UNL     1     -15.742  56.556  11.627  1.00  0.00     0.261 A 
HETATM   27  N3  UNL     1     -16.816  56.159  10.923  1.00  0.00    -0.263 N 
HETATM   28  N4  UNL     1     -17.273  56.870   9.937  1.00  0.00    -0.290 N 
ATOM     29  H3  UNL     1     -17.280  55.284  11.167  1.00  0.00     0.190 HD
HETATM   30  C6  UNL     1     -16.722  58.017   9.563  1.00  0.00     0.151 A 
ATOM     31  H4  UNL     1     -18.091  56.532   9.429  1.00  0.00     0.187 HD
HETATM   32  C12 UNL     1     -15.587  58.422  10.319  1.00  0.00     0.300 A 
HETATM   33  O6  UNL     1     -15.075  59.508   9.957  1.00  0.00    -0.263 OA
BRANCH  26  34
HETATM   34  O4  UNL     1     -15.331  55.748  12.643  1.00  0.00    -0.330 OA
ATOM     35  H4  UNL     1     -14.949  54.896  12.466  1.00  0.00     0.221 HD
ENDBRANCH  26  34
BRANCH  30  36
HETATM   36  C7  UNL     1     -17.160  58.855   8.498  1.00  0.00     0.099 C 
BRANCH  36  37
HETATM   37  O5  UNL     1     -17.455  60.094   8.892  1.00  0.00    -0.358 OA
ATOM     38  H5  UNL     1     -16.700  60.670   8.913  1.00  0.00     0.217 HD
ENDBRANCH  36  37
BRANCH  36  39
HETATM   39  C8  UNL     1     -17.343  58.632   7.111  1.00  0.00     0.041 C 
BRANCH  39  40
HETATM   40  C9  UNL     1     -17.886  59.220   6.127  1.00  0.00    -0.085 C 
HETATM   41  C10 UNL     1     -17.695  58.464   4.766  1.00  0.00     0.043 C 
HETATM   42  C11 UNL     1     -18.654  60.471   5.993  1.00  0.00     0.043 C 
ENDBRANCH  39  40
ENDBRANCH  36  39
ENDBRANCH  30  36
ENDBRANCH   3  25
TORSDOF 12
ENDMDL
MODEL 3
REMARK VINA RESULT: -8.810935907      2.615      3.983
REMARK  12 active torsions:
REMARK  status: ('A' for Active; 'I' for Inactive)
REMARK    1  A    between atoms: O1_2  and  C2_3 
REMARK    2  A    between atoms: C2_3  and  C3_5 
REMARK    3  A    between atoms: C3_5  and  C4_6 
REMARK    4  A    between atoms: C3_5  and  C13_28 
REMARK       I    between atoms: C4_6  and  N1_8 
REMARK    5  A    between atoms: N1_8  and  N2_10 
REMARK    6  A    between atoms: C5_11  and  O4_12 
REMARK    7  A    between atoms: C6_18  and  C7_19 
REMARK    8  A    between atoms: C7_19  and  O5_20 
REMARK    9  A    between atoms: C7_19  and  C8_22 
REMARK   10  A    between atoms: C8_22  and  C9_23 
REMARK   11  A    between atoms: C14_31  and  N6_32 
REMARK   12  A    between atoms: C15_37  and  N8_38 
ROOT
HETATM    1  C4  UNL     1     -10.807  60.052  11.681  1.00  0.00     0.256 C 
HETATM    2  O3  UNL     1     -10.439  60.232  10.494  1.00  0.00    -0.270 OA
HETATM    3  N1  UNL     1     -12.140  60.147  12.066  1.00  0.00    -0.256 N 
ATOM      4  H1  UNL     1     -12.265  59.969  13.062  1.00  0.00     0.191 HD
ENDROOT
BRANCH   1   5
HETATM    5  C3  UNL     1      -9.715  59.716  12.703  1.00  0.00     0.230 C 
BRANCH   5   6
HETATM    6  C2  UNL     1     -10.304  59.561  14.055  1.00  0.00     0.277 C 
HETATM    7  O2  UNL     1     -10.468  60.545  14.861  1.00  0.00    -0.264 OA
BRANCH   6   8
HETATM    8  O1  UNL     1     -10.735  58.350  14.588  1.00  0.00    -0.326 OA
HETATM    9  C1  UNL     1     -10.524  57.121  13.968  1.00  0.00     0.213 C 
ENDBRANCH   6   8
ENDBRANCH   5   6
BRANCH   5  10
HETATM   10  C13 UNL     1      -8.579  60.614  12.652  1.00  0.00     0.059 A 
HETATM   11  N5  UNL     1      -8.651  61.940  12.518  1.00  0.00    -0.194 N 
HETATM   12  C14 UNL     1      -7.561  62.762  12.487  1.00  0.00     0.677 A 
ATOM     13  H5  UNL     1      -9.575  62.365  12.435  1.00  0.00     0.184 HD
HETATM   14  N7  UNL     1      -6.354  62.210  12.596  1.00  0.00    -0.177 N 
HETATM   15  C15 UNL     1      -6.197  60.885  12.735  1.00  0.00     0.122 A 
ATOM     16  H7  UNL     1      -5.529  62.809  12.573  1.00  0.00     0.185 HD
HETATM   17  C16 UNL     1      -7.305  60.057  12.766  1.00  0.00     0.007 A 
HETATM   18  C17 UNL     1      -7.149  58.629  12.919  1.00  0.00     0.054 C 
BRANCH  12  19
HETATM   19  N6  UNL     1      -7.714  64.034  12.353  1.00  0.00    -0.234 N 
ATOM     20  H62 UNL     1      -8.293  64.575  12.997  1.00  0.00     0.174 HD
ATOM     21  H61 UNL     1      -7.251  64.528  11.591  1.00  0.00     0.174 HD
ENDBRANCH  12  19
BRANCH  15  22
HETATM   22  N8  UNL     1      -5.012  60.377  12.839  1.00  0.00    -0.385 N 
ATOM     23  H82 UNL     1      -4.381  60.394  12.037  1.00  0.00     0.157 HD
ATOM     24  H81 UNL     1      -4.706  59.962  13.718  1.00  0.00     0.157 HD
ENDBRANCH  15  22
ENDBRANCH   5  10
ENDBRANCH   1   5
BRANCH   3  25
HETATM   25  N2  UNL     1     -13.319  60.419  11.444  1.00  0.00    -0.176 N 
HETATM   26  C5  UNL     1     -13.638  61.741  11.229  1.00  0.00     0.261 A 
HETATM   27  N3  UNL     1     -14.780  62.107  10.623  1.00  0.00    -0.263 N 
HETATM   28  N4  UNL     1     -15.636  61.221  10.212  1.00  0.00    -0.290 N 
ATOM     29  H3  UNL     1     -14.978  63.098  10.483  1.00  0.00     0.190 HD
HETATM   30  C6  UNL     1     -15.446  59.917  10.359  1.00  0.00     0.151 A 
ATOM     31  H4  UNL     1     -16.491  61.542   9.756  1.00  0.00     0.187 HD
HETATM   32  C12 UNL     1     -14.231  59.548  11.003  1.00  0.00     0.300 A 
HETATM   33  O6  UNL     1     -14.062  58.313  11.136  1.00  0.00    -0.263 OA
BRANCH  26  34
HETATM   34  O4  UNL     1     -12.798  62.738  11.628  1.00  0.00    -0.330 OA
ATOM     35  H4  UNL     1     -12.271  62.647  12.413  1.00  0.00     0.221 HD
ENDBRANCH  26  34
BRANCH  30  36
HETATM   36  C7  UNL     1     -16.330  58.883   9.938  1.00  0.00     0.099 C 
BRANCH  36  37
HETATM   37  O5  UNL     1     -17.056  58.374  10.933  1.00  0.00    -0.358 OA
ATOM     38  H5  UNL     1     -17.651  57.689  10.651  1.00  0.00     0.217 HD
ENDBRANCH  36  37
BRANCH  36  39
HETATM   39  C8  UNL     1     -16.588  58.292   8.676  1.00  0.00     0.041 C 
BRANCH  39  40
HETATM   40  C9  UNL     1     -17.091  58.633   7.563  1.00  0.00    -0.085 C 
HETATM   41  C10 UNL     1     -16.901  57.558   6.438  1.00  0.00     0.043 C 
HETATM   42  C11 UNL     1     -17.812  59.834   7.102  1.00  0.00     0.043 C 
ENDBRANCH  39  40
ENDBRANCH  36  39
ENDBRANCH  30  36
ENDBRANCH   3  25
TORSDOF 12
ENDMDL
MODEL 4
REMARK VINA RESULT: -8.770562444      1.294      1.827
REMARK  12 active torsions:
REMARK  status: ('A' for Active; 'I' for Inactive)
REMARK    1  A    between atoms: O1_2  and  C2_3 
REMARK    2  A    between atoms: C2_3  and  C3_5 
REMARK    3  A    between atoms: C3_5  and  C4_6 
REMARK    4  A    between atoms: C3_5  and  C13_28 
REMARK       I    between atoms: C4_6  and  N1_8 
REMARK    5  A    between atoms: N1_8  and  N2_10 
REMARK    6  A    between atoms: C5_11  and  O4_12 
REMARK    7  A    between atoms: C6_18  and  C7_19 
REMARK    8  A    between atoms: C7_19  and  O5_20 
REMARK    9  A    between atoms: C7_19  and  C8_22 
REMARK   10  A    between atoms: C8_22  and  C9_23 
REMARK   11  A    between atoms: C14_31  and  N6_32 
REMARK   12  A    between atoms: C15_37  and  N8_38 
ROOT
HETATM    1  C4  UNL     1     -12.758  58.114  12.130  1.00  0.00     0.256 C 
HETATM    2  O3  UNL     1     -12.150  57.035  11.930  1.00  0.00    -0.270 OA
HETATM    3  N1  UNL     1     -14.017  58.366  11.596  1.00  0.00    -0.256 N 
ATOM      4  H1  UNL     1     -14.369  59.287  11.859  1.00  0.00     0.191 HD
ENDROOT
BRANCH   1   5
HETATM    5  C3  UNL     1     -12.050  59.159  13.002  1.00  0.00     0.230 C 
BRANCH   5   6
HETATM    6  C2  UNL     1     -12.871  59.476  14.195  1.00  0.00     0.277 C 
HETATM    7  O2  UNL     1     -14.056  59.962  14.116  1.00  0.00    -0.264 OA
BRANCH   6   8
HETATM    8  O1  UNL     1     -12.453  59.287  15.508  1.00  0.00    -0.326 OA
HETATM    9  C1  UNL     1     -11.388  59.979  16.080  1.00  0.00     0.213 C 
ENDBRANCH   6   8
ENDBRANCH   5   6
BRANCH   5  10
HETATM   10  C13 UNL     1     -11.604  60.322  12.263  1.00  0.00     0.059 A 
HETATM   11  N5  UNL     1     -12.400  61.167  11.603  1.00  0.00    -0.194 N 
HETATM   12  C14 UNL     1     -11.951  62.264  10.926  1.00  0.00     0.677 A 
ATOM     13  H5  UNL     1     -13.403  60.982  11.605  1.00  0.00     0.184 HD
HETATM   14  N7  UNL     1     -10.641  62.507  10.922  1.00  0.00    -0.177 N 
HETATM   15  C15 UNL     1      -9.775  61.708  11.563  1.00  0.00     0.122 A 
ATOM     16  H7  UNL     1     -10.287  63.322  10.420  1.00  0.00     0.185 HD
HETATM   17  C16 UNL     1     -10.236  60.597  12.247  1.00  0.00     0.007 A 
HETATM   18  C17 UNL     1      -9.315  59.730  12.944  1.00  0.00     0.054 C 
BRANCH  12  19
HETATM   19  N6  UNL     1     -12.783  63.031  10.312  1.00  0.00    -0.234 N 
ATOM     20  H62 UNL     1     -13.696  63.257  10.708  1.00  0.00     0.174 HD
ATOM     21  H61 UNL     1     -12.539  63.432   9.407  1.00  0.00     0.174 HD
ENDBRANCH  12  19
BRANCH  15  22
HETATM   22  N8  UNL     1      -8.509  61.970  11.542  1.00  0.00    -0.385 N 
ATOM     23  H82 UNL     1      -8.066  62.264  10.671  1.00  0.00     0.157 HD
ATOM     24  H81 UNL     1      -7.953  61.885  12.392  1.00  0.00     0.157 HD
ENDBRANCH  15  22
ENDBRANCH   5  10
ENDBRANCH   1   5
BRANCH   3  25
HETATM   25  N2  UNL     1     -14.897  57.690  10.810  1.00  0.00    -0.176 N 
HETATM   26  C5  UNL     1     -15.464  56.545  11.324  1.00  0.00     0.261 A 
HETATM   27  N3  UNL     1     -16.344  55.811  10.621  1.00  0.00    -0.263 N 
HETATM   28  N4  UNL     1     -16.696  56.154   9.419  1.00  0.00    -0.290 N 
ATOM     29  H3  UNL     1     -16.741  54.969  11.039  1.00  0.00     0.190 HD
HETATM   30  C6  UNL     1     -16.222  57.233   8.812  1.00  0.00     0.151 A 
ATOM     31  H4  UNL     1     -17.367  55.568   8.921  1.00  0.00     0.187 HD
HETATM   32  C12 UNL     1     -15.293  57.999   9.571  1.00  0.00     0.300 A 
HETATM   33  O6  UNL     1     -14.852  59.018   8.988  1.00  0.00    -0.263 OA
BRANCH  26  34
HETATM   34  O4  UNL     1     -15.151  56.110  12.576  1.00  0.00    -0.330 OA
ATOM     35  H4  UNL     1     -15.434  55.256  12.881  1.00  0.00     0.221 HD
ENDBRANCH  26  34
BRANCH  30  36
HETATM   36  C7  UNL     1     -16.557  57.680   7.502  1.00  0.00     0.099 C 
BRANCH  36  37
HETATM   37  O5  UNL     1     -15.731  57.219   6.563  1.00  0.00    -0.358 OA
ATOM     38  H5  UNL     1     -16.111  57.228   5.692  1.00  0.00     0.217 HD
ENDBRANCH  36  37
BRANCH  36  39
HETATM   39  C8  UNL     1     -17.589  58.513   7.004  1.00  0.00     0.041 C 
BRANCH  39  40
HETATM   40  C9  UNL     1     -17.893  59.084   5.913  1.00  0.00    -0.085 C 
HETATM   41  C10 UNL     1     -18.430  60.545   6.101  1.00  0.00     0.043 C 
HETATM   42  C11 UNL     1     -17.854  58.657   4.502  1.00  0.00     0.043 C 
ENDBRANCH  39  40
ENDBRANCH  36  39
ENDBRANCH  30  36
ENDBRANCH   3  25
TORSDOF 12
ENDMDL
MODEL 5
REMARK VINA RESULT: -8.663390656      1.646      2.630
REMARK  12 active torsions:
REMARK  status: ('A' for Active; 'I' for Inactive)
REMARK    1  A    between atoms: O1_2  and  C2_3 
REMARK    2  A    between atoms: C2_3  and  C3_5 
REMARK    3  A    between atoms: C3_5  and  C4_6 
REMARK    4  A    between atoms: C3_5  and  C13_28 
REMARK       I    between atoms: C4_6  and  N1_8 
REMARK    5  A    between atoms: N1_8  and  N2_10 
REMARK    6  A    between atoms: C5_11  and  O4_12 
REMARK    7  A    between atoms: C6_18  and  C7_19 
REMARK    8  A    between atoms: C7_19  and  O5_20 
REMARK    9  A    between atoms: C7_19  and  C8_22 
REMARK   10  A    between atoms: C8_22  and  C9_23 
REMARK   11  A    between atoms: C14_31  and  N6_32 
REMARK   12  A    between atoms: C15_37  and  N8_38 
ROOT
HETATM    1  C4  UNL     1     -13.580  59.184  12.150  1.00  0.00     0.256 C 
HETATM    2  O3  UNL     1     -14.532  59.991  12.285  1.00  0.00    -0.270 OA
HETATM    3  N1  UNL     1     -13.694  58.026  11.387  1.00  0.00    -0.256 N 
ATOM      4  H1  UNL     1     -12.829  57.485  11.380  1.00  0.00     0.191 HD
ENDROOT
BRANCH   1   5
HETATM    5  C3  UNL     1     -12.269  59.529  12.866  1.00  0.00     0.230 C 
BRANCH   5   6
HETATM    6  C2  UNL     1     -12.266  58.963  14.236  1.00  0.00     0.277 C 
HETATM    7  O2  UNL     1     -12.811  59.555  15.236  1.00  0.00    -0.264 OA
BRANCH   6   8
HETATM    8  O1  UNL     1     -11.681  57.749  14.582  1.00  0.00    -0.326 OA
HETATM    9  C1  UNL     1     -10.573  57.218  13.926  1.00  0.00     0.213 C 
ENDBRANCH   6   8
ENDBRANCH   5   6
BRANCH   5  10
HETATM   10  C13 UNL     1     -11.930  60.936  12.806  1.00  0.00     0.059 A 
HETATM   11  N5  UNL     1     -12.537  61.904  13.495  1.00  0.00    -0.194 N 
HETATM   12  C14 UNL     1     -12.186  63.222  13.427  1.00  0.00     0.677 A 
ATOM     13  H5  UNL     1     -13.310  61.645  14.109  1.00  0.00     0.184 HD
HETATM   14  N7  UNL     1     -11.178  63.563  12.626  1.00  0.00    -0.177 N 
HETATM   15  C15 UNL     1     -10.515  62.649  11.901  1.00  0.00     0.122 A 
ATOM     16  H7  UNL     1     -10.902  64.543  12.562  1.00  0.00     0.185 HD
HETATM   17  C16 UNL     1     -10.876  61.315  11.974  1.00  0.00     0.007 A 
HETATM   18  C17 UNL     1     -10.168  60.321  11.202  1.00  0.00     0.054 C 
BRANCH  12  19
HETATM   19  N6  UNL     1     -12.823  64.098  14.124  1.00  0.00    -0.234 N 
ATOM     20  H62 UNL     1     -12.342  64.877  14.576  1.00  0.00     0.174 HD
ATOM     21  H61 UNL     1     -13.833  64.027  14.235  1.00  0.00     0.174 HD
ENDBRANCH  12  19
BRANCH  15  22
HETATM   22  N8  UNL     1      -9.540  63.010  11.133  1.00  0.00    -0.385 N 
ATOM     23  H82 UNL     1      -9.738  63.413  10.216  1.00  0.00     0.157 HD
ATOM     24  H81 UNL     1      -8.574  62.895  11.439  1.00  0.00     0.157 HD
ENDBRANCH  15  22
ENDBRANCH   5  10
ENDBRANCH   1   5
BRANCH   3  25
HETATM   25  N2  UNL     1     -14.671  57.435  10.649  1.00  0.00    -0.176 N 
HETATM   26  C5  UNL     1     -15.307  56.340  11.190  1.00  0.00     0.261 A 
HETATM   27  N3  UNL     1     -16.284  55.691  10.535  1.00  0.00    -0.263 N 
HETATM   28  N4  UNL     1     -16.672  56.074   9.356  1.00  0.00    -0.290 N 
ATOM     29  H3  UNL     1     -16.729  54.883  10.971  1.00  0.00     0.190 HD
HETATM   30  C6  UNL     1     -16.140  57.113   8.727  1.00  0.00     0.151 A 
ATOM     31  H4  UNL     1     -17.418  55.553   8.893  1.00  0.00     0.187 HD
HETATM   32  C12 UNL     1     -15.107  57.788   9.436  1.00  0.00     0.300 A 
HETATM   33  O6  UNL     1     -14.612  58.770   8.833  1.00  0.00    -0.263 OA
BRANCH  26  34
HETATM   34  O4  UNL     1     -14.964  55.869  12.421  1.00  0.00    -0.330 OA
ATOM     35  H4  UNL     1     -15.532  56.003  13.170  1.00  0.00     0.221 HD
ENDBRANCH  26  34
BRANCH  30  36
HETATM   36  C7  UNL     1     -16.507  57.598   7.440  1.00  0.00     0.099 C 
BRANCH  36  37
HETATM   37  O5  UNL     1     -15.720  57.145   6.464  1.00  0.00    -0.358 OA
ATOM     38  H5  UNL     1     -15.671  57.733   5.719  1.00  0.00     0.217 HD
ENDBRANCH  36  37
BRANCH  36  39
HETATM   39  C8  UNL     1     -17.537  58.463   6.995  1.00  0.00     0.041 C 
BRANCH  39  40
HETATM   40  C9  UNL     1     -17.882  59.041   5.920  1.00  0.00    -0.085 C 
HETATM   41  C10 UNL     1     -18.441  60.489   6.142  1.00  0.00     0.043 C 
HETATM   42  C11 UNL     1     -17.873  58.634   4.503  1.00  0.00     0.043 C 
ENDBRANCH  39  40
ENDBRANCH  36  39
ENDBRANCH  30  36
ENDBRANCH   3  25
TORSDOF 12
ENDMDL
