MODEL 1
REMARK VINA RESULT: -8.055332136      0.000      0.000
REMARK  7 active torsions:
REMARK  status: ('A' for Active; 'I' for Inactive)
REMARK    1  A    between atoms: N1_1  and  C1_4 
REMARK    2  A    between atoms: C2_9  and  C3_10 
REMARK    3  A    between atoms: C3_10  and  N4_11 
REMARK    4  A    between atoms: N4_11  and  C4_12 
REMARK    5  A    between atoms: N4_11  and  C6_24 
REMARK       I    between atoms: N5_13  and  C5_15 
REMARK       I    between atoms: C5_15  and  N6_16 
REMARK       I    between atoms: C5_15  and  N7_20 
REMARK    6  A    between atoms: N7_20  and  N8_21 
REMARK    7  A    between atoms: C6_24  and  C7_25 
ROOT
HETATM    1  N4  UNL     1      -2.267  -1.236  19.052  1.00  0.00    -0.361 N 
ENDROOT
BRANCH   1   2
HETATM    2  C3  UNL     1      -3.605  -1.738  19.168  1.00  0.00     0.210 C 
BRANCH   2   3
HETATM    3  C2  UNL     1      -3.695  -3.011  19.944  1.00  0.00     0.160 A 
HETATM    4  N3  UNL     1      -3.579  -4.284  19.527  1.00  0.00    -0.279 N 
HETATM    5  N2  UNL     1      -3.741  -5.028  20.606  1.00  0.00    -0.263 N 
ATOM      6  H3  UNL     1      -3.404  -4.608  18.575  1.00  0.00     0.189 HD
HETATM    7  C1  UNL     1      -3.952  -4.246  21.676  1.00  0.00     0.238 A 
ATOM      8  H2  UNL     1      -3.709  -6.048  20.624  1.00  0.00     0.190 HD
HETATM    9  O2  UNL     1      -3.918  -3.013  21.236  1.00  0.00    -0.262 OA
BRANCH   7  10
HETATM   10  N1  UNL     1      -4.152  -4.639  22.911  1.00  0.00    -0.364 N 
ATOM     11  H12 UNL     1      -3.820  -5.501  23.343  1.00  0.00     0.159 HD
ATOM     12  H11 UNL     1      -4.674  -4.143  23.634  1.00  0.00     0.159 HD
ENDBRANCH   7  10
ENDBRANCH   2   3
ENDBRANCH   1   2
BRANCH   1  13
HETATM   13  C4  UNL     1      -1.247  -2.067  18.561  1.00  0.00     0.177 C 
HETATM   14  N5  UNL     1      -0.015  -1.710  18.515  1.00  0.00    -0.345 N 
HETATM   15  C5  UNL     1       1.039  -2.562  18.011  1.00  0.00     0.396 C 
ATOM     16  H5  UNL     1       0.233  -0.780  18.850  1.00  0.00     0.163 HD
HETATM   17  N6  UNL     1       0.872  -2.930  16.640  1.00  0.00    -0.042 N 
HETATM   18  N7  UNL     1       2.305  -1.920  18.285  1.00  0.00    -0.093 NA
ATOM     19  H63 UNL     1      -0.041  -3.359  16.490  1.00  0.00     0.278 HD
ATOM     20  H62 UNL     1       0.767  -2.101  16.055  1.00  0.00     0.278 HD
ATOM     21  H61 UNL     1       1.615  -3.531  16.285  1.00  0.00     0.278 HD
BRANCH  18  22
HETATM   22  N8  UNL     1       2.435  -0.675  17.693  1.00  0.00    -0.345 N 
ATOM     23  H82 UNL     1       1.635  -0.160  17.324  1.00  0.00     0.172 HD
ATOM     24  H81 UNL     1       3.396  -0.334  17.664  1.00  0.00     0.172 HD
ENDBRANCH  18  22
ENDBRANCH   1  13
BRANCH   1  25
HETATM   25  C6  UNL     1      -1.954   0.118  19.414  1.00  0.00     0.223 C 
BRANCH  25  26
HETATM   26  C7  UNL     1      -2.585   0.599  20.649  1.00  0.00     0.248 C 
HETATM   27  N9  UNL     1      -1.862   0.503  21.864  1.00  0.00    -0.061 NA
HETATM   28  O1  UNL     1      -3.736   1.087  20.647  1.00  0.00    -0.275 OA
ENDBRANCH  25  26
ENDBRANCH   1  25
TORSDOF 7
ENDMDL
MODEL 2
REMARK VINA RESULT: -7.995697669      1.122      1.321
REMARK  7 active torsions:
REMARK  status: ('A' for Active; 'I' for Inactive)
REMARK    1  A    between atoms: N1_1  and  C1_4 
REMARK    2  A    between atoms: C2_9  and  C3_10 
REMARK    3  A    between atoms: C3_10  and  N4_11 
REMARK    4  A    between atoms: N4_11  and  C4_12 
REMARK    5  A    between atoms: N4_11  and  C6_24 
REMARK       I    between atoms: N5_13  and  C5_15 
REMARK       I    between atoms: C5_15  and  N6_16 
REMARK       I    between atoms: C5_15  and  N7_20 
REMARK    6  A    between atoms: N7_20  and  N8_21 
REMARK    7  A    between atoms: C6_24  and  C7_25 
ROOT
HETATM    1  N4  UNL     1      -2.961  -1.580  19.218  1.00  0.00    -0.361 N 
ENDROOT
BRANCH   1   2
HETATM    2  C3  UNL     1      -4.213  -2.095  19.690  1.00  0.00     0.210 C 
BRANCH   2   3
HETATM    3  C2  UNL     1      -4.081  -3.372  20.451  1.00  0.00     0.160 A 
HETATM    4  N3  UNL     1      -3.651  -3.586  21.707  1.00  0.00    -0.279 N 
HETATM    5  N2  UNL     1      -3.730  -4.892  21.893  1.00  0.00    -0.263 N 
ATOM      6  H3  UNL     1      -3.330  -2.887  22.377  1.00  0.00     0.189 HD
HETATM    7  C1  UNL     1      -4.197  -5.486  20.784  1.00  0.00     0.238 A 
ATOM      8  H2  UNL     1      -3.473  -5.378  22.753  1.00  0.00     0.190 HD
HETATM    9  O2  UNL     1      -4.403  -4.526  19.917  1.00  0.00    -0.262 OA
BRANCH   7  10
HETATM   10  N1  UNL     1      -4.405  -6.769  20.606  1.00  0.00    -0.364 N 
ATOM     11  H12 UNL     1      -4.264  -7.514  21.288  1.00  0.00     0.159 HD
ATOM     12  H11 UNL     1      -4.739  -7.223  19.756  1.00  0.00     0.159 HD
ENDBRANCH   7  10
ENDBRANCH   2   3
ENDBRANCH   1   2
BRANCH   1  13
HETATM   13  C4  UNL     1      -1.982  -2.460  18.731  1.00  0.00     0.177 C 
HETATM   14  N5  UNL     1      -0.747  -2.132  18.602  1.00  0.00    -0.345 N 
HETATM   15  C5  UNL     1       0.265  -3.035  18.101  1.00  0.00     0.396 C 
ATOM     16  H5  UNL     1      -0.467  -1.188  18.865  1.00  0.00     0.163 HD
HETATM   17  N6  UNL     1       0.023  -3.483  16.766  1.00  0.00    -0.042 N 
HETATM   18  N7  UNL     1       1.554  -2.402  18.272  1.00  0.00    -0.093 NA
ATOM     19  H63 UNL     1      -0.904  -3.902  16.688  1.00  0.00     0.278 HD
ATOM     20  H62 UNL     1      -0.097  -2.690  16.135  1.00  0.00     0.278 HD
ATOM     21  H61 UNL     1       0.737  -4.120  16.413  1.00  0.00     0.278 HD
BRANCH  18  22
HETATM   22  N8  UNL     1       1.675  -1.199  17.596  1.00  0.00    -0.345 N 
ATOM     23  H82 UNL     1       1.928  -1.151  16.609  1.00  0.00     0.172 HD
ATOM     24  H81 UNL     1       1.488  -0.383  18.178  1.00  0.00     0.172 HD
ENDBRANCH  18  22
ENDBRANCH   1  13
BRANCH   1  25
HETATM   25  C6  UNL     1      -2.697  -0.169  19.219  1.00  0.00     0.223 C 
BRANCH  25  26
HETATM   26  C7  UNL     1      -2.850   0.498  20.518  1.00  0.00     0.248 C 
HETATM   27  N9  UNL     1      -1.807   0.381  21.470  1.00  0.00    -0.061 NA
HETATM   28  O1  UNL     1      -3.874   1.160  20.795  1.00  0.00    -0.275 OA
ENDBRANCH  25  26
ENDBRANCH   1  25
TORSDOF 7
ENDMDL
MODEL 3
REMARK VINA RESULT: -7.897892508      1.053      1.094
REMARK  7 active torsions:
REMARK  status: ('A' for Active; 'I' for Inactive)
REMARK    1  A    between atoms: N1_1  and  C1_4 
REMARK    2  A    between atoms: C2_9  and  C3_10 
REMARK    3  A    between atoms: C3_10  and  N4_11 
REMARK    4  A    between atoms: N4_11  and  C4_12 
REMARK    5  A    between atoms: N4_11  and  C6_24 
REMARK       I    between atoms: N5_13  and  C5_15 
REMARK       I    between atoms: C5_15  and  N6_16 
REMARK       I    between atoms: C5_15  and  N7_20 
REMARK    6  A    between atoms: N7_20  and  N8_21 
REMARK    7  A    between atoms: C6_24  and  C7_25 
ROOT
HETATM    1  N4  UNL     1      -2.633  -1.766  19.297  1.00  0.00    -0.361 N 
ENDROOT
BRANCH   1   2
HETATM    2  C3  UNL     1      -3.939  -2.342  19.431  1.00  0.00     0.210 C 
BRANCH   2   3
HETATM    3  C2  UNL     1      -3.981  -3.511  20.359  1.00  0.00     0.160 A 
HETATM    4  N3  UNL     1      -3.535  -4.767  20.183  1.00  0.00    -0.279 N 
HETATM    5  N2  UNL     1      -3.815  -5.405  21.305  1.00  0.00    -0.263 N 
ATOM      6  H3  UNL     1      -3.077  -5.149  19.355  1.00  0.00     0.189 HD
HETATM    7  C1  UNL     1      -4.421  -4.573  22.167  1.00  0.00     0.238 A 
ATOM      8  H2  UNL     1      -3.602  -6.385  21.490  1.00  0.00     0.190 HD
HETATM    9  O2  UNL     1      -4.508  -3.418  21.556  1.00  0.00    -0.262 OA
BRANCH   7  10
HETATM   10  N1  UNL     1      -4.841  -4.862  23.376  1.00  0.00    -0.364 N 
ATOM     11  H12 UNL     1      -4.572  -5.665  23.944  1.00  0.00     0.159 HD
ATOM     12  H11 UNL     1      -5.503  -4.326  23.938  1.00  0.00     0.159 HD
ENDBRANCH   7  10
ENDBRANCH   2   3
ENDBRANCH   1   2
BRANCH   1  13
HETATM   13  C4  UNL     1      -1.786  -2.188  18.260  1.00  0.00     0.177 C 
HETATM   14  N5  UNL     1      -0.505  -2.184  18.357  1.00  0.00    -0.345 N 
HETATM   15  C5  UNL     1       0.372  -2.618  17.293  1.00  0.00     0.396 C 
ATOM     16  H5  UNL     1      -0.087  -1.859  19.228  1.00  0.00     0.163 HD
HETATM   17  N6  UNL     1       0.246  -1.844  16.097  1.00  0.00    -0.042 N 
HETATM   18  N7  UNL     1       1.720  -2.661  17.812  1.00  0.00    -0.093 NA
ATOM     19  H63 UNL     1      -0.723  -1.825  15.780  1.00  0.00     0.278 HD
ATOM     20  H62 UNL     1       0.381  -0.852  16.294  1.00  0.00     0.278 HD
ATOM     21  H61 UNL     1       0.865  -2.150  15.346  1.00  0.00     0.278 HD
BRANCH  18  22
HETATM   22  N8  UNL     1       2.175  -1.438  18.277  1.00  0.00    -0.345 N 
ATOM     23  H82 UNL     1       2.356  -1.263  19.266  1.00  0.00     0.172 HD
ATOM     24  H81 UNL     1       2.309  -0.745  17.541  1.00  0.00     0.172 HD
ENDBRANCH  18  22
ENDBRANCH   1  13
BRANCH   1  25
HETATM   25  C6  UNL     1      -2.181  -0.746  20.201  1.00  0.00     0.223 C 
BRANCH  25  26
HETATM   26  C7  UNL     1      -2.678   0.606  19.921  1.00  0.00     0.248 C 
HETATM   27  N9  UNL     1      -1.962   1.419  19.009  1.00  0.00    -0.061 NA
HETATM   28  O1  UNL     1      -3.711   1.048  20.469  1.00  0.00    -0.275 OA
ENDBRANCH  25  26
ENDBRANCH   1  25
TORSDOF 7
ENDMDL
MODEL 4
REMARK VINA RESULT: -7.474954340      2.006      5.518
REMARK  7 active torsions:
REMARK  status: ('A' for Active; 'I' for Inactive)
REMARK    1  A    between atoms: N1_1  and  C1_4 
REMARK    2  A    between atoms: C2_9  and  C3_10 
REMARK    3  A    between atoms: C3_10  and  N4_11 
REMARK    4  A    between atoms: N4_11  and  C4_12 
REMARK    5  A    between atoms: N4_11  and  C6_24 
REMARK       I    between atoms: N5_13  and  C5_15 
REMARK       I    between atoms: C5_15  and  N6_16 
REMARK       I    between atoms: C5_15  and  N7_20 
REMARK    6  A    between atoms: N7_20  and  N8_21 
REMARK    7  A    between atoms: C6_24  and  C7_25 
ROOT
HETATM    1  N4  UNL     1      -3.314  -2.411  19.483  1.00  0.00    -0.361 N 
ENDROOT
BRANCH   1   2
HETATM    2  C3  UNL     1      -2.607  -2.109  18.272  1.00  0.00     0.210 C 
BRANCH   2   3
HETATM    3  C2  UNL     1      -1.373  -2.927  18.085  1.00  0.00     0.160 A 
HETATM    4  N3  UNL     1      -1.126  -4.205  18.425  1.00  0.00    -0.279 N 
HETATM    5  N2  UNL     1       0.115  -4.443  18.039  1.00  0.00    -0.263 N 
ATOM      6  H3  UNL     1      -1.764  -4.855  18.884  1.00  0.00     0.189 HD
HETATM    7  C1  UNL     1       0.637  -3.345  17.471  1.00  0.00     0.238 A 
ATOM      8  H2  UNL     1       0.603  -5.330  18.155  1.00  0.00     0.190 HD
HETATM    9  O2  UNL     1      -0.301  -2.431  17.515  1.00  0.00    -0.262 OA
BRANCH   7  10
HETATM   10  N1  UNL     1       1.844  -3.214  16.974  1.00  0.00    -0.364 N 
ATOM     11  H12 UNL     1       2.347  -3.890  16.399  1.00  0.00     0.159 HD
ATOM     12  H11 UNL     1       2.469  -2.415  17.084  1.00  0.00     0.159 HD
ENDBRANCH   7  10
ENDBRANCH   2   3
ENDBRANCH   1   2
BRANCH   1  13
HETATM   13  C4  UNL     1      -3.852  -3.693  19.677  1.00  0.00     0.177 C 
HETATM   14  N5  UNL     1      -4.438  -4.049  20.762  1.00  0.00    -0.345 N 
HETATM   15  C5  UNL     1      -4.995  -5.367  20.968  1.00  0.00     0.396 C 
ATOM     16  H5  UNL     1      -4.515  -3.368  21.517  1.00  0.00     0.163 HD
HETATM   17  N6  UNL     1      -4.025  -6.415  20.896  1.00  0.00    -0.042 N 
HETATM   18  N7  UNL     1      -5.737  -5.353  22.208  1.00  0.00    -0.093 NA
ATOM     19  H63 UNL     1      -3.514  -6.373  20.014  1.00  0.00     0.278 HD
ATOM     20  H62 UNL     1      -3.259  -6.243  21.545  1.00  0.00     0.278 HD
ATOM     21  H61 UNL     1      -4.418  -7.345  21.040  1.00  0.00     0.278 HD
BRANCH  18  22
HETATM   22  N8  UNL     1      -4.965  -5.033  23.313  1.00  0.00    -0.345 N 
ATOM     23  H82 UNL     1      -3.964  -4.850  23.244  1.00  0.00     0.172 HD
ATOM     24  H81 UNL     1      -5.493  -5.000  24.185  1.00  0.00     0.172 HD
ENDBRANCH  18  22
ENDBRANCH   1  13
BRANCH   1  25
HETATM   25  C6  UNL     1      -3.464  -1.423  20.514  1.00  0.00     0.223 C 
BRANCH  25  26
HETATM   26  C7  UNL     1      -2.790  -0.144  20.262  1.00  0.00     0.248 C 
HETATM   27  N9  UNL     1      -3.452   0.830  19.474  1.00  0.00    -0.061 NA
HETATM   28  O1  UNL     1      -1.655   0.098  20.726  1.00  0.00    -0.275 OA
ENDBRANCH  25  26
ENDBRANCH   1  25
TORSDOF 7
ENDMDL
MODEL 5
REMARK VINA RESULT: -7.396540966      1.742      2.241
REMARK  7 active torsions:
REMARK  status: ('A' for Active; 'I' for Inactive)
REMARK    1  A    between atoms: N1_1  and  C1_4 
REMARK    2  A    between atoms: C2_9  and  C3_10 
REMARK    3  A    between atoms: C3_10  and  N4_11 
REMARK    4  A    between atoms: N4_11  and  C4_12 
REMARK    5  A    between atoms: N4_11  and  C6_24 
REMARK       I    between atoms: N5_13  and  C5_15 
REMARK       I    between atoms: C5_15  and  N6_16 
REMARK       I    between atoms: C5_15  and  N7_20 
REMARK    6  A    between atoms: N7_20  and  N8_21 
REMARK    7  A    between atoms: C6_24  and  C7_25 
ROOT
HETATM    1  N4  UNL     1      -2.944  -3.410  19.162  1.00  0.00    -0.361 N 
ENDROOT
BRANCH   1   2
HETATM    2  C3  UNL     1      -3.999  -4.381  19.153  1.00  0.00     0.210 C 
BRANCH   2   3
HETATM    3  C2  UNL     1      -4.361  -4.876  20.514  1.00  0.00     0.160 A 
HETATM    4  N3  UNL     1      -3.734  -4.699  21.690  1.00  0.00    -0.279 N 
HETATM    5  N2  UNL     1      -4.466  -5.342  22.584  1.00  0.00    -0.263 N 
ATOM      6  H3  UNL     1      -2.874  -4.178  21.859  1.00  0.00     0.189 HD
HETATM    7  C1  UNL     1      -5.526  -5.909  21.987  1.00  0.00     0.238 A 
ATOM      8  H2  UNL     1      -4.256  -5.398  23.580  1.00  0.00     0.190 HD
HETATM    9  O2  UNL     1      -5.433  -5.605  20.716  1.00  0.00    -0.262 OA
BRANCH   7  10
HETATM   10  N1  UNL     1      -6.463  -6.623  22.562  1.00  0.00    -0.364 N 
ATOM     11  H12 UNL     1      -6.593  -7.633  22.497  1.00  0.00     0.159 HD
ATOM     12  H11 UNL     1      -7.211  -6.280  23.165  1.00  0.00     0.159 HD
ENDBRANCH   7  10
ENDBRANCH   2   3
ENDBRANCH   1   2
BRANCH   1  13
HETATM   13  C4  UNL     1      -1.729  -3.690  18.516  1.00  0.00     0.177 C 
HETATM   14  N5  UNL     1      -0.717  -2.903  18.558  1.00  0.00    -0.345 N 
HETATM   15  C5  UNL     1       0.537  -3.187  17.896  1.00  0.00     0.396 C 
ATOM     16  H5  UNL     1      -0.801  -2.033  19.084  1.00  0.00     0.163 HD
HETATM   17  N6  UNL     1       0.420  -3.308  16.477  1.00  0.00    -0.042 N 
HETATM   18  N7  UNL     1       1.500  -2.192  18.312  1.00  0.00    -0.093 NA
ATOM     19  H63 UNL     1      -0.284  -4.005  16.231  1.00  0.00     0.278 HD
ATOM     20  H62 UNL     1      -0.018  -2.478  16.078  1.00  0.00     0.278 HD
ATOM     21  H61 UNL     1       1.304  -3.509  16.010  1.00  0.00     0.278 HD
BRANCH  18  22
HETATM   22  N8  UNL     1       1.128  -0.895  17.996  1.00  0.00    -0.345 N 
ATOM     23  H82 UNL     1       1.056  -0.161  18.702  1.00  0.00     0.172 HD
ATOM     24  H81 UNL     1       0.939  -0.753  17.004  1.00  0.00     0.172 HD
ENDBRANCH  18  22
ENDBRANCH   1  13
BRANCH   1  25
HETATM   25  C6  UNL     1      -3.118  -2.140  19.808  1.00  0.00     0.223 C 
BRANCH  25  26
HETATM   26  C7  UNL     1      -3.232  -0.986  18.907  1.00  0.00     0.248 C 
HETATM   27  N9  UNL     1      -2.112  -0.133  18.749  1.00  0.00    -0.061 NA
HETATM   28  O1  UNL     1      -4.288  -0.747  18.283  1.00  0.00    -0.275 OA
ENDBRANCH  25  26
ENDBRANCH   1  25
TORSDOF 7
ENDMDL
