MODEL 1
REMARK VINA RESULT: -4.690190755      0.000      0.000
REMARK  3 active torsions:
REMARK  status: ('A' for Active; 'I' for Inactive)
REMARK    1  A    between atoms: C2_2  and  O1_5 
REMARK    2  A    between atoms: O1_5  and  N1_6 
REMARK    3  A    between atoms: C8_11  and  N2_12 
ROOT
HETATM    1  N1  UNL     1      30.323 -46.766  -8.084  1.00  0.00    -0.274 N 
ATOM      2  H1  UNL     1      29.782 -47.284  -8.776  1.00  0.00     0.193 HD
HETATM    3  C5  UNL     1      30.216 -47.139  -6.878  1.00  0.00     0.012 C 
HETATM    4  C6  UNL     1      30.858 -46.609  -5.640  1.00  0.00     0.056 C 
HETATM    5  C7  UNL     1      30.747 -47.682  -4.604  1.00  0.00     0.039 C 
HETATM    6  C8  UNL     1      30.302 -48.899  -5.388  1.00  0.00     0.189 C 
HETATM    7  C9  UNL     1      29.366 -48.268  -6.407  1.00  0.00     0.087 C 
ENDROOT
BRANCH   1   8
HETATM    8  O1  UNL     1      31.084 -45.749  -8.543  1.00  0.00    -0.271 OA
BRANCH   8   9
HETATM    9  C2  UNL     1      32.330 -45.910  -9.194  1.00  0.00     0.078 C 
HETATM   10  C1  UNL     1      33.451 -45.828  -8.194  1.00  0.00     0.048 C 
HETATM   11  C3  UNL     1      32.285 -47.277  -9.869  1.00  0.00     0.048 C 
HETATM   12  C4  UNL     1      32.516 -44.891 -10.289  1.00  0.00     0.048 C 
ENDBRANCH   8   9
ENDBRANCH   1   8
BRANCH   6  13
HETATM   13  N2  UNL     1      31.466 -49.426  -6.097  1.00  0.00    -0.075 N 
ATOM     14  H23 UNL     1      31.280 -49.607  -7.083  1.00  0.00     0.274 HD
ATOM     15  H22 UNL     1      32.200 -48.729  -6.225  1.00  0.00     0.274 HD
ATOM     16  H21 UNL     1      31.790 -50.254  -5.596  1.00  0.00     0.274 HD
ENDBRANCH   6  13
TORSDOF 3
ENDMDL
MODEL 2
REMARK VINA RESULT: -4.653547963      0.070      1.246
REMARK  3 active torsions:
REMARK  status: ('A' for Active; 'I' for Inactive)
REMARK    1  A    between atoms: C2_2  and  O1_5 
REMARK    2  A    between atoms: O1_5  and  N1_6 
REMARK    3  A    between atoms: C8_11  and  N2_12 
ROOT
HETATM    1  N1  UNL     1      30.355 -46.725  -8.097  1.00  0.00    -0.274 N 
ATOM      2  H1  UNL     1      29.792 -47.216  -8.791  1.00  0.00     0.193 HD
HETATM    3  C5  UNL     1      30.240 -47.106  -6.894  1.00  0.00     0.012 C 
HETATM    4  C6  UNL     1      30.907 -46.612  -5.655  1.00  0.00     0.056 C 
HETATM    5  C7  UNL     1      30.762 -47.689  -4.628  1.00  0.00     0.039 C 
HETATM    6  C8  UNL     1      30.268 -48.882  -5.422  1.00  0.00     0.189 C 
HETATM    7  C9  UNL     1      29.352 -48.206  -6.430  1.00  0.00     0.087 C 
ENDROOT
BRANCH   1   8
HETATM    8  O1  UNL     1      31.151 -45.733  -8.550  1.00  0.00    -0.271 OA
BRANCH   8   9
HETATM    9  C2  UNL     1      32.364 -45.934  -9.251  1.00  0.00     0.078 C 
HETATM   10  C1  UNL     1      32.524 -44.888 -10.321  1.00  0.00     0.048 C 
HETATM   11  C3  UNL     1      33.477 -45.841  -8.211  1.00  0.00     0.048 C 
HETATM   12  C4  UNL     1      32.438 -47.318  -9.842  1.00  0.00     0.048 C 
ENDBRANCH   8   9
ENDBRANCH   1   8
BRANCH   6  13
HETATM   13  N2  UNL     1      31.409 -49.444  -6.142  1.00  0.00    -0.075 N 
ATOM     14  H23 UNL     1      32.295 -49.285  -5.664  1.00  0.00     0.274 HD
ATOM     15  H22 UNL     1      31.425 -50.464  -6.121  1.00  0.00     0.274 HD
ATOM     16  H21 UNL     1      31.396 -49.068  -7.090  1.00  0.00     0.274 HD
ENDBRANCH   6  13
TORSDOF 3
ENDMDL
MODEL 3
REMARK VINA RESULT: -4.611157604      0.266      1.264
REMARK  3 active torsions:
REMARK  status: ('A' for Active; 'I' for Inactive)
REMARK    1  A    between atoms: C2_2  and  O1_5 
REMARK    2  A    between atoms: O1_5  and  N1_6 
REMARK    3  A    between atoms: C8_11  and  N2_12 
ROOT
HETATM    1  N1  UNL     1      30.432 -46.672  -8.273  1.00  0.00    -0.274 N 
ATOM      2  H1  UNL     1      29.827 -47.128  -8.956  1.00  0.00     0.193 HD
HETATM    3  C5  UNL     1      30.299 -47.029  -7.064  1.00  0.00     0.012 C 
HETATM    4  C6  UNL     1      31.011 -46.572  -5.836  1.00  0.00     0.056 C 
HETATM    5  C7  UNL     1      30.794 -47.622  -4.795  1.00  0.00     0.039 C 
HETATM    6  C8  UNL     1      30.205 -48.783  -5.569  1.00  0.00     0.189 C 
HETATM    7  C9  UNL     1      29.333 -48.053  -6.579  1.00  0.00     0.087 C 
ENDROOT
BRANCH   1   8
HETATM    8  O1  UNL     1      31.297 -45.749  -8.744  1.00  0.00    -0.271 OA
BRANCH   8   9
HETATM    9  C2  UNL     1      32.530 -46.050  -9.371  1.00  0.00     0.078 C 
HETATM   10  C1  UNL     1      32.475 -47.420  -9.989  1.00  0.00     0.048 C 
HETATM   11  C3  UNL     1      32.746 -44.971 -10.427  1.00  0.00     0.048 C 
HETATM   12  C4  UNL     1      33.680 -45.946  -8.403  1.00  0.00     0.048 C 
ENDBRANCH   8   9
ENDBRANCH   1   8
BRANCH   6  13
HETATM   13  N2  UNL     1      31.293 -49.439  -6.291  1.00  0.00    -0.075 N 
ATOM     14  H23 UNL     1      31.469 -49.023  -7.205  1.00  0.00     0.274 HD
ATOM     15  H22 UNL     1      32.208 -49.254  -5.880  1.00  0.00     0.274 HD
ATOM     16  H21 UNL     1      31.078 -50.436  -6.344  1.00  0.00     0.274 HD
ENDBRANCH   6  13
TORSDOF 3
ENDMDL
MODEL 4
REMARK VINA RESULT: -4.599496181      3.474      6.343
REMARK  3 active torsions:
REMARK  status: ('A' for Active; 'I' for Inactive)
REMARK    1  A    between atoms: C2_2  and  O1_5 
REMARK    2  A    between atoms: O1_5  and  N1_6 
REMARK    3  A    between atoms: C8_11  and  N2_12 
ROOT
HETATM    1  N1  UNL     1      31.138 -45.591 -11.194  1.00  0.00    -0.274 N 
ATOM      2  H1  UNL     1      30.227 -45.687 -10.745  1.00  0.00     0.193 HD
HETATM    3  C5  UNL     1      31.190 -45.823 -12.438  1.00  0.00     0.012 C 
HETATM    4  C6  UNL     1      32.341 -45.776 -13.385  1.00  0.00     0.056 C 
HETATM    5  C7  UNL     1      31.765 -45.684 -14.761  1.00  0.00     0.039 C 
HETATM    6  C8  UNL     1      30.299 -45.387 -14.521  1.00  0.00     0.189 C 
HETATM    7  C9  UNL     1      30.028 -46.222 -13.279  1.00  0.00     0.087 C 
ENDROOT
BRANCH   1   8
HETATM    8  O1  UNL     1      32.171 -45.228 -10.404  1.00  0.00    -0.271 OA
BRANCH   8   9
HETATM    9  C2  UNL     1      32.760 -46.058  -9.421  1.00  0.00     0.078 C 
HETATM   10  C1  UNL     1      34.233 -46.213  -9.689  1.00  0.00     0.048 C 
HETATM   11  C3  UNL     1      32.507 -45.378  -8.080  1.00  0.00     0.048 C 
HETATM   12  C4  UNL     1      32.085 -47.404  -9.358  1.00  0.00     0.048 C 
ENDBRANCH   8   9
ENDBRANCH   1   8
BRANCH   6  13
HETATM   13  N2  UNL     1      30.180 -43.976 -14.160  1.00  0.00    -0.075 N 
ATOM     14  H23 UNL     1      29.847 -43.838 -13.207  1.00  0.00     0.274 HD
ATOM     15  H22 UNL     1      31.085 -43.517 -14.054  1.00  0.00     0.274 HD
ATOM     16  H21 UNL     1      29.587 -43.523 -14.856  1.00  0.00     0.274 HD
ENDBRANCH   6  13
TORSDOF 3
ENDMDL
MODEL 5
REMARK VINA RESULT: -4.495683361      1.520      4.913
REMARK  3 active torsions:
REMARK  status: ('A' for Active; 'I' for Inactive)
REMARK    1  A    between atoms: C2_2  and  O1_5 
REMARK    2  A    between atoms: O1_5  and  N1_6 
REMARK    3  A    between atoms: C8_11  and  N2_12 
ROOT
HETATM    1  N1  UNL     1      30.900 -46.919  -8.578  1.00  0.00    -0.274 N 
ATOM      2  H1  UNL     1      30.310 -47.679  -8.919  1.00  0.00     0.193 HD
HETATM    3  C5  UNL     1      31.800 -46.498  -9.364  1.00  0.00     0.012 C 
HETATM    4  C6  UNL     1      32.815 -45.421  -9.185  1.00  0.00     0.056 C 
HETATM    5  C7  UNL     1      33.293 -45.046 -10.551  1.00  0.00     0.039 C 
HETATM    6  C8  UNL     1      32.309 -45.728 -11.479  1.00  0.00     0.189 C 
HETATM    7  C9  UNL     1      32.053 -47.028 -10.732  1.00  0.00     0.087 C 
ENDROOT
BRANCH   1   8
HETATM    8  O1  UNL     1      30.645 -46.460  -7.334  1.00  0.00    -0.271 OA
BRANCH   8   9
HETATM    9  C2  UNL     1      30.637 -47.263  -6.169  1.00  0.00     0.078 C 
HETATM   10  C1  UNL     1      30.348 -46.417  -4.959  1.00  0.00     0.048 C 
HETATM   11  C3  UNL     1      29.555 -48.316  -6.383  1.00  0.00     0.048 C 
HETATM   12  C4  UNL     1      31.938 -48.006  -6.002  1.00  0.00     0.048 C 
ENDBRANCH   8   9
ENDBRANCH   1   8
BRANCH   6  13
HETATM   13  N2  UNL     1      31.075 -44.946 -11.477  1.00  0.00    -0.075 N 
ATOM     14  H23 UNL     1      31.122 -44.135 -10.862  1.00  0.00     0.274 HD
ATOM     15  H22 UNL     1      30.924 -44.444 -12.352  1.00  0.00     0.274 HD
ATOM     16  H21 UNL     1      30.306 -45.575 -11.245  1.00  0.00     0.274 HD
ENDBRANCH   6  13
TORSDOF 3
ENDMDL
