MODEL 1
REMARK VINA RESULT: -5.099595351      0.000      0.000
REMARK  2 active torsions:
REMARK  status: ('A' for Active; 'I' for Inactive)
REMARK    1  A    between atoms: C2_2  and  C3_3 
REMARK    2  A    between atoms: C8_8  and  O1_9 
ROOT
HETATM    1  C3  UNL     1      32.886 -45.574  -8.530  1.00  0.00     0.098 C 
HETATM    2  C4  UNL     1      34.183 -46.218  -8.911  1.00  0.00     0.026 C 
HETATM    3  C5  UNL     1      34.119 -46.658 -10.358  1.00  0.00     0.002 C 
HETATM    4  C6  UNL     1      33.813 -45.509 -11.284  1.00  0.00     0.004 C 
HETATM    5  C7  UNL     1      32.567 -45.789 -12.093  1.00  0.00     0.055 C 
HETATM    6  C8  UNL     1      31.344 -45.249 -11.348  1.00  0.00     0.234 C 
HETATM    7  N1  UNL     1      31.144 -46.133 -10.231  1.00  0.00    -0.312 N 
ATOM      8  H1  UNL     1      30.370 -46.790 -10.335  1.00  0.00     0.182 HD
HETATM    9  N2  UNL     1      31.769 -46.223  -9.159  1.00  0.00    -0.334 N 
ATOM     10  H2  UNL     1      31.382 -46.956  -8.564  1.00  0.00     0.180 HD
ENDROOT
BRANCH   1  11
HETATM   11  C2  UNL     1      32.689 -45.484  -7.036  1.00  0.00     0.022 C 
HETATM   12  C1  UNL     1      33.686 -46.292  -6.267  1.00  0.00     0.007 C 
ENDBRANCH   1  11
BRANCH   6  13
HETATM   13  O1  UNL     1      30.237 -45.193 -12.175  1.00  0.00    -0.370 OA
HETATM   14  C9  UNL     1      30.361 -46.034 -13.288  1.00  0.00     0.204 C 
ENDBRANCH   6  13
TORSDOF 2
ENDMDL
MODEL 2
REMARK VINA RESULT: -5.076006909      3.034      4.878
REMARK  2 active torsions:
REMARK  status: ('A' for Active; 'I' for Inactive)
REMARK    1  A    between atoms: C2_2  and  C3_3 
REMARK    2  A    between atoms: C8_8  and  O1_9 
ROOT
HETATM    1  C3  UNL     1      31.934 -46.190  -9.022  1.00  0.00     0.098 C 
HETATM    2  C4  UNL     1      32.872 -45.438  -8.131  1.00  0.00     0.026 C 
HETATM    3  C5  UNL     1      32.472 -45.651  -6.686  1.00  0.00     0.002 C 
HETATM    4  C6  UNL     1      32.455 -47.112  -6.316  1.00  0.00     0.004 C 
HETATM    5  C7  UNL     1      31.093 -47.519  -5.803  1.00  0.00     0.055 C 
HETATM    6  C8  UNL     1      30.236 -48.014  -6.970  1.00  0.00     0.234 C 
HETATM    7  N1  UNL     1      29.897 -46.841  -7.731  1.00  0.00    -0.312 N 
ATOM      8  H1  UNL     1      28.940 -46.511  -7.610  1.00  0.00     0.182 HD
HETATM    9  N2  UNL     1      30.590 -46.167  -8.515  1.00  0.00    -0.334 N 
ATOM     10  H2  UNL     1      30.059 -45.386  -8.901  1.00  0.00     0.180 HD
ENDROOT
BRANCH   1  11
HETATM   11  C2  UNL     1      31.979 -45.719 -10.456  1.00  0.00     0.022 C 
HETATM   12  C1  UNL     1      33.347 -45.296 -10.888  1.00  0.00     0.007 C 
ENDBRANCH   1  11
BRANCH   6  13
HETATM   13  O1  UNL     1      29.115 -48.686  -6.520  1.00  0.00    -0.370 OA
HETATM   14  C9  UNL     1      29.441 -49.821  -5.766  1.00  0.00     0.204 C 
ENDBRANCH   6  13
TORSDOF 2
ENDMDL
MODEL 3
REMARK VINA RESULT: -5.073240392      1.836      4.319
REMARK  2 active torsions:
REMARK  status: ('A' for Active; 'I' for Inactive)
REMARK    1  A    between atoms: C2_2  and  C3_3 
REMARK    2  A    between atoms: C8_8  and  O1_9 
ROOT
HETATM    1  C3  UNL     1      31.936 -46.723 -11.896  1.00  0.00     0.098 C 
HETATM    2  C4  UNL     1      33.255 -46.076 -12.184  1.00  0.00     0.026 C 
HETATM    3  C5  UNL     1      33.692 -45.269 -10.980  1.00  0.00     0.002 C 
HETATM    4  C6  UNL     1      33.785 -46.115  -9.737  1.00  0.00     0.004 C 
HETATM    5  C7  UNL     1      32.898 -45.563  -8.644  1.00  0.00     0.055 C 
HETATM    6  C8  UNL     1      31.513 -46.209  -8.736  1.00  0.00     0.234 C 
HETATM    7  N1  UNL     1      30.892 -45.639  -9.902  1.00  0.00    -0.312 N 
ATOM      8  H1  UNL     1      30.179 -44.936  -9.709  1.00  0.00     0.182 HD
HETATM    9  N2  UNL     1      31.089 -45.870 -11.109  1.00  0.00    -0.334 N 
ATOM     10  H2  UNL     1      30.486 -45.297 -11.699  1.00  0.00     0.180 HD
ENDROOT
BRANCH   1  11
HETATM   11  C2  UNL     1      31.224 -47.191 -13.142  1.00  0.00     0.022 C 
HETATM   12  C1  UNL     1      30.217 -46.205 -13.643  1.00  0.00     0.007 C 
ENDBRANCH   1  11
BRANCH   6  13
HETATM   13  O1  UNL     1      30.777 -45.983  -7.588  1.00  0.00    -0.370 OA
HETATM   14  C9  UNL     1      30.016 -47.098  -7.214  1.00  0.00     0.204 C 
ENDBRANCH   6  13
TORSDOF 2
ENDMDL
MODEL 4
REMARK VINA RESULT: -5.001995150      1.839      2.367
REMARK  2 active torsions:
REMARK  status: ('A' for Active; 'I' for Inactive)
REMARK    1  A    between atoms: C2_2  and  C3_3 
REMARK    2  A    between atoms: C8_8  and  O1_9 
ROOT
HETATM    1  C3  UNL     1      31.220 -46.606  -7.254  1.00  0.00     0.098 C 
HETATM    2  C4  UNL     1      32.432 -47.391  -6.858  1.00  0.00     0.026 C 
HETATM    3  C5  UNL     1      33.415 -47.412  -8.009  1.00  0.00     0.002 C 
HETATM    4  C6  UNL     1      33.808 -46.023  -8.440  1.00  0.00     0.004 C 
HETATM    5  C7  UNL     1      33.496 -45.806  -9.904  1.00  0.00     0.055 C 
HETATM    6  C8  UNL     1      32.085 -45.230 -10.044  1.00  0.00     0.234 C 
HETATM    7  N1  UNL     1      31.189 -46.312  -9.735  1.00  0.00    -0.312 N 
ATOM      8  H1  UNL     1      30.731 -46.736 -10.541  1.00  0.00     0.182 HD
HETATM    9  N2  UNL     1      30.885 -46.812  -8.636  1.00  0.00    -0.334 N 
ATOM     10  H2  UNL     1      30.217 -47.574  -8.747  1.00  0.00     0.180 HD
ENDROOT
BRANCH   1  11
HETATM   11  C2  UNL     1      30.030 -46.870  -6.364  1.00  0.00     0.022 C 
HETATM   12  C1  UNL     1      30.377 -46.857  -4.909  1.00  0.00     0.007 C 
ENDBRANCH   1  11
BRANCH   6  13
HETATM   13  O1  UNL     1      31.874 -44.724 -11.313  1.00  0.00    -0.370 OA
HETATM   14  C9  UNL     1      30.821 -45.367 -11.975  1.00  0.00     0.204 C 
ENDBRANCH   6  13
TORSDOF 2
ENDMDL
MODEL 5
REMARK VINA RESULT: -4.972420492      2.203      4.472
REMARK  2 active torsions:
REMARK  status: ('A' for Active; 'I' for Inactive)
REMARK    1  A    between atoms: C2_2  and  C3_3 
REMARK    2  A    between atoms: C8_8  and  O1_9 
ROOT
HETATM    1  C3  UNL     1      32.073 -46.638 -10.679  1.00  0.00     0.098 C 
HETATM    2  C4  UNL     1      33.474 -46.149 -10.476  1.00  0.00     0.026 C 
HETATM    3  C5  UNL     1      33.635 -45.663  -9.052  1.00  0.00     0.002 C 
HETATM    4  C6  UNL     1      33.305 -46.737  -8.048  1.00  0.00     0.004 C 
HETATM    5  C7  UNL     1      32.205 -46.282  -7.116  1.00  0.00     0.055 C 
HETATM    6  C8  UNL     1      30.847 -46.687  -7.693  1.00  0.00     0.234 C 
HETATM    7  N1  UNL     1      30.624 -45.818  -8.817  1.00  0.00    -0.312 N 
ATOM      8  H1  UNL     1      29.952 -45.068  -8.655  1.00  0.00     0.182 HD
HETATM    9  N2  UNL     1      31.124 -45.838  -9.956  1.00  0.00    -0.334 N 
ATOM     10  H2  UNL     1      30.761 -45.080 -10.534  1.00  0.00     0.180 HD
ENDROOT
BRANCH   1  11
HETATM   11  C2  UNL     1      31.692 -46.747 -12.136  1.00  0.00     0.022 C 
HETATM   12  C1  UNL     1      30.720 -45.694 -12.564  1.00  0.00     0.007 C 
ENDBRANCH   1  11
BRANCH   6  13
HETATM   13  O1  UNL     1      29.847 -46.581  -6.744  1.00  0.00    -0.370 OA
HETATM   14  C9  UNL     1      30.292 -46.922  -5.461  1.00  0.00     0.204 C 
ENDBRANCH   6  13
TORSDOF 2
ENDMDL
