MODEL 1
REMARK VINA RESULT: -4.701933789      0.000      0.000
REMARK  4 active torsions:
REMARK  status: ('A' for Active; 'I' for Inactive)
REMARK    1  A    between atoms: O1_2  and  N1_3 
REMARK    2  A    between atoms: N1_3  and  C2_5 
REMARK    3  A    between atoms: C2_5  and  N2_6 
REMARK    4  A    between atoms: N2_6  and  C3_8 
ROOT
HETATM    1  C3  UNL     1      32.198 -46.592  -9.629  1.00  0.00     0.091 C 
HETATM    2  C4  UNL     1      33.199 -45.673  -9.013  1.00  0.00     0.026 C 
HETATM    3  C5  UNL     1      33.761 -46.138  -7.714  1.00  0.00     0.002 C 
HETATM    4  C6  UNL     1      32.908 -45.674  -6.551  1.00  0.00     0.000 C 
HETATM    5  C7  UNL     1      31.871 -46.730  -6.295  1.00  0.00     0.000 C 
HETATM    6  C8  UNL     1      31.004 -46.875  -7.521  1.00  0.00     0.002 C 
HETATM    7  C9  UNL     1      31.659 -47.624  -8.630  1.00  0.00     0.026 C 
ENDROOT
BRANCH   1   8
HETATM    8  N2  UNL     1      31.025 -45.808  -9.973  1.00  0.00    -0.337 N 
ATOM      9  H2  UNL     1      30.269 -45.652  -9.307  1.00  0.00     0.171 HD
BRANCH   8  10
HETATM   10  C2  UNL     1      30.990 -45.326 -11.152  1.00  0.00     0.069 C 
BRANCH  10  11
HETATM   11  N1  UNL     1      30.896 -44.892 -12.349  1.00  0.00    -0.216 N 
ATOM     12  H1  UNL     1      31.612 -44.279 -12.740  1.00  0.00     0.205 HD
BRANCH  11  13
HETATM   13  O1  UNL     1      29.830 -45.263 -13.086  1.00  0.00    -0.277 OA
HETATM   14  C1  UNL     1      29.828 -45.944 -14.294  1.00  0.00     0.238 C 
ENDBRANCH  11  13
ENDBRANCH  10  11
ENDBRANCH   8  10
ENDBRANCH   1   8
TORSDOF 4
ENDMDL
MODEL 2
REMARK VINA RESULT: -4.671757271      1.579      2.472
REMARK  4 active torsions:
REMARK  status: ('A' for Active; 'I' for Inactive)
REMARK    1  A    between atoms: O1_2  and  N1_3 
REMARK    2  A    between atoms: N1_3  and  C2_5 
REMARK    3  A    between atoms: C2_5  and  N2_6 
REMARK    4  A    between atoms: N2_6  and  C3_8 
ROOT
HETATM    1  C3  UNL     1      31.761 -45.183 -10.399  1.00  0.00     0.091 C 
HETATM    2  C4  UNL     1      31.541 -45.763  -9.043  1.00  0.00     0.026 C 
HETATM    3  C5  UNL     1      32.703 -45.651  -8.117  1.00  0.00     0.002 C 
HETATM    4  C6  UNL     1      33.634 -46.838  -8.260  1.00  0.00     0.000 C 
HETATM    5  C7  UNL     1      34.648 -46.498  -9.315  1.00  0.00     0.000 C 
HETATM    6  C8  UNL     1      33.936 -46.263 -10.624  1.00  0.00     0.002 C 
HETATM    7  C9  UNL     1      33.246 -44.945 -10.699  1.00  0.00     0.026 C 
ENDROOT
BRANCH   1   8
HETATM    8  N2  UNL     1      31.372 -46.182 -11.380  1.00  0.00    -0.337 N 
ATOM      9  H2  UNL     1      31.635 -47.162 -11.281  1.00  0.00     0.171 HD
BRANCH   8  10
HETATM   10  C2  UNL     1      30.686 -45.769 -12.370  1.00  0.00     0.069 C 
BRANCH  10  11
HETATM   11  N1  UNL     1      29.976 -45.295 -13.320  1.00  0.00    -0.216 N 
ATOM     12  H1  UNL     1      28.961 -45.391 -13.310  1.00  0.00     0.205 HD
BRANCH  11  13
HETATM   13  O1  UNL     1      30.598 -44.664 -14.335  1.00  0.00    -0.277 OA
HETATM   14  C1  UNL     1      31.060 -45.213 -15.522  1.00  0.00     0.238 C 
ENDBRANCH  11  13
ENDBRANCH  10  11
ENDBRANCH   8  10
ENDBRANCH   1   8
TORSDOF 4
ENDMDL
MODEL 3
REMARK VINA RESULT: -4.646587404      1.254      1.714
REMARK  4 active torsions:
REMARK  status: ('A' for Active; 'I' for Inactive)
REMARK    1  A    between atoms: O1_2  and  N1_3 
REMARK    2  A    between atoms: N1_3  and  C2_5 
REMARK    3  A    between atoms: C2_5  and  N2_6 
REMARK    4  A    between atoms: N2_6  and  C3_8 
ROOT
HETATM    1  C3  UNL     1      31.719 -46.767  -8.358  1.00  0.00     0.091 C 
HETATM    2  C4  UNL     1      32.145 -46.012  -7.144  1.00  0.00     0.026 C 
HETATM    3  C5  UNL     1      32.084 -46.785  -5.872  1.00  0.00     0.002 C 
HETATM    4  C6  UNL     1      30.718 -46.671  -5.226  1.00  0.00     0.000 C 
HETATM    5  C7  UNL     1      29.867 -47.789  -5.757  1.00  0.00     0.000 C 
HETATM    6  C8  UNL     1      29.726 -47.632  -7.251  1.00  0.00     0.002 C 
HETATM    7  C9  UNL     1      30.939 -48.041  -8.011  1.00  0.00     0.026 C 
ENDROOT
BRANCH   1   8
HETATM    8  N2  UNL     1      30.745 -45.956  -9.069  1.00  0.00    -0.337 N 
ATOM      9  H2  UNL     1      29.819 -45.770  -8.684  1.00  0.00     0.171 HD
BRANCH   8  10
HETATM   10  C2  UNL     1      31.109 -45.489 -10.197  1.00  0.00     0.069 C 
BRANCH  10  11
HETATM   11  N1  UNL     1      31.433 -44.956 -11.311  1.00  0.00    -0.216 N 
ATOM     12  H1  UNL     1      32.384 -44.625 -11.474  1.00  0.00     0.205 HD
BRANCH  11  13
HETATM   13  O1  UNL     1      30.490 -44.842 -12.268  1.00  0.00    -0.277 OA
HETATM   14  C1  UNL     1      30.214 -45.727 -13.299  1.00  0.00     0.238 C 
ENDBRANCH  11  13
ENDBRANCH  10  11
ENDBRANCH   8  10
ENDBRANCH   1   8
TORSDOF 4
ENDMDL
MODEL 4
REMARK VINA RESULT: -4.622466749      0.887      1.925
REMARK  4 active torsions:
REMARK  status: ('A' for Active; 'I' for Inactive)
REMARK    1  A    between atoms: O1_2  and  N1_3 
REMARK    2  A    between atoms: N1_3  and  C2_5 
REMARK    3  A    between atoms: C2_5  and  N2_6 
REMARK    4  A    between atoms: N2_6  and  C3_8 
ROOT
HETATM    1  C3  UNL     1      31.274 -45.807  -8.817  1.00  0.00     0.091 C 
HETATM    2  C4  UNL     1      31.060 -47.026  -7.986  1.00  0.00     0.026 C 
HETATM    3  C5  UNL     1      31.910 -47.113  -6.766  1.00  0.00     0.002 C 
HETATM    4  C6  UNL     1      33.233 -47.788  -7.067  1.00  0.00     0.000 C 
HETATM    5  C7  UNL     1      34.208 -46.720  -7.475  1.00  0.00     0.000 C 
HETATM    6  C8  UNL     1      33.700 -46.042  -8.723  1.00  0.00     0.002 C 
HETATM    7  C9  UNL     1      32.584 -45.087  -8.472  1.00  0.00     0.026 C 
ENDROOT
BRANCH   1   8
HETATM    8  N2  UNL     1      31.473 -46.232 -10.191  1.00  0.00    -0.337 N 
ATOM      9  H2  UNL     1      31.945 -47.107 -10.420  1.00  0.00     0.171 HD
BRANCH   8  10
HETATM   10  C2  UNL     1      31.026 -45.456 -11.097  1.00  0.00     0.069 C 
BRANCH  10  11
HETATM   11  N1  UNL     1      30.563 -44.741 -12.049  1.00  0.00    -0.216 N 
ATOM     12  H1  UNL     1      30.705 -43.731 -12.059  1.00  0.00     0.205 HD
BRANCH  11  13
HETATM   13  O1  UNL     1      29.884 -45.351 -13.040  1.00  0.00    -0.277 OA
HETATM   14  C1  UNL     1      30.363 -46.278 -13.953  1.00  0.00     0.238 C 
ENDBRANCH  11  13
ENDBRANCH  10  11
ENDBRANCH   8  10
ENDBRANCH   1   8
TORSDOF 4
ENDMDL
MODEL 5
REMARK VINA RESULT: -4.508323368      1.389      2.181
REMARK  4 active torsions:
REMARK  status: ('A' for Active; 'I' for Inactive)
REMARK    1  A    between atoms: O1_2  and  N1_3 
REMARK    2  A    between atoms: N1_3  and  C2_5 
REMARK    3  A    between atoms: C2_5  and  N2_6 
REMARK    4  A    between atoms: N2_6  and  C3_8 
ROOT
HETATM    1  C3  UNL     1      32.522 -45.178  -9.905  1.00  0.00     0.091 C 
HETATM    2  C4  UNL     1      32.431 -45.534  -8.459  1.00  0.00     0.026 C 
HETATM    3  C5  UNL     1      33.714 -45.961  -7.836  1.00  0.00     0.002 C 
HETATM    4  C6  UNL     1      33.928 -47.453  -7.989  1.00  0.00     0.000 C 
HETATM    5  C7  UNL     1      34.666 -47.679  -9.278  1.00  0.00     0.000 C 
HETATM    6  C8  UNL     1      33.821 -47.177 -10.422  1.00  0.00     0.002 C 
HETATM    7  C9  UNL     1      33.813 -45.693 -10.553  1.00  0.00     0.026 C 
ENDROOT
BRANCH   1   8
HETATM    8  N2  UNL     1      31.477 -45.901 -10.609  1.00  0.00    -0.337 N 
ATOM      9  H2  UNL     1      31.195 -46.842 -10.332  1.00  0.00     0.171 HD
BRANCH   8  10
HETATM   10  C2  UNL     1      30.932 -45.300 -11.590  1.00  0.00     0.069 C 
BRANCH  10  11
HETATM   11  N1  UNL     1      30.324 -44.745 -12.567  1.00  0.00    -0.216 N 
ATOM     12  H1  UNL     1      30.416 -43.744 -12.737  1.00  0.00     0.205 HD
BRANCH  11  13
HETATM   13  O1  UNL     1      29.558 -45.513 -13.368  1.00  0.00    -0.277 OA
HETATM   14  C1  UNL     1      29.922 -46.130 -14.555  1.00  0.00     0.238 C 
ENDBRANCH  11  13
ENDBRANCH  10  11
ENDBRANCH   8  10
ENDBRANCH   1   8
TORSDOF 4
ENDMDL
