MODEL 1
REMARK VINA RESULT: -5.859570711      0.000      0.000
REMARK  4 active torsions:
REMARK  status: ('A' for Active; 'I' for Inactive)
REMARK    1  A    between atoms: O1_1  and  N1_3 
REMARK    2  A    between atoms: C5_8  and  C6_9 
REMARK    3  A    between atoms: C6_9  and  O2_10 
REMARK    4  A    between atoms: C6_9  and  O3_12 
ROOT
HETATM    1  N1  UNL     1      42.600  32.608  31.794  1.00  0.00    -0.235 N 
HETATM    2  C1  UNL     1      42.086  33.834  31.541  1.00  0.00     0.123 A 
HETATM    3  C2  UNL     1      42.065  34.844  32.481  1.00  0.00     0.020 A 
HETATM    4  C3  UNL     1      42.592  34.597  33.733  1.00  0.00     0.004 A 
HETATM    5  C4  UNL     1      43.111  33.350  33.975  1.00  0.00     0.033 A 
HETATM    6  C5  UNL     1      43.112  32.366  33.007  1.00  0.00     0.094 A 
ENDROOT
BRANCH   6   7
HETATM    7  C6  UNL     1      43.702  31.027  33.360  1.00  0.00     0.307 C 
BRANCH   7   8
HETATM    8  O2  UNL     1      42.745  30.019  33.223  1.00  0.00    -0.366 OA
ATOM      9  H2  UNL     1      42.155  30.215  32.504  1.00  0.00     0.213 HD
ENDBRANCH   7   8
BRANCH   7  10
HETATM   10  O3  UNL     1      44.154  31.024  34.675  1.00  0.00    -0.366 OA
ATOM     11  H3  UNL     1      43.827  30.263  35.138  1.00  0.00     0.213 HD
ENDBRANCH   7  10
ENDBRANCH   6   7
BRANCH   1  12
HETATM   12  O1  UNL     1      42.607  31.625  30.843  1.00  0.00    -0.283 OA
ATOM     13  H1  UNL     1      43.242  30.918  30.864  1.00  0.00     0.245 HD
ENDBRANCH   1  12
TORSDOF 4
ENDMDL
MODEL 2
REMARK VINA RESULT: -5.817001650      2.289      3.863
REMARK  4 active torsions:
REMARK  status: ('A' for Active; 'I' for Inactive)
REMARK    1  A    between atoms: O1_1  and  N1_3 
REMARK    2  A    between atoms: C5_8  and  C6_9 
REMARK    3  A    between atoms: C6_9  and  O2_10 
REMARK    4  A    between atoms: C6_9  and  O3_12 
ROOT
HETATM    1  N1  UNL     1      43.374  33.662  33.810  1.00  0.00    -0.235 N 
HETATM    2  C1  UNL     1      43.873  32.794  34.720  1.00  0.00     0.123 A 
HETATM    3  C2  UNL     1      43.821  31.425  34.552  1.00  0.00     0.020 A 
HETATM    4  C3  UNL     1      43.238  30.917  33.408  1.00  0.00     0.004 A 
HETATM    5  C4  UNL     1      42.738  31.810  32.494  1.00  0.00     0.033 A 
HETATM    6  C5  UNL     1      42.808  33.174  32.700  1.00  0.00     0.094 A 
ENDROOT
BRANCH   6   7
HETATM    7  C6  UNL     1      42.233  34.079  31.644  1.00  0.00     0.307 C 
BRANCH   7   8
HETATM    8  O2  UNL     1      41.074  34.701  32.112  1.00  0.00    -0.366 OA
ATOM      9  H2  UNL     1      41.191  35.642  32.148  1.00  0.00     0.213 HD
ENDBRANCH   7   8
BRANCH   7  10
HETATM   10  O3  UNL     1      41.911  33.354  30.502  1.00  0.00    -0.366 OA
ATOM     11  H3  UNL     1      41.259  32.693  30.700  1.00  0.00     0.213 HD
ENDBRANCH   7  10
ENDBRANCH   6   7
BRANCH   1  12
HETATM   12  O1  UNL     1      43.438  35.015  34.002  1.00  0.00    -0.283 OA
ATOM     13  H1  UNL     1      42.656  35.555  34.000  1.00  0.00     0.245 HD
ENDBRANCH   1  12
TORSDOF 4
ENDMDL
MODEL 3
REMARK VINA RESULT: -5.645229061      1.392      2.199
REMARK  4 active torsions:
REMARK  status: ('A' for Active; 'I' for Inactive)
REMARK    1  A    between atoms: O1_1  and  N1_3 
REMARK    2  A    between atoms: C5_8  and  C6_9 
REMARK    3  A    between atoms: C6_9  and  O2_10 
REMARK    4  A    between atoms: C6_9  and  O3_12 
ROOT
HETATM    1  N1  UNL     1      43.167  33.615  33.599  1.00  0.00    -0.235 N 
HETATM    2  C1  UNL     1      42.500  34.551  32.885  1.00  0.00     0.123 A 
HETATM    3  C2  UNL     1      41.955  34.296  31.643  1.00  0.00     0.020 A 
HETATM    4  C3  UNL     1      42.095  33.032  31.104  1.00  0.00     0.004 A 
HETATM    5  C4  UNL     1      42.773  32.093  31.840  1.00  0.00     0.033 A 
HETATM    6  C5  UNL     1      43.304  32.389  33.079  1.00  0.00     0.094 A 
ENDROOT
BRANCH   6   7
HETATM    7  C6  UNL     1      44.033  31.298  33.816  1.00  0.00     0.307 C 
BRANCH   7   8
HETATM    8  O2  UNL     1      43.818  30.064  33.199  1.00  0.00    -0.366 OA
ATOM      9  H2  UNL     1      44.115  30.086  32.297  1.00  0.00     0.213 HD
ENDBRANCH   7   8
BRANCH   7  10
HETATM   10  O3  UNL     1      43.587  31.215  35.130  1.00  0.00    -0.366 OA
ATOM     11  H3  UNL     1      44.084  31.801  35.688  1.00  0.00     0.213 HD
ENDBRANCH   7  10
ENDBRANCH   6   7
BRANCH   1  12
HETATM   12  O1  UNL     1      43.697  33.896  34.828  1.00  0.00    -0.283 OA
ATOM     13  H1  UNL     1      43.455  34.681  35.306  1.00  0.00     0.245 HD
ENDBRANCH   1  12
TORSDOF 4
ENDMDL
MODEL 4
REMARK VINA RESULT: -5.504280569      1.395      2.412
REMARK  4 active torsions:
REMARK  status: ('A' for Active; 'I' for Inactive)
REMARK    1  A    between atoms: O1_1  and  N1_3 
REMARK    2  A    between atoms: C5_8  and  C6_9 
REMARK    3  A    between atoms: C6_9  and  O2_10 
REMARK    4  A    between atoms: C6_9  and  O3_12 
ROOT
HETATM    1  N1  UNL     1      42.825  33.515  33.562  1.00  0.00    -0.235 N 
HETATM    2  C1  UNL     1      42.514  34.467  32.653  1.00  0.00     0.123 A 
HETATM    3  C2  UNL     1      42.213  34.175  31.338  1.00  0.00     0.020 A 
HETATM    4  C3  UNL     1      42.229  32.856  30.931  1.00  0.00     0.004 A 
HETATM    5  C4  UNL     1      42.546  31.901  31.864  1.00  0.00     0.033 A 
HETATM    6  C5  UNL     1      42.842  32.235  33.170  1.00  0.00     0.094 A 
ENDROOT
BRANCH   6   7
HETATM    7  C6  UNL     1      43.179  31.122  34.126  1.00  0.00     0.307 C 
BRANCH   7   8
HETATM    8  O2  UNL     1      44.369  31.401  34.801  1.00  0.00    -0.366 OA
ATOM      9  H2  UNL     1      44.199  31.933  35.570  1.00  0.00     0.213 HD
ENDBRANCH   7   8
BRANCH   7  10
HETATM   10  O3  UNL     1      43.335  29.922  33.441  1.00  0.00    -0.366 OA
ATOM     11  H3  UNL     1      42.780  29.250  33.817  1.00  0.00     0.213 HD
ENDBRANCH   7  10
ENDBRANCH   6   7
BRANCH   1  12
HETATM   12  O1  UNL     1      43.120  33.833  34.859  1.00  0.00    -0.283 OA
ATOM     13  H1  UNL     1      43.997  34.083  35.123  1.00  0.00     0.245 HD
ENDBRANCH   1  12
TORSDOF 4
ENDMDL
MODEL 5
REMARK VINA RESULT: -5.497268912      2.239      3.322
REMARK  4 active torsions:
REMARK  status: ('A' for Active; 'I' for Inactive)
REMARK    1  A    between atoms: O1_1  and  N1_3 
REMARK    2  A    between atoms: C5_8  and  C6_9 
REMARK    3  A    between atoms: C6_9  and  O2_10 
REMARK    4  A    between atoms: C6_9  and  O3_12 
ROOT
HETATM    1  N1  UNL     1      43.502  32.359  33.694  1.00  0.00    -0.235 N 
HETATM    2  C1  UNL     1      43.042  31.746  32.580  1.00  0.00     0.123 A 
HETATM    3  C2  UNL     1      42.457  32.434  31.536  1.00  0.00     0.020 A 
HETATM    4  C3  UNL     1      42.335  33.806  31.631  1.00  0.00     0.004 A 
HETATM    5  C4  UNL     1      42.806  34.414  32.766  1.00  0.00     0.033 A 
HETATM    6  C5  UNL     1      43.385  33.689  33.789  1.00  0.00     0.094 A 
ENDROOT
BRANCH   6   7
HETATM    7  C6  UNL     1      43.874  34.439  34.999  1.00  0.00     0.307 C 
BRANCH   7   8
HETATM    8  O2  UNL     1      42.797  34.937  35.734  1.00  0.00    -0.366 OA
ATOM      9  H2  UNL     1      43.035  35.035  36.649  1.00  0.00     0.213 HD
ENDBRANCH   7   8
BRANCH   7  10
HETATM   10  O3  UNL     1      44.676  35.510  34.618  1.00  0.00    -0.366 OA
ATOM     11  H3  UNL     1      44.912  35.439  33.701  1.00  0.00     0.213 HD
ENDBRANCH   7  10
ENDBRANCH   6   7
BRANCH   1  12
HETATM   12  O1  UNL     1      44.078  31.653  34.714  1.00  0.00    -0.283 OA
ATOM     13  H1  UNL     1      43.831  31.796  35.620  1.00  0.00     0.245 HD
ENDBRANCH   1  12
TORSDOF 4
ENDMDL
