MODEL 1
REMARK VINA RESULT: -5.647742629      0.000      0.000
REMARK  3 active torsions:
REMARK  status: ('A' for Active; 'I' for Inactive)
REMARK    1  A    between atoms: C1_2  and  C2_3 
REMARK       I    between atoms: C1_2  and  N1_7 
REMARK    2  A    between atoms: C2_3  and  C3_4 
REMARK    3  A    between atoms: N1_7  and  C6_9 
ROOT
HETATM    1  C6  UNL     1     124.766 107.814 -42.595  1.00  0.00     0.115 C 
HETATM    2  C7  UNL     1     125.462 108.156 -43.848  1.00  0.00     0.032 C 
HETATM    3  C8  UNL     1     125.000 109.331 -44.622  1.00  0.00    -0.010 C 
HETATM    4  C9  UNL     1     123.717 109.100 -45.379  1.00  0.00     0.009 C 
HETATM    5  C10 UNL     1     122.497 109.367 -44.533  1.00  0.00    -0.010 C 
HETATM    6  C11 UNL     1     122.523 110.739 -43.907  1.00  0.00     0.037 C 
HETATM    7  C12 UNL     1     123.741 110.799 -43.015  1.00  0.00     0.187 C 
HETATM    8  C13 UNL     1     124.957 110.620 -43.858  1.00  0.00     0.037 C 
HETATM    9  N2  UNL     1     123.660 109.858 -41.923  1.00  0.00    -0.065 N 
ATOM     10  H21 UNL     1     122.945 110.138 -41.253  1.00  0.00     0.278 HD
ATOM     11  H22 UNL     1     124.484 109.923 -41.325  1.00  0.00     0.278 HD
HETATM   12  C14 UNL     1     123.450 108.503 -42.361  1.00  0.00     0.209 C 
HETATM   13  C15 UNL     1     122.452 108.344 -43.454  1.00  0.00     0.040 C 
ENDROOT
BRANCH   1  14
HETATM   14  N1  UNL     1     124.528 106.396 -42.487  1.00  0.00    -0.354 N 
HETATM   15  C1  UNL     1     124.936 105.712 -41.319  1.00  0.00     0.218 C 
HETATM   16  O1  UNL     1     125.497 106.355 -40.403  1.00  0.00    -0.274 OA
ATOM     17  H1  UNL     1     124.069 105.892 -43.245  1.00  0.00     0.162 HD
BRANCH  15  18
HETATM   18  C2  UNL     1     124.714 104.240 -41.153  1.00  0.00     0.107 C 
BRANCH  18  19
HETATM   19  C3  UNL     1     125.928 103.510 -41.620  1.00  0.00    -0.006 A 
HETATM   20  C4  UNL     1     125.898 102.600 -42.785  1.00  0.00     0.005 A 
HETATM   21  C5  UNL     1     125.904 102.012 -41.394  1.00  0.00     0.005 A 
ENDBRANCH  18  19
ENDBRANCH  15  18
ENDBRANCH   1  14
TORSDOF 3
ENDMDL
MODEL 2
REMARK VINA RESULT: -5.451460731      1.878      2.578
REMARK  3 active torsions:
REMARK  status: ('A' for Active; 'I' for Inactive)
REMARK    1  A    between atoms: C1_2  and  C2_3 
REMARK       I    between atoms: C1_2  and  N1_7 
REMARK    2  A    between atoms: C2_3  and  C3_4 
REMARK    3  A    between atoms: N1_7  and  C6_9 
ROOT
HETATM    1  C6  UNL     1     124.527 106.998 -44.136  1.00  0.00     0.115 C 
HETATM    2  C7  UNL     1     123.177 107.531 -44.388  1.00  0.00     0.032 C 
HETATM    3  C8  UNL     1     122.908 108.958 -44.097  1.00  0.00    -0.010 C 
HETATM    4  C9  UNL     1     122.773 109.269 -42.628  1.00  0.00     0.009 C 
HETATM    5  C10 UNL     1     124.106 109.544 -41.976  1.00  0.00    -0.010 C 
HETATM    6  C11 UNL     1     124.884 110.618 -42.693  1.00  0.00     0.037 C 
HETATM    7  C12 UNL     1     125.136 110.124 -44.099  1.00  0.00     0.187 C 
HETATM    8  C13 UNL     1     123.823 109.930 -44.778  1.00  0.00     0.037 C 
HETATM    9  N2  UNL     1     125.966 108.942 -44.117  1.00  0.00    -0.065 N 
ATOM     10  H21 UNL     1     126.922 109.165 -43.842  1.00  0.00     0.278 HD
ATOM     11  H22 UNL     1     126.136 108.632 -45.074  1.00  0.00     0.278 HD
HETATM   12  C14 UNL     1     125.439 107.869 -43.316  1.00  0.00     0.209 C 
HETATM   13  C15 UNL     1     124.895 108.283 -41.993  1.00  0.00     0.040 C 
ENDROOT
BRANCH   1  14
HETATM   14  N1  UNL     1     124.480 105.709 -43.492  1.00  0.00    -0.354 N 
HETATM   15  C1  UNL     1     124.781 104.549 -44.242  1.00  0.00     0.218 C 
HETATM   16  O1  UNL     1     125.082 104.668 -45.451  1.00  0.00    -0.274 OA
ATOM     17  H1  UNL     1     124.233 105.635 -42.506  1.00  0.00     0.162 HD
BRANCH  15  18
HETATM   18  C2  UNL     1     124.749 103.185 -43.624  1.00  0.00     0.107 C 
BRANCH  18  19
HETATM   19  C3  UNL     1     124.998 103.309 -42.159  1.00  0.00    -0.006 A 
HETATM   20  C4  UNL     1     126.363 103.304 -41.591  1.00  0.00     0.005 A 
HETATM   21  C5  UNL     1     125.520 102.056 -41.486  1.00  0.00     0.005 A 
ENDBRANCH  18  19
ENDBRANCH  15  18
ENDBRANCH   1  14
TORSDOF 3
ENDMDL
MODEL 3
REMARK VINA RESULT: -5.433585481      2.273      3.106
REMARK  3 active torsions:
REMARK  status: ('A' for Active; 'I' for Inactive)
REMARK    1  A    between atoms: C1_2  and  C2_3 
REMARK       I    between atoms: C1_2  and  N1_7 
REMARK    2  A    between atoms: C2_3  and  C3_4 
REMARK    3  A    between atoms: N1_7  and  C6_9 
ROOT
HETATM    1  C6  UNL     1     124.382 106.107 -45.070  1.00  0.00     0.115 C 
HETATM    2  C7  UNL     1     122.931 106.340 -45.177  1.00  0.00     0.032 C 
HETATM    3  C8  UNL     1     122.425 107.730 -45.109  1.00  0.00    -0.010 C 
HETATM    4  C9  UNL     1     122.433 108.317 -43.721  1.00  0.00     0.009 C 
HETATM    5  C10 UNL     1     123.760 108.944 -43.371  1.00  0.00    -0.010 C 
HETATM    6  C11 UNL     1     124.203 109.958 -44.396  1.00  0.00     0.037 C 
HETATM    7  C12 UNL     1     124.355 109.226 -45.710  1.00  0.00     0.187 C 
HETATM    8  C13 UNL     1     123.027 108.675 -46.104  1.00  0.00     0.037 C 
HETATM    9  N2  UNL     1     125.393 108.225 -45.656  1.00  0.00    -0.065 N 
ATOM     10  H21 UNL     1     126.314 108.659 -45.596  1.00  0.00     0.278 HD
ATOM     11  H22 UNL     1     125.490 107.752 -46.555  1.00  0.00     0.278 HD
HETATM   12  C14 UNL     1     125.205 107.272 -44.593  1.00  0.00     0.209 C 
HETATM   13  C15 UNL     1     124.775 107.859 -43.295  1.00  0.00     0.040 C 
ENDROOT
BRANCH   1  14
HETATM   14  N1  UNL     1     124.682 104.995 -44.203  1.00  0.00    -0.354 N 
HETATM   15  C1  UNL     1     124.693 103.685 -44.735  1.00  0.00     0.218 C 
HETATM   16  O1  UNL     1     124.441 103.521 -45.951  1.00  0.00    -0.274 OA
ATOM     17  H1  UNL     1     124.884 105.150 -43.216  1.00  0.00     0.162 HD
BRANCH  15  18
HETATM   18  C2  UNL     1     124.997 102.493 -43.882  1.00  0.00     0.107 C 
BRANCH  18  19
HETATM   19  C3  UNL     1     125.417 102.959 -42.529  1.00  0.00    -0.006 A 
HETATM   20  C4  UNL     1     126.711 102.569 -41.930  1.00  0.00     0.005 A 
HETATM   21  C5  UNL     1     125.450 101.886 -41.459  1.00  0.00     0.005 A 
ENDBRANCH  18  19
ENDBRANCH  15  18
ENDBRANCH   1  14
TORSDOF 3
ENDMDL
MODEL 4
REMARK VINA RESULT: -5.325026500      1.650      2.604
REMARK  3 active torsions:
REMARK  status: ('A' for Active; 'I' for Inactive)
REMARK    1  A    between atoms: C1_2  and  C2_3 
REMARK       I    between atoms: C1_2  and  N1_7 
REMARK    2  A    between atoms: C2_3  and  C3_4 
REMARK    3  A    between atoms: N1_7  and  C6_9 
ROOT
HETATM    1  C6  UNL     1     124.486 108.319 -42.419  1.00  0.00     0.115 C 
HETATM    2  C7  UNL     1     123.083 108.760 -42.499  1.00  0.00     0.032 C 
HETATM    3  C8  UNL     1     122.788 110.211 -42.458  1.00  0.00    -0.010 C 
HETATM    4  C9  UNL     1     122.919 110.823 -41.087  1.00  0.00     0.009 C 
HETATM    5  C10 UNL     1     124.334 111.256 -40.786  1.00  0.00    -0.010 C 
HETATM    6  C11 UNL     1     124.892 112.168 -41.849  1.00  0.00     0.037 C 
HETATM    7  C12 UNL     1     124.899 111.391 -43.145  1.00  0.00     0.187 C 
HETATM    8  C13 UNL     1     123.495 111.033 -43.493  1.00  0.00     0.037 C 
HETATM    9  N2  UNL     1     125.781 110.249 -43.088  1.00  0.00    -0.065 N 
ATOM     10  H21 UNL     1     126.756 110.544 -43.062  1.00  0.00     0.278 HD
ATOM     11  H22 UNL     1     125.783 109.746 -43.975  1.00  0.00     0.278 HD
HETATM   12  C14 UNL     1     125.484 109.361 -41.995  1.00  0.00     0.209 C 
HETATM   13  C15 UNL     1     125.180 110.036 -40.703  1.00  0.00     0.040 C 
ENDROOT
BRANCH   1  14
HETATM   14  N1  UNL     1     124.643 107.195 -41.529  1.00  0.00    -0.354 N 
HETATM   15  C1  UNL     1     124.717 105.890 -42.067  1.00  0.00     0.218 C 
HETATM   16  O1  UNL     1     124.644 105.739 -43.308  1.00  0.00    -0.274 OA
ATOM     17  H1  UNL     1     124.700 107.340 -40.522  1.00  0.00     0.162 HD
BRANCH  15  18
HETATM   18  C2  UNL     1     124.879 104.687 -41.190  1.00  0.00     0.107 C 
BRANCH  18  19
HETATM   19  C3  UNL     1     125.510 103.591 -41.981  1.00  0.00    -0.006 A 
HETATM   20  C4  UNL     1     125.396 102.171 -41.586  1.00  0.00     0.005 A 
HETATM   21  C5  UNL     1     126.685 102.907 -41.310  1.00  0.00     0.005 A 
ENDBRANCH  18  19
ENDBRANCH  15  18
ENDBRANCH   1  14
TORSDOF 3
ENDMDL
MODEL 5
REMARK VINA RESULT: -5.180627865      2.519      3.353
REMARK  3 active torsions:
REMARK  status: ('A' for Active; 'I' for Inactive)
REMARK    1  A    between atoms: C1_2  and  C2_3 
REMARK       I    between atoms: C1_2  and  N1_7 
REMARK    2  A    between atoms: C2_3  and  C3_4 
REMARK    3  A    between atoms: N1_7  and  C6_9 
ROOT
HETATM    1  C6  UNL     1     123.740 107.446 -44.585  1.00  0.00     0.115 C 
HETATM    2  C7  UNL     1     123.389 107.776 -43.193  1.00  0.00     0.032 C 
HETATM    3  C8  UNL     1     123.622 109.155 -42.705  1.00  0.00    -0.010 C 
HETATM    4  C9  UNL     1     125.071 109.469 -42.431  1.00  0.00     0.009 C 
HETATM    5  C10 UNL     1     125.797 109.945 -43.665  1.00  0.00    -0.010 C 
HETATM    6  C11 UNL     1     125.101 111.106 -44.329  1.00  0.00     0.037 C 
HETATM    7  C12 UNL     1     123.728 110.627 -44.741  1.00  0.00     0.187 C 
HETATM    8  C13 UNL     1     122.974 110.235 -43.517  1.00  0.00     0.037 C 
HETATM    9  N2  UNL     1     123.795 109.577 -45.730  1.00  0.00    -0.065 N 
ATOM     10  H21 UNL     1     124.124 109.939 -46.624  1.00  0.00     0.278 HD
ATOM     11  H22 UNL     1     122.860 109.276 -46.005  1.00  0.00     0.278 HD
HETATM   12  C14 UNL     1     124.591 108.454 -45.308  1.00  0.00     0.209 C 
HETATM   13  C15 UNL     1     125.865 108.810 -44.624  1.00  0.00     0.040 C 
ENDROOT
BRANCH   1  14
HETATM   14  N1  UNL     1     124.415 106.176 -44.679  1.00  0.00    -0.354 N 
HETATM   15  C1  UNL     1     124.013 105.249 -45.668  1.00  0.00     0.218 C 
HETATM   16  O1  UNL     1     123.077 105.554 -46.441  1.00  0.00    -0.274 OA
ATOM     17  H1  UNL     1     125.175 105.948 -44.039  1.00  0.00     0.162 HD
BRANCH  15  18
HETATM   18  C2  UNL     1     124.679 103.915 -45.811  1.00  0.00     0.107 C 
BRANCH  18  19
HETATM   19  C3  UNL     1     124.485 103.139 -44.552  1.00  0.00    -0.006 A 
HETATM   20  C4  UNL     1     125.609 102.817 -43.646  1.00  0.00     0.005 A 
HETATM   21  C5  UNL     1     125.074 101.742 -44.561  1.00  0.00     0.005 A 
ENDBRANCH  18  19
ENDBRANCH  15  18
ENDBRANCH   1  14
TORSDOF 3
ENDMDL
