MODEL 1
REMARK VINA RESULT: -5.683420359      0.000      0.000
REMARK  3 active torsions:
REMARK  status: ('A' for Active; 'I' for Inactive)
REMARK       I    between atoms: C1_2  and  N1_3 
REMARK    1  A    between atoms: C1_2  and  C6_9 
REMARK    2  A    between atoms: N1_3  and  C2_5 
REMARK    3  A    between atoms: C2_5  and  C3_6 
ROOT
HETATM    1  C6  UNL     1     124.352 106.867 -44.136  1.00  0.00     0.042 C 
HETATM    2  C7  UNL     1     123.057 107.256 -44.746  1.00  0.00     0.020 C 
HETATM    3  C8  UNL     1     122.288 108.287 -43.972  1.00  0.00     0.006 C 
HETATM    4  C9  UNL     1     123.022 109.556 -43.742  1.00  0.00    -0.014 C 
HETATM    5  C10 UNL     1     124.204 109.770 -44.642  1.00  0.00     0.010 C 
HETATM    6  C11 UNL     1     125.324 109.014 -43.978  1.00  0.00    -0.009 C 
HETATM    7  C12 UNL     1     125.507 107.712 -44.691  1.00  0.00     0.024 C 
HETATM    8  C13 UNL     1     124.858 108.640 -42.605  1.00  0.00    -0.009 C 
HETATM    9  C14 UNL     1     123.645 109.513 -42.360  1.00  0.00     0.010 C 
HETATM   10  C15 UNL     1     124.449 107.181 -42.665  1.00  0.00     0.024 C 
ENDROOT
BRANCH   1  11
HETATM   11  C1  UNL     1     124.661 105.464 -44.448  1.00  0.00     0.226 C 
HETATM   12  O1  UNL     1     124.888 105.134 -45.642  1.00  0.00    -0.273 OA
HETATM   13  N1  UNL     1     124.723 104.431 -43.479  1.00  0.00    -0.360 N 
ATOM     14  H1  UNL     1     124.542 104.672 -42.504  1.00  0.00     0.162 HD
BRANCH  13  15
HETATM   15  C2  UNL     1     125.027 103.063 -43.796  1.00  0.00     0.127 C 
BRANCH  15  16
HETATM   16  C3  UNL     1     126.118 102.506 -42.885  1.00  0.00     0.003 A 
HETATM   17  C4  UNL     1     126.297 103.193 -41.537  1.00  0.00     0.007 A 
HETATM   18  C5  UNL     1     125.569 101.915 -41.587  1.00  0.00     0.007 A 
ENDBRANCH  15  16
ENDBRANCH  13  15
ENDBRANCH   1  11
TORSDOF 3
ENDMDL
MODEL 2
REMARK VINA RESULT: -5.662155736      1.949      2.836
REMARK  3 active torsions:
REMARK  status: ('A' for Active; 'I' for Inactive)
REMARK       I    between atoms: C1_2  and  N1_3 
REMARK    1  A    between atoms: C1_2  and  C6_9 
REMARK    2  A    between atoms: N1_3  and  C2_5 
REMARK    3  A    between atoms: C2_5  and  C3_6 
ROOT
HETATM    1  C6  UNL     1     124.766 108.206 -42.375  1.00  0.00     0.042 C 
HETATM    2  C7  UNL     1     125.072 109.431 -41.597  1.00  0.00     0.020 C 
HETATM    3  C8  UNL     1     125.516 110.601 -42.425  1.00  0.00     0.006 C 
HETATM    4  C9  UNL     1     124.545 111.020 -43.466  1.00  0.00    -0.014 C 
HETATM    5  C10 UNL     1     123.148 110.509 -43.264  1.00  0.00     0.010 C 
HETATM    6  C11 UNL     1     123.167 109.123 -43.853  1.00  0.00    -0.009 C 
HETATM    7  C12 UNL     1     123.275 108.133 -42.736  1.00  0.00     0.024 C 
HETATM    8  C13 UNL     1     124.444 108.980 -44.620  1.00  0.00    -0.009 C 
HETATM    9  C14 UNL     1     124.952 110.397 -44.788  1.00  0.00     0.010 C 
HETATM   10  C15 UNL     1     125.393 108.184 -43.746  1.00  0.00     0.024 C 
ENDROOT
BRANCH   1  11
HETATM   11  C1  UNL     1     125.071 107.007 -41.581  1.00  0.00     0.226 C 
HETATM   12  O1  UNL     1     125.713 107.127 -40.505  1.00  0.00    -0.273 OA
HETATM   13  N1  UNL     1     124.687 105.694 -41.950  1.00  0.00    -0.360 N 
ATOM     14  H1  UNL     1     124.167 105.568 -42.818  1.00  0.00     0.162 HD
BRANCH  13  15
HETATM   15  C2  UNL     1     124.991 104.529 -41.166  1.00  0.00     0.127 C 
BRANCH  15  16
HETATM   16  C3  UNL     1     125.630 103.433 -42.015  1.00  0.00     0.003 A 
HETATM   17  C4  UNL     1     126.825 102.709 -41.408  1.00  0.00     0.007 A 
HETATM   18  C5  UNL     1     125.513 102.045 -41.389  1.00  0.00     0.007 A 
ENDBRANCH  15  16
ENDBRANCH  13  15
ENDBRANCH   1  11
TORSDOF 3
ENDMDL
MODEL 3
REMARK VINA RESULT: -5.613623579      0.561      1.645
REMARK  3 active torsions:
REMARK  status: ('A' for Active; 'I' for Inactive)
REMARK       I    between atoms: C1_2  and  N1_3 
REMARK    1  A    between atoms: C1_2  and  C6_9 
REMARK    2  A    between atoms: N1_3  and  C2_5 
REMARK    3  A    between atoms: C2_5  and  C3_6 
ROOT
HETATM    1  C6  UNL     1     124.490 107.003 -44.180  1.00  0.00     0.042 C 
HETATM    2  C7  UNL     1     125.506 107.796 -44.915  1.00  0.00     0.020 C 
HETATM    3  C8  UNL     1     125.047 109.163 -45.329  1.00  0.00     0.006 C 
HETATM    4  C9  UNL     1     124.597 110.026 -44.209  1.00  0.00    -0.014 C 
HETATM    5  C10 UNL     1     125.048 109.577 -42.850  1.00  0.00     0.010 C 
HETATM    6  C11 UNL     1     124.037 108.538 -42.443  1.00  0.00    -0.009 C 
HETATM    7  C12 UNL     1     124.632 107.183 -42.662  1.00  0.00     0.024 C 
HETATM    8  C13 UNL     1     122.898 108.620 -43.411  1.00  0.00    -0.009 C 
HETATM    9  C14 UNL     1     123.085 109.949 -44.113  1.00  0.00     0.010 C 
HETATM   10  C15 UNL     1     123.075 107.479 -44.393  1.00  0.00     0.024 C 
ENDROOT
BRANCH   1  11
HETATM   11  C1  UNL     1     124.664 105.569 -44.457  1.00  0.00     0.226 C 
HETATM   12  O1  UNL     1     124.793 105.182 -45.648  1.00  0.00    -0.273 OA
HETATM   13  N1  UNL     1     124.697 104.567 -43.454  1.00  0.00    -0.360 N 
ATOM     14  H1  UNL     1     124.594 104.854 -42.481  1.00  0.00     0.162 HD
BRANCH  13  15
HETATM   15  C2  UNL     1     124.868 103.169 -43.737  1.00  0.00     0.127 C 
BRANCH  15  16
HETATM   16  C3  UNL     1     126.002 102.566 -42.911  1.00  0.00     0.003 A 
HETATM   17  C4  UNL     1     126.251 103.182 -41.541  1.00  0.00     0.007 A 
HETATM   18  C5  UNL     1     125.518 101.909 -41.620  1.00  0.00     0.007 A 
ENDBRANCH  15  16
ENDBRANCH  13  15
ENDBRANCH   1  11
TORSDOF 3
ENDMDL
MODEL 4
REMARK VINA RESULT: -5.613101120      1.555      2.146
REMARK  3 active torsions:
REMARK  status: ('A' for Active; 'I' for Inactive)
REMARK       I    between atoms: C1_2  and  N1_3 
REMARK    1  A    between atoms: C1_2  and  C6_9 
REMARK    2  A    between atoms: N1_3  and  C2_5 
REMARK    3  A    between atoms: C2_5  and  C3_6 
ROOT
HETATM    1  C6  UNL     1     124.298 107.450 -43.167  1.00  0.00     0.042 C 
HETATM    2  C7  UNL     1     124.041 106.674 -44.405  1.00  0.00     0.020 C 
HETATM    3  C8  UNL     1     122.862 107.147 -45.203  1.00  0.00     0.006 C 
HETATM    4  C9  UNL     1     122.939 108.567 -45.629  1.00  0.00    -0.014 C 
HETATM    5  C10 UNL     1     124.312 109.168 -45.566  1.00  0.00     0.010 C 
HETATM    6  C11 UNL     1     124.469 109.599 -44.132  1.00  0.00    -0.009 C 
HETATM    7  C12 UNL     1     125.303 108.582 -43.419  1.00  0.00     0.024 C 
HETATM    8  C13 UNL     1     123.121 109.512 -43.489  1.00  0.00    -0.009 C 
HETATM    9  C14 UNL     1     122.149 109.411 -44.647  1.00  0.00     0.010 C 
HETATM   10  C15 UNL     1     123.104 108.230 -42.679  1.00  0.00     0.024 C 
ENDROOT
BRANCH   1  11
HETATM   11  C1  UNL     1     124.883 106.583 -42.134  1.00  0.00     0.226 C 
HETATM   12  O1  UNL     1     125.539 107.102 -41.193  1.00  0.00    -0.273 OA
HETATM   13  N1  UNL     1     124.759 105.171 -42.121  1.00  0.00    -0.360 N 
ATOM     14  H1  UNL     1     124.234 104.725 -42.873  1.00  0.00     0.162 HD
BRANCH  13  15
HETATM   15  C2  UNL     1     125.335 104.334 -41.105  1.00  0.00     0.127 C 
BRANCH  15  16
HETATM   16  C3  UNL     1     125.412 102.877 -41.556  1.00  0.00     0.003 A 
HETATM   17  C4  UNL     1     126.225 102.594 -42.813  1.00  0.00     0.007 A 
HETATM   18  C5  UNL     1     126.828 102.307 -41.501  1.00  0.00     0.007 A 
ENDBRANCH  15  16
ENDBRANCH  13  15
ENDBRANCH   1  11
TORSDOF 3
ENDMDL
MODEL 5
REMARK VINA RESULT: -5.599765466      1.952      2.578
REMARK  3 active torsions:
REMARK  status: ('A' for Active; 'I' for Inactive)
REMARK       I    between atoms: C1_2  and  N1_3 
REMARK    1  A    between atoms: C1_2  and  C6_9 
REMARK    2  A    between atoms: N1_3  and  C2_5 
REMARK    3  A    between atoms: C2_5  and  C3_6 
ROOT
HETATM    1  C6  UNL     1     124.717 108.116 -42.442  1.00  0.00     0.042 C 
HETATM    2  C7  UNL     1     125.536 108.153 -43.678  1.00  0.00     0.020 C 
HETATM    3  C8  UNL     1     124.846 108.760 -44.865  1.00  0.00     0.006 C 
HETATM    4  C9  UNL     1     124.374 110.151 -44.655  1.00  0.00    -0.014 C 
HETATM    5  C10 UNL     1     125.004 110.859 -43.492  1.00  0.00     0.010 C 
HETATM    6  C11 UNL     1     124.197 110.416 -42.301  1.00  0.00    -0.009 C 
HETATM    7  C12 UNL     1     124.965 109.358 -41.573  1.00  0.00     0.024 C 
HETATM    8  C13 UNL     1     122.978 109.720 -42.820  1.00  0.00    -0.009 C 
HETATM    9  C14 UNL     1     122.904 110.113 -44.281  1.00  0.00     0.010 C 
HETATM   10  C15 UNL     1     123.235 108.232 -42.691  1.00  0.00     0.024 C 
ENDROOT
BRANCH   1  11
HETATM   11  C1  UNL     1     125.077 106.947 -41.626  1.00  0.00     0.226 C 
HETATM   12  O1  UNL     1     125.742 107.113 -40.570  1.00  0.00    -0.273 OA
HETATM   13  N1  UNL     1     124.720 105.614 -41.952  1.00  0.00    -0.360 N 
ATOM     14  H1  UNL     1     124.182 105.452 -42.803  1.00  0.00     0.162 HD
BRANCH  13  15
HETATM   15  C2  UNL     1     125.077 104.479 -41.146  1.00  0.00     0.127 C 
BRANCH  15  16
HETATM   16  C3  UNL     1     125.703 103.370 -41.988  1.00  0.00     0.003 A 
HETATM   17  C4  UNL     1     126.880 102.626 -41.371  1.00  0.00     0.007 A 
HETATM   18  C5  UNL     1     125.556 101.985 -41.359  1.00  0.00     0.007 A 
ENDBRANCH  15  16
ENDBRANCH  13  15
ENDBRANCH   1  11
TORSDOF 3
ENDMDL
