MODEL 1
REMARK VINA RESULT: -5.641585380      0.000      0.000
REMARK  3 active torsions:
REMARK  status: ('A' for Active; 'I' for Inactive)
REMARK    1  A    between atoms: C1_2  and  C2_3 
REMARK       I    between atoms: C1_2  and  N1_7 
REMARK    2  A    between atoms: C2_3  and  C3_4 
REMARK    3  A    between atoms: N1_7  and  C6_9 
ROOT
HETATM    1  C6  UNL     1     124.485 107.941 -42.528  1.00  0.00     0.092 C 
HETATM    2  C7  UNL     1     125.344 108.296 -43.726  1.00  0.00     0.009 C 
HETATM    3  C8  UNL     1     125.653 109.775 -43.618  1.00  0.00     0.011 C 
HETATM    4  C9  UNL     1     124.375 110.563 -43.618  1.00  0.00    -0.013 C 
HETATM    5  C10 UNL     1     123.700 110.346 -44.956  1.00  0.00     0.009 C 
HETATM    6  C11 UNL     1     123.378 108.884 -45.077  1.00  0.00    -0.013 C 
HETATM    7  C12 UNL     1     124.649 108.059 -45.029  1.00  0.00     0.011 C 
HETATM    8  C13 UNL     1     122.482 108.392 -43.976  1.00  0.00     0.011 C 
HETATM    9  C14 UNL     1     123.153 108.605 -42.652  1.00  0.00     0.009 C 
HETATM   10  C15 UNL     1     123.411 110.116 -42.538  1.00  0.00     0.011 C 
ENDROOT
BRANCH   1  11
HETATM   11  N1  UNL     1     124.438 106.546 -42.264  1.00  0.00    -0.356 N 
HETATM   12  C1  UNL     1     125.026 105.900 -41.131  1.00  0.00     0.218 C 
HETATM   13  O1  UNL     1     125.613 106.701 -40.351  1.00  0.00    -0.274 OA
ATOM     14  H1  UNL     1     123.945 105.958 -42.938  1.00  0.00     0.162 HD
BRANCH  12  15
HETATM   15  C2  UNL     1     124.907 104.458 -40.976  1.00  0.00     0.107 C 
BRANCH  15  16
HETATM   16  C3  UNL     1     125.642 103.572 -41.888  1.00  0.00    -0.006 A 
HETATM   17  C4  UNL     1     126.629 102.565 -41.430  1.00  0.00     0.005 A 
HETATM   18  C5  UNL     1     125.400 102.168 -42.201  1.00  0.00     0.005 A 
ENDBRANCH  15  16
ENDBRANCH  12  15
ENDBRANCH   1  11
TORSDOF 3
ENDMDL
MODEL 2
REMARK VINA RESULT: -5.393401519      2.450      3.365
REMARK  3 active torsions:
REMARK  status: ('A' for Active; 'I' for Inactive)
REMARK    1  A    between atoms: C1_2  and  C2_3 
REMARK       I    between atoms: C1_2  and  N1_7 
REMARK    2  A    between atoms: C2_3  and  C3_4 
REMARK    3  A    between atoms: N1_7  and  C6_9 
ROOT
HETATM    1  C6  UNL     1     123.765 107.290 -44.439  1.00  0.00     0.092 C 
HETATM    2  C7  UNL     1     123.565 107.630 -42.974  1.00  0.00     0.009 C 
HETATM    3  C8  UNL     1     122.631 108.822 -42.927  1.00  0.00     0.011 C 
HETATM    4  C9  UNL     1     123.240 109.975 -43.671  1.00  0.00    -0.013 C 
HETATM    5  C10 UNL     1     124.507 110.375 -42.945  1.00  0.00     0.009 C 
HETATM    6  C11 UNL     1     125.450 109.207 -42.989  1.00  0.00    -0.013 C 
HETATM    7  C12 UNL     1     124.839 108.010 -42.288  1.00  0.00     0.011 C 
HETATM    8  C13 UNL     1     125.786 108.782 -44.391  1.00  0.00     0.011 C 
HETATM    9  C14 UNL     1     124.531 108.385 -45.107  1.00  0.00     0.009 C 
HETATM   10  C15 UNL     1     123.618 109.621 -45.095  1.00  0.00     0.011 C 
ENDROOT
BRANCH   1  11
HETATM   11  N1  UNL     1     124.282 105.983 -44.646  1.00  0.00    -0.356 N 
HETATM   12  C1  UNL     1     123.927 105.117 -45.728  1.00  0.00     0.218 C 
HETATM   13  O1  UNL     1     123.084 105.628 -46.518  1.00  0.00    -0.274 OA
ATOM     14  H1  UNL     1     124.960 105.634 -43.968  1.00  0.00     0.162 HD
BRANCH  12  15
HETATM   15  C2  UNL     1     124.529 103.796 -45.828  1.00  0.00     0.107 C 
BRANCH  15  16
HETATM   16  C3  UNL     1     124.577 102.935 -44.640  1.00  0.00    -0.006 A 
HETATM   17  C4  UNL     1     125.077 101.539 -44.663  1.00  0.00     0.005 A 
HETATM   18  C5  UNL     1     125.718 102.590 -43.799  1.00  0.00     0.005 A 
ENDBRANCH  15  16
ENDBRANCH  12  15
ENDBRANCH   1  11
TORSDOF 3
ENDMDL
MODEL 3
REMARK VINA RESULT: -5.321038792      1.797      2.695
REMARK  3 active torsions:
REMARK  status: ('A' for Active; 'I' for Inactive)
REMARK    1  A    between atoms: C1_2  and  C2_3 
REMARK       I    between atoms: C1_2  and  N1_7 
REMARK    2  A    between atoms: C2_3  and  C3_4 
REMARK    3  A    between atoms: N1_7  and  C6_9 
ROOT
HETATM    1  C6  UNL     1     124.401 107.293 -44.188  1.00  0.00     0.092 C 
HETATM    2  C7  UNL     1     123.014 107.905 -44.209  1.00  0.00     0.009 C 
HETATM    3  C8  UNL     1     123.080 109.105 -45.130  1.00  0.00     0.011 C 
HETATM    4  C9  UNL     1     124.095 110.085 -44.617  1.00  0.00    -0.013 C 
HETATM    5  C10 UNL     1     123.614 110.584 -43.270  1.00  0.00     0.009 C 
HETATM    6  C11 UNL     1     123.549 109.407 -42.340  1.00  0.00    -0.013 C 
HETATM    7  C12 UNL     1     122.568 108.376 -42.861  1.00  0.00     0.011 C 
HETATM    8  C13 UNL     1     124.877 108.721 -42.177  1.00  0.00     0.011 C 
HETATM    9  C14 UNL     1     125.350 108.225 -43.509  1.00  0.00     0.009 C 
HETATM   10  C15 UNL     1     125.461 109.463 -44.415  1.00  0.00     0.011 C 
ENDROOT
BRANCH   1  11
HETATM   11  N1  UNL     1     124.419 105.959 -43.701  1.00  0.00    -0.356 N 
HETATM   12  C1  UNL     1     124.732 104.799 -44.479  1.00  0.00     0.218 C 
HETATM   13  O1  UNL     1     125.004 105.067 -45.683  1.00  0.00    -0.274 OA
ATOM     14  H1  UNL     1     124.189 105.816 -42.716  1.00  0.00     0.162 HD
BRANCH  12  15
HETATM   15  C2  UNL     1     124.715 103.483 -43.859  1.00  0.00     0.107 C 
BRANCH  15  16
HETATM   16  C3  UNL     1     124.854 103.372 -42.401  1.00  0.00    -0.006 A 
HETATM   17  C4  UNL     1     125.526 102.233 -41.729  1.00  0.00     0.005 A 
HETATM   18  C5  UNL     1     126.018 103.645 -41.565  1.00  0.00     0.005 A 
ENDBRANCH  15  16
ENDBRANCH  12  15
ENDBRANCH   1  11
TORSDOF 3
ENDMDL
MODEL 4
REMARK VINA RESULT: -5.273679008      1.926      2.881
REMARK  3 active torsions:
REMARK  status: ('A' for Active; 'I' for Inactive)
REMARK    1  A    between atoms: C1_2  and  C2_3 
REMARK       I    between atoms: C1_2  and  N1_7 
REMARK    2  A    between atoms: C2_3  and  C3_4 
REMARK    3  A    between atoms: N1_7  and  C6_9 
ROOT
HETATM    1  C6  UNL     1     124.025 107.038 -44.266  1.00  0.00     0.092 C 
HETATM    2  C7  UNL     1     123.517 107.800 -43.058  1.00  0.00     0.009 C 
HETATM    3  C8  UNL     1     122.536 108.833 -43.575  1.00  0.00     0.011 C 
HETATM    4  C9  UNL     1     123.227 109.752 -44.541  1.00  0.00    -0.013 C 
HETATM    5  C10 UNL     1     124.301 110.500 -43.779  1.00  0.00     0.009 C 
HETATM    6  C11 UNL     1     125.288 109.491 -43.264  1.00  0.00    -0.013 C 
HETATM    7  C12 UNL     1     124.605 108.518 -42.324  1.00  0.00     0.011 C 
HETATM    8  C13 UNL     1     125.921 108.685 -44.363  1.00  0.00     0.011 C 
HETATM    9  C14 UNL     1     124.858 107.943 -45.115  1.00  0.00     0.009 C 
HETATM   10  C15 UNL     1     123.902 109.009 -45.675  1.00  0.00     0.011 C 
ENDROOT
BRANCH   1  11
HETATM   11  N1  UNL     1     124.635 105.800 -43.932  1.00  0.00    -0.356 N 
HETATM   12  C1  UNL     1     124.457 104.573 -44.647  1.00  0.00     0.218 C 
HETATM   13  O1  UNL     1     123.683 104.683 -45.639  1.00  0.00    -0.274 OA
ATOM     14  H1  UNL     1     125.250 105.783 -43.118  1.00  0.00     0.162 HD
BRANCH  12  15
HETATM   15  C2  UNL     1     125.140 103.367 -44.202  1.00  0.00     0.107 C 
BRANCH  15  16
HETATM   16  C3  UNL     1     124.940 102.893 -42.826  1.00  0.00    -0.006 A 
HETATM   17  C4  UNL     1     126.045 102.419 -41.958  1.00  0.00     0.005 A 
HETATM   18  C5  UNL     1     125.185 103.590 -41.568  1.00  0.00     0.005 A 
ENDBRANCH  15  16
ENDBRANCH  12  15
ENDBRANCH   1  11
TORSDOF 3
ENDMDL
MODEL 5
REMARK VINA RESULT: -5.133446432      2.710      3.175
REMARK  3 active torsions:
REMARK  status: ('A' for Active; 'I' for Inactive)
REMARK    1  A    between atoms: C1_2  and  C2_3 
REMARK       I    between atoms: C1_2  and  N1_7 
REMARK    2  A    between atoms: C2_3  and  C3_4 
REMARK    3  A    between atoms: N1_7  and  C6_9 
ROOT
HETATM    1  C6  UNL     1     124.800 107.203 -44.477  1.00  0.00     0.092 C 
HETATM    2  C7  UNL     1     125.203 108.522 -45.106  1.00  0.00     0.009 C 
HETATM    3  C8  UNL     1     125.975 109.290 -44.052  1.00  0.00     0.011 C 
HETATM    4  C9  UNL     1     125.108 109.509 -42.846  1.00  0.00    -0.013 C 
HETATM    5  C10 UNL     1     123.943 110.380 -43.267  1.00  0.00     0.009 C 
HETATM    6  C11 UNL     1     123.161 109.631 -44.307  1.00  0.00    -0.013 C 
HETATM    7  C12 UNL     1     124.028 109.351 -45.518  1.00  0.00     0.011 C 
HETATM    8  C13 UNL     1     122.646 108.310 -43.808  1.00  0.00     0.011 C 
HETATM    9  C14 UNL     1     123.800 107.448 -43.394  1.00  0.00     0.009 C 
HETATM   10  C15 UNL     1     124.540 108.219 -42.290  1.00  0.00     0.011 C 
ENDROOT
BRANCH   1  11
HETATM   11  N1  UNL     1     124.424 106.219 -45.430  1.00  0.00    -0.356 N 
HETATM   12  C1  UNL     1     124.402 104.807 -45.194  1.00  0.00     0.218 C 
HETATM   13  O1  UNL     1     124.757 104.493 -44.023  1.00  0.00    -0.274 OA
ATOM     14  H1  UNL     1     124.147 106.544 -46.356  1.00  0.00     0.162 HD
BRANCH  12  15
HETATM   15  C2  UNL     1     123.995 103.900 -46.257  1.00  0.00     0.107 C 
BRANCH  15  16
HETATM   16  C3  UNL     1     124.789 102.692 -46.514  1.00  0.00    -0.006 A 
HETATM   17  C4  UNL     1     124.696 101.463 -45.690  1.00  0.00     0.005 A 
HETATM   18  C5  UNL     1     124.388 101.448 -47.162  1.00  0.00     0.005 A 
ENDBRANCH  15  16
ENDBRANCH  12  15
ENDBRANCH   1  11
TORSDOF 3
ENDMDL
