MODEL 1
REMARK VINA RESULT: -8.475739908      0.000      0.000
REMARK  8 active torsions:
REMARK  status: ('A' for Active; 'I' for Inactive)
REMARK    1  A    between atoms: C4_6  and  C5_7 
REMARK    2  A    between atoms: C5_7  and  N1_8 
REMARK    3  A    between atoms: C5_7  and  C15_23 
REMARK       I    between atoms: N1_8  and  C6_10 
REMARK    4  A    between atoms: C6_10  and  C7_12 
REMARK    5  A    between atoms: C7_12  and  N2_14 
REMARK       I    between atoms: N2_14  and  C9_16 
REMARK    6  A    between atoms: C9_16  and  C10_18 
REMARK    7  A    between atoms: C17_27  and  C18_28 
REMARK       I    between atoms: C18_28  and  N3_30 
REMARK    8  A    between atoms: N3_30  and  C19_32 
ROOT
HETATM    1  C5  UNL     1      14.025   8.664  25.560  1.00  0.00     0.162 C 
ENDROOT
BRANCH   1   2
HETATM    2  C4  UNL     1      13.196   7.411  25.505  1.00  0.00     0.152 C 
HETATM    3  O2  UNL     1      12.197   7.350  26.427  1.00  0.00    -0.351 OA
HETATM    4  C3  UNL     1      11.457   6.213  26.480  1.00  0.00     0.293 C 
HETATM    5  O1  UNL     1      10.206   6.483  25.923  1.00  0.00    -0.329 OA
HETATM    6  C23 UNL     1      11.938   5.088  25.622  1.00  0.00     0.193 C 
HETATM    7  C2  UNL     1      10.243   6.056  24.613  1.00  0.00     0.259 C 
HETATM    8  C1  UNL     1       8.984   5.281  24.331  1.00  0.00     0.071 C 
HETATM    9  O6  UNL     1      11.397   5.354  24.394  1.00  0.00    -0.351 OA
HETATM   10  C17 UNL     1      13.413   4.909  25.672  1.00  0.00     0.114 C 
HETATM   11  C16 UNL     1      14.095   6.203  25.419  1.00  0.00     0.051 C 
BRANCH  10  12
HETATM   12  C18 UNL     1      13.896   3.900  24.716  1.00  0.00     0.225 C 
HETATM   13  O5  UNL     1      13.396   2.750  24.743  1.00  0.00    -0.273 OA
HETATM   14  N3  UNL     1      14.911   4.170  23.755  1.00  0.00    -0.353 N 
ATOM     15  H3  UNL     1      15.324   5.103  23.726  1.00  0.00     0.163 HD
BRANCH  14  16
HETATM   16  C19 UNL     1      15.378   3.178  22.822  1.00  0.00     0.022 C 
HETATM   17  C20 UNL     1      14.322   2.165  22.453  1.00  0.00     0.037 C 
HETATM   18  C21 UNL     1      16.584   2.407  23.365  1.00  0.00     0.037 C 
HETATM   19  C22 UNL     1      15.795   3.870  21.544  1.00  0.00     0.037 C 
ENDBRANCH  14  16
ENDBRANCH  10  12
ENDBRANCH   1   2
BRANCH   1  20
HETATM   20  N1  UNL     1      15.240   8.425  26.326  1.00  0.00    -0.348 N 
HETATM   21  C6  UNL     1      15.837   9.367  27.165  1.00  0.00     0.240 C 
HETATM   22  O3  UNL     1      15.319  10.505  27.290  1.00  0.00    -0.271 OA
ATOM     23  H1  UNL     1      15.684   7.510  26.243  1.00  0.00     0.163 HD
BRANCH  21  24
HETATM   24  C7  UNL     1      17.078   9.015  27.901  1.00  0.00     0.172 C 
HETATM   25  C8  UNL     1      18.269   9.399  27.049  1.00  0.00     0.042 C 
BRANCH  24  26
HETATM   26  N2  UNL     1      17.136   9.683  29.195  1.00  0.00    -0.348 N 
HETATM   27  C9  UNL     1      16.551   9.107  30.354  1.00  0.00     0.222 C 
HETATM   28  O4  UNL     1      15.974   7.997  30.237  1.00  0.00    -0.273 OA
ATOM     29  H2  UNL     1      17.607  10.584  29.271  1.00  0.00     0.163 HD
BRANCH  27  30
HETATM   30  C10 UNL     1      16.600   9.764  31.658  1.00  0.00     0.078 C 
HETATM   31  C11 UNL     1      17.256   8.914  32.726  1.00  0.00     0.014 C 
HETATM   32  C12 UNL     1      17.386   9.943  33.856  1.00  0.00     0.001 C 
HETATM   33  C13 UNL     1      17.736  11.221  33.124  1.00  0.00     0.001 C 
HETATM   34  C14 UNL     1      17.490  10.990  31.668  1.00  0.00     0.014 C 
ENDBRANCH  27  30
ENDBRANCH  24  26
ENDBRANCH  21  24
ENDBRANCH   1  20
BRANCH   1  35
HETATM   35  C15 UNL     1      14.426   9.178  24.206  1.00  0.00     0.290 C 
HETATM   36  F1  UNL     1      15.682   8.759  23.825  1.00  0.00    -0.231 F 
HETATM   37 CL1  UNL     1      13.179   8.759  23.005  1.00  0.00    -0.087 Cl
ENDBRANCH   1  35
TORSDOF 8
ENDMDL
MODEL 2
REMARK VINA RESULT: -8.434640995      2.799      3.554
REMARK  8 active torsions:
REMARK  status: ('A' for Active; 'I' for Inactive)
REMARK    1  A    between atoms: C4_6  and  C5_7 
REMARK    2  A    between atoms: C5_7  and  N1_8 
REMARK    3  A    between atoms: C5_7  and  C15_23 
REMARK       I    between atoms: N1_8  and  C6_10 
REMARK    4  A    between atoms: C6_10  and  C7_12 
REMARK    5  A    between atoms: C7_12  and  N2_14 
REMARK       I    between atoms: N2_14  and  C9_16 
REMARK    6  A    between atoms: C9_16  and  C10_18 
REMARK    7  A    between atoms: C17_27  and  C18_28 
REMARK       I    between atoms: C18_28  and  N3_30 
REMARK    8  A    between atoms: N3_30  and  C19_32 
ROOT
HETATM    1  C5  UNL     1      15.337   6.397  25.524  1.00  0.00     0.162 C 
ENDROOT
BRANCH   1   2
HETATM    2  C4  UNL     1      13.901   6.056  25.806  1.00  0.00     0.152 C 
HETATM    3  O2  UNL     1      13.095   7.129  26.026  1.00  0.00    -0.351 OA
HETATM    4  C3  UNL     1      11.800   6.889  26.359  1.00  0.00     0.293 C 
HETATM    5  O1  UNL     1      11.004   7.187  25.253  1.00  0.00    -0.329 OA
HETATM    6  C23 UNL     1      11.454   5.457  26.609  1.00  0.00     0.193 C 
HETATM    7  C2  UNL     1      10.757   6.000  24.597  1.00  0.00     0.259 C 
HETATM    8  C1  UNL     1       9.291   5.942  24.259  1.00  0.00     0.071 C 
HETATM    9  O6  UNL     1      11.200   4.956  25.362  1.00  0.00    -0.351 OA
HETATM   10  C17 UNL     1      12.478   4.742  27.415  1.00  0.00     0.114 C 
HETATM   11  C16 UNL     1      13.826   4.949  26.828  1.00  0.00     0.051 C 
BRANCH  10  12
HETATM   12  C18 UNL     1      12.206   3.301  27.532  1.00  0.00     0.225 C 
HETATM   13  O5  UNL     1      12.423   2.560  26.542  1.00  0.00    -0.273 OA
HETATM   14  N3  UNL     1      11.704   2.703  28.722  1.00  0.00    -0.353 N 
ATOM     15  H3  UNL     1      11.525   3.298  29.532  1.00  0.00     0.163 HD
BRANCH  14  16
HETATM   16  C19 UNL     1      11.441   1.292  28.830  1.00  0.00     0.022 C 
HETATM   17  C20 UNL     1      10.196   0.862  28.092  1.00  0.00     0.037 C 
HETATM   18  C21 UNL     1      11.287   0.850  30.287  1.00  0.00     0.037 C 
HETATM   19  C22 UNL     1      12.600   0.533  28.223  1.00  0.00     0.037 C 
ENDBRANCH  14  16
ENDBRANCH  10  12
ENDBRANCH   1   2
BRANCH   1  20
HETATM   20  N1  UNL     1      16.146   6.171  26.713  1.00  0.00    -0.348 N 
HETATM   21  C6  UNL     1      17.210   6.985  27.105  1.00  0.00     0.240 C 
HETATM   22  O3  UNL     1      17.516   7.985  26.409  1.00  0.00    -0.271 OA
ATOM     23  H1  UNL     1      15.922   5.365  27.298  1.00  0.00     0.163 HD
BRANCH  21  24
HETATM   24  C7  UNL     1      17.969   6.661  28.340  1.00  0.00     0.172 C 
HETATM   25  C8  UNL     1      19.401   6.357  27.959  1.00  0.00     0.042 C 
BRANCH  24  26
HETATM   26  N2  UNL     1      17.914   7.757  29.300  1.00  0.00    -0.348 N 
HETATM   27  C9  UNL     1      16.699   8.125  29.937  1.00  0.00     0.222 C 
HETATM   28  O4  UNL     1      15.661   7.479  29.651  1.00  0.00    -0.273 OA
ATOM     29  H2  UNL     1      18.767   8.272  29.519  1.00  0.00     0.163 HD
BRANCH  27  30
HETATM   30  C10 UNL     1      16.629   9.221  30.901  1.00  0.00     0.078 C 
HETATM   31  C11 UNL     1      17.206   8.859  32.254  1.00  0.00     0.014 C 
HETATM   32  C12 UNL     1      17.223  10.239  32.923  1.00  0.00     0.001 C 
HETATM   33  C13 UNL     1      17.614  11.169  31.794  1.00  0.00     0.001 C 
HETATM   34  C14 UNL     1      17.494  10.403  30.516  1.00  0.00     0.014 C 
ENDBRANCH  27  30
ENDBRANCH  24  26
ENDBRANCH  21  24
ENDBRANCH   1  20
BRANCH   1  35
HETATM   35  C15 UNL     1      15.935   5.596  24.400  1.00  0.00     0.290 C 
HETATM   36  F1  UNL     1      15.036   4.722  23.830  1.00  0.00    -0.231 F 
HETATM   37 CL1  UNL     1      16.670   6.689  23.202  1.00  0.00    -0.087 Cl
ENDBRANCH   1  35
TORSDOF 8
ENDMDL
MODEL 3
REMARK VINA RESULT: -8.392642507      3.429      7.498
REMARK  8 active torsions:
REMARK  status: ('A' for Active; 'I' for Inactive)
REMARK    1  A    between atoms: C4_6  and  C5_7 
REMARK    2  A    between atoms: C5_7  and  N1_8 
REMARK    3  A    between atoms: C5_7  and  C15_23 
REMARK       I    between atoms: N1_8  and  C6_10 
REMARK    4  A    between atoms: C6_10  and  C7_12 
REMARK    5  A    between atoms: C7_12  and  N2_14 
REMARK       I    between atoms: N2_14  and  C9_16 
REMARK    6  A    between atoms: C9_16  and  C10_18 
REMARK    7  A    between atoms: C17_27  and  C18_28 
REMARK       I    between atoms: C18_28  and  N3_30 
REMARK    8  A    between atoms: N3_30  and  C19_32 
ROOT
HETATM    1  C5  UNL     1      13.842   6.749  26.280  1.00  0.00     0.162 C 
ENDROOT
BRANCH   1   2
HETATM    2  C4  UNL     1      15.046   7.423  26.877  1.00  0.00     0.152 C 
HETATM    3  O2  UNL     1      14.762   8.479  27.686  1.00  0.00    -0.351 OA
HETATM    4  C3  UNL     1      15.806   9.179  28.200  1.00  0.00     0.293 C 
HETATM    5  O1  UNL     1      15.923   8.855  29.552  1.00  0.00    -0.329 OA
HETATM    6  C23 UNL     1      17.155   8.803  27.677  1.00  0.00     0.193 C 
HETATM    7  C2  UNL     1      16.895   7.883  29.655  1.00  0.00     0.259 C 
HETATM    8  C1  UNL     1      17.814   8.250  30.790  1.00  0.00     0.071 C 
HETATM    9  O6  UNL     1      17.523   7.735  28.448  1.00  0.00    -0.351 OA
HETATM   10  C17 UNL     1      17.170   8.595  26.205  1.00  0.00     0.114 C 
HETATM   11  C16 UNL     1      16.083   7.665  25.809  1.00  0.00     0.051 C 
BRANCH  10  12
HETATM   12  C18 UNL     1      18.460   8.083  25.717  1.00  0.00     0.225 C 
HETATM   13  O5  UNL     1      19.050   8.701  24.798  1.00  0.00    -0.273 OA
HETATM   14  N3  UNL     1      19.075   6.911  26.241  1.00  0.00    -0.353 N 
ATOM     15  H3  UNL     1      18.603   6.401  26.988  1.00  0.00     0.163 HD
BRANCH  14  16
HETATM   16  C19 UNL     1      20.338   6.416  25.758  1.00  0.00     0.022 C 
HETATM   17  C20 UNL     1      21.468   7.401  25.933  1.00  0.00     0.037 C 
HETATM   18  C21 UNL     1      20.276   6.047  24.274  1.00  0.00     0.037 C 
HETATM   19  C22 UNL     1      20.706   5.175  26.540  1.00  0.00     0.037 C 
ENDBRANCH  14  16
ENDBRANCH  10  12
ENDBRANCH   1   2
BRANCH   1  20
HETATM   20  N1  UNL     1      14.075   5.315  26.177  1.00  0.00    -0.348 N 
HETATM   21  C6  UNL     1      14.255   4.633  24.972  1.00  0.00     0.240 C 
HETATM   22  O3  UNL     1      14.218   5.268  23.888  1.00  0.00    -0.271 OA
ATOM     23  H1  UNL     1      14.109   4.773  27.041  1.00  0.00     0.163 HD
BRANCH  21  24
HETATM   24  C7  UNL     1      14.487   3.167  24.983  1.00  0.00     0.172 C 
HETATM   25  C8  UNL     1      15.876   2.895  24.449  1.00  0.00     0.042 C 
BRANCH  24  26
HETATM   26  N2  UNL     1      14.335   2.616  26.325  1.00  0.00    -0.348 N 
HETATM   27  C9  UNL     1      13.079   2.154  26.799  1.00  0.00     0.222 C 
HETATM   28  O4  UNL     1      12.090   2.234  26.029  1.00  0.00    -0.273 OA
ATOM     29  H2  UNL     1      15.150   2.561  26.936  1.00  0.00     0.163 HD
BRANCH  27  30
HETATM   30  C10 UNL     1      12.911   1.599  28.140  1.00  0.00     0.078 C 
HETATM   31  C11 UNL     1      11.460   1.365  28.508  1.00  0.00     0.014 C 
HETATM   32  C12 UNL     1      11.632   0.568  29.808  1.00  0.00     0.001 C 
HETATM   33  C13 UNL     1      12.830  -0.311  29.521  1.00  0.00     0.001 C 
HETATM   34  C14 UNL     1      13.480   0.202  28.277  1.00  0.00     0.014 C 
ENDBRANCH  27  30
ENDBRANCH  24  26
ENDBRANCH  21  24
ENDBRANCH   1  20
BRANCH   1  35
HETATM   35  C15 UNL     1      12.583   6.956  27.074  1.00  0.00     0.290 C 
HETATM   36  F1  UNL     1      11.591   7.580  26.351  1.00  0.00    -0.231 F 
HETATM   37 CL1  UNL     1      12.042   5.407  27.768  1.00  0.00    -0.087 Cl
ENDBRANCH   1  35
TORSDOF 8
ENDMDL
MODEL 4
REMARK VINA RESULT: -8.364870218      3.335      8.647
REMARK  8 active torsions:
REMARK  status: ('A' for Active; 'I' for Inactive)
REMARK    1  A    between atoms: C4_6  and  C5_7 
REMARK    2  A    between atoms: C5_7  and  N1_8 
REMARK    3  A    between atoms: C5_7  and  C15_23 
REMARK       I    between atoms: N1_8  and  C6_10 
REMARK    4  A    between atoms: C6_10  and  C7_12 
REMARK    5  A    between atoms: C7_12  and  N2_14 
REMARK       I    between atoms: N2_14  and  C9_16 
REMARK    6  A    between atoms: C9_16  and  C10_18 
REMARK    7  A    between atoms: C17_27  and  C18_28 
REMARK       I    between atoms: C18_28  and  N3_30 
REMARK    8  A    between atoms: N3_30  and  C19_32 
ROOT
HETATM    1  C5  UNL     1      15.305   6.513  26.192  1.00  0.00     0.162 C 
ENDROOT
BRANCH   1   2
HETATM    2  C4  UNL     1      16.638   6.800  26.825  1.00  0.00     0.152 C 
HETATM    3  O2  UNL     1      17.544   5.791  26.723  1.00  0.00    -0.351 OA
HETATM    4  C3  UNL     1      18.744   5.956  27.337  1.00  0.00     0.293 C 
HETATM    5  O1  UNL     1      19.704   6.205  26.355  1.00  0.00    -0.329 OA
HETATM    6  C23 UNL     1      18.866   7.171  28.199  1.00  0.00     0.193 C 
HETATM    7  C2  UNL     1      19.873   7.571  26.287  1.00  0.00     0.259 C 
HETATM    8  C1  UNL     1      21.349   7.865  26.253  1.00  0.00     0.071 C 
HETATM    9  O6  UNL     1      19.205   8.165  27.323  1.00  0.00    -0.351 OA
HETATM   10  C17 UNL     1      17.665   7.409  29.041  1.00  0.00     0.114 C 
HETATM   11  C16 UNL     1      16.439   7.378  28.204  1.00  0.00     0.051 C 
BRANCH  10  12
HETATM   12  C18 UNL     1      17.728   8.683  29.775  1.00  0.00     0.225 C 
HETATM   13  O5  UNL     1      17.887   8.658  31.020  1.00  0.00    -0.273 OA
HETATM   14  N3  UNL     1      17.617   9.950  29.137  1.00  0.00    -0.353 N 
ATOM     15  H3  UNL     1      17.487   9.979  28.125  1.00  0.00     0.163 HD
BRANCH  14  16
HETATM   16  C19 UNL     1      17.681  11.192  29.862  1.00  0.00     0.022 C 
HETATM   17  C20 UNL     1      19.083  11.739  29.981  1.00  0.00     0.037 C 
HETATM   18  C21 UNL     1      17.119  11.054  31.279  1.00  0.00     0.037 C 
HETATM   19  C22 UNL     1      16.862  12.228  29.126  1.00  0.00     0.037 C 
ENDBRANCH  14  16
ENDBRANCH  10  12
ENDBRANCH   1   2
BRANCH   1  20
HETATM   20  N1  UNL     1      15.132   5.076  26.025  1.00  0.00    -0.348 N 
HETATM   21  C6  UNL     1      14.568   4.480  24.895  1.00  0.00     0.240 C 
HETATM   22  O3  UNL     1      14.174   5.200  23.945  1.00  0.00    -0.271 OA
ATOM     23  H1  UNL     1      15.442   4.467  26.782  1.00  0.00     0.163 HD
BRANCH  21  24
HETATM   24  C7  UNL     1      14.441   3.002  24.830  1.00  0.00     0.172 C 
HETATM   25  C8  UNL     1      15.654   2.445  24.118  1.00  0.00     0.042 C 
BRANCH  24  26
HETATM   26  N2  UNL     1      14.315   2.421  26.161  1.00  0.00    -0.348 N 
HETATM   27  C9  UNL     1      13.045   2.203  26.758  1.00  0.00     0.222 C 
HETATM   28  O4  UNL     1      12.021   2.528  26.107  1.00  0.00    -0.273 OA
ATOM     29  H2  UNL     1      15.157   2.165  26.676  1.00  0.00     0.163 HD
BRANCH  27  30
HETATM   30  C10 UNL     1      12.902   1.622  28.091  1.00  0.00     0.078 C 
HETATM   31  C11 UNL     1      11.462   1.322  28.456  1.00  0.00     0.014 C 
HETATM   32  C12 UNL     1      11.668   0.513  29.743  1.00  0.00     0.001 C 
HETATM   33  C13 UNL     1      12.902  -0.311  29.443  1.00  0.00     0.001 C 
HETATM   34  C14 UNL     1      13.528   0.247  28.206  1.00  0.00     0.014 C 
ENDBRANCH  27  30
ENDBRANCH  24  26
ENDBRANCH  21  24
ENDBRANCH   1  20
BRANCH   1  35
HETATM   35  C15 UNL     1      14.138   7.028  26.989  1.00  0.00     0.290 C 
HETATM   36  F1  UNL     1      13.307   7.843  26.253  1.00  0.00    -0.231 F 
HETATM   37 CL1  UNL     1      13.267   5.668  27.736  1.00  0.00    -0.087 Cl
ENDBRANCH   1  35
TORSDOF 8
ENDMDL
MODEL 5
REMARK VINA RESULT: -8.279539666      3.013      4.785
REMARK  8 active torsions:
REMARK  status: ('A' for Active; 'I' for Inactive)
REMARK    1  A    between atoms: C4_6  and  C5_7 
REMARK    2  A    between atoms: C5_7  and  N1_8 
REMARK    3  A    between atoms: C5_7  and  C15_23 
REMARK       I    between atoms: N1_8  and  C6_10 
REMARK    4  A    between atoms: C6_10  and  C7_12 
REMARK    5  A    between atoms: C7_12  and  N2_14 
REMARK       I    between atoms: N2_14  and  C9_16 
REMARK    6  A    between atoms: C9_16  and  C10_18 
REMARK    7  A    between atoms: C17_27  and  C18_28 
REMARK       I    between atoms: C18_28  and  N3_30 
REMARK    8  A    between atoms: N3_30  and  C19_32 
ROOT
HETATM    1  C5  UNL     1      18.409   7.019  26.726  1.00  0.00     0.162 C 
ENDROOT
BRANCH   1   2
HETATM    2  C4  UNL     1      17.559   6.366  25.672  1.00  0.00     0.152 C 
HETATM    3  O2  UNL     1      18.095   6.379  24.422  1.00  0.00    -0.351 OA
HETATM    4  C3  UNL     1      17.346   5.871  23.409  1.00  0.00     0.293 C 
HETATM    5  O1  UNL     1      17.882   4.634  23.050  1.00  0.00    -0.329 OA
HETATM    6  C23 UNL     1      15.941   5.506  23.765  1.00  0.00     0.193 C 
HETATM    7  C2  UNL     1      17.143   3.667  23.699  1.00  0.00     0.259 C 
HETATM    8  C1  UNL     1      16.814   2.580  22.711  1.00  0.00     0.071 C 
HETATM    9  O6  UNL     1      16.050   4.245  24.284  1.00  0.00    -0.351 OA
HETATM   10  C17 UNL     1      15.275   6.521  24.622  1.00  0.00     0.114 C 
HETATM   11  C16 UNL     1      16.134   6.848  25.788  1.00  0.00     0.051 C 
BRANCH  10  12
HETATM   12  C18 UNL     1      13.950   6.089  25.091  1.00  0.00     0.225 C 
HETATM   13  O5  UNL     1      12.928   6.514  24.498  1.00  0.00    -0.273 OA
HETATM   14  N3  UNL     1      13.769   5.205  26.192  1.00  0.00    -0.353 N 
ATOM     15  H3  UNL     1      14.594   4.855  26.681  1.00  0.00     0.163 HD
BRANCH  14  16
HETATM   16  C19 UNL     1      12.468   4.786  26.645  1.00  0.00     0.022 C 
HETATM   17  C20 UNL     1      11.530   4.436  25.515  1.00  0.00     0.037 C 
HETATM   18  C21 UNL     1      11.785   5.863  27.492  1.00  0.00     0.037 C 
HETATM   19  C22 UNL     1      12.624   3.544  27.492  1.00  0.00     0.037 C 
ENDBRANCH  14  16
ENDBRANCH  10  12
ENDBRANCH   1   2
BRANCH   1  20
HETATM   20  N1  UNL     1      17.673   8.106  27.357  1.00  0.00    -0.348 N 
HETATM   21  C6  UNL     1      18.194   9.382  27.577  1.00  0.00     0.240 C 
HETATM   22  O3  UNL     1      19.371   9.643  27.220  1.00  0.00    -0.271 OA
ATOM     23  H1  UNL     1      16.716   7.922  27.658  1.00  0.00     0.163 HD
BRANCH  21  24
HETATM   24  C7  UNL     1      17.354  10.417  28.230  1.00  0.00     0.172 C 
HETATM   25  C8  UNL     1      16.046  10.522  27.475  1.00  0.00     0.042 C 
BRANCH  24  26
HETATM   26  N2  UNL     1      17.113  10.099  29.632  1.00  0.00    -0.348 N 
HETATM   27  C9  UNL     1      17.272  11.074  30.652  1.00  0.00     0.222 C 
HETATM   28  O4  UNL     1      17.631  12.230  30.315  1.00  0.00    -0.273 OA
ATOM     29  H2  UNL     1      16.824   9.154  29.887  1.00  0.00     0.163 HD
BRANCH  27  30
HETATM   30  C10 UNL     1      17.036  10.771  32.061  1.00  0.00     0.078 C 
HETATM   31  C11 UNL     1      17.046   9.285  32.358  1.00  0.00     0.014 C 
HETATM   32  C12 UNL     1      17.035   9.311  33.892  1.00  0.00     0.001 C 
HETATM   33  C13 UNL     1      17.928  10.487  34.226  1.00  0.00     0.001 C 
HETATM   34  C14 UNL     1      18.147  11.261  32.967  1.00  0.00     0.014 C 
ENDBRANCH  27  30
ENDBRANCH  24  26
ENDBRANCH  21  24
ENDBRANCH   1  20
BRANCH   1  35
HETATM   35  C15 UNL     1      18.855   6.074  27.807  1.00  0.00     0.290 C 
HETATM   36  F1  UNL     1      20.224   5.938  27.868  1.00  0.00    -0.231 F 
HETATM   37 CL1  UNL     1      18.153   6.565  29.368  1.00  0.00    -0.087 Cl
ENDBRANCH   1  35
TORSDOF 8
ENDMDL
