MODEL 1
REMARK VINA RESULT: -4.372160654      0.000      0.000
REMARK  4 active torsions:
REMARK  status: ('A' for Active; 'I' for Inactive)
REMARK    1  A    between atoms: N1_2  and  C2_5 
REMARK    2  A    between atoms: C2_5  and  C3_6 
REMARK    3  A    between atoms: C3_6  and  C4_7 
REMARK    4  A    between atoms: C4_7  and  N2_8 
ROOT
HETATM    1  N2  UNL     1      17.199  45.042  76.080  1.00  0.00    -0.362 N 
ATOM      2  H2  UNL     1      16.306  45.043  76.573  1.00  0.00     0.162 HD
HETATM    3  C5  UNL     1      17.398  44.229  75.112  1.00  0.00     0.171 C 
HETATM    4  N3  UNL     1      18.568  44.099  74.331  1.00  0.00    -0.361 N 
ATOM      5  H3  UNL     1      19.288  44.811  74.206  1.00  0.00     0.162 HD
HETATM    6  C6  UNL     1      18.564  42.758  73.733  1.00  0.00     0.142 C 
HETATM    7  C7  UNL     1      17.179  42.199  73.964  1.00  0.00     0.142 C 
HETATM    8  N4  UNL     1      16.455  43.285  74.637  1.00  0.00    -0.361 N 
ATOM      9  H4  UNL     1      15.443  43.348  74.744  1.00  0.00     0.162 HD
ENDROOT
BRANCH   1  10
HETATM   10  C4  UNL     1      18.246  45.958  76.470  1.00  0.00     0.124 C 
BRANCH  10  11
HETATM   11  C3  UNL     1      18.176  47.278  75.726  1.00  0.00     0.047 C 
BRANCH  11  12
HETATM   12  C2  UNL     1      19.547  47.758  75.320  1.00  0.00     0.233 C 
BRANCH  12  13
HETATM   13  N1  UNL     1      19.589  49.199  75.288  1.00  0.00    -0.079 N 
HETATM   14  C1  UNL     1      20.649  49.714  74.471  1.00  0.00     0.266 C 
ATOM     15  H12 UNL     1      19.640  49.582  76.232  1.00  0.00     0.276 HD
ATOM     16  H11 UNL     1      18.689  49.583  75.000  1.00  0.00     0.276 HD
ENDBRANCH  12  13
ENDBRANCH  11  12
ENDBRANCH  10  11
ENDBRANCH   1  10
TORSDOF 4
ENDMDL
MODEL 2
REMARK VINA RESULT: -4.348908359      1.413      5.996
REMARK  4 active torsions:
REMARK  status: ('A' for Active; 'I' for Inactive)
REMARK    1  A    between atoms: N1_2  and  C2_5 
REMARK    2  A    between atoms: C2_5  and  C3_6 
REMARK    3  A    between atoms: C3_6  and  C4_7 
REMARK    4  A    between atoms: C4_7  and  N2_8 
ROOT
HETATM    1  N2  UNL     1      19.634  47.752  75.323  1.00  0.00    -0.362 N 
ATOM      2  H2  UNL     1      20.147  46.885  75.162  1.00  0.00     0.162 HD
HETATM    3  C5  UNL     1      20.218  48.881  75.180  1.00  0.00     0.171 C 
HETATM    4  N3  UNL     1      19.656  50.164  75.364  1.00  0.00    -0.361 N 
ATOM      5  H3  UNL     1      18.663  50.395  75.328  1.00  0.00     0.162 HD
HETATM    6  C6  UNL     1      20.755  51.105  75.615  1.00  0.00     0.142 C 
HETATM    7  C7  UNL     1      22.028  50.364  75.279  1.00  0.00     0.142 C 
HETATM    8  N4  UNL     1      21.572  49.053  74.801  1.00  0.00    -0.361 N 
ATOM      9  H4  UNL     1      22.135  48.380  74.282  1.00  0.00     0.162 HD
ENDROOT
BRANCH   1  10
HETATM   10  C4  UNL     1      18.244  47.711  75.716  1.00  0.00     0.124 C 
BRANCH  10  11
HETATM   11  C3  UNL     1      17.607  46.357  75.473  1.00  0.00     0.047 C 
BRANCH  11  12
HETATM   12  C2  UNL     1      18.153  45.312  76.414  1.00  0.00     0.233 C 
BRANCH  12  13
HETATM   13  N1  UNL     1      18.505  44.114  75.691  1.00  0.00    -0.079 N 
HETATM   14  C1  UNL     1      17.698  43.902  74.525  1.00  0.00     0.266 C 
ATOM     15  H12 UNL     1      18.478  43.299  76.303  1.00  0.00     0.276 HD
ATOM     16  H11 UNL     1      19.497  44.112  75.453  1.00  0.00     0.276 HD
ENDBRANCH  12  13
ENDBRANCH  11  12
ENDBRANCH  10  11
ENDBRANCH   1  10
TORSDOF 4
ENDMDL
MODEL 3
REMARK VINA RESULT: -4.328255834      1.784      2.582
REMARK  4 active torsions:
REMARK  status: ('A' for Active; 'I' for Inactive)
REMARK    1  A    between atoms: N1_2  and  C2_5 
REMARK    2  A    between atoms: C2_5  and  C3_6 
REMARK    3  A    between atoms: C3_6  and  C4_7 
REMARK    4  A    between atoms: C4_7  and  N2_8 
ROOT
HETATM    1  N2  UNL     1      19.069  46.965  76.147  1.00  0.00    -0.362 N 
ATOM      2  H2  UNL     1      19.627  46.858  76.993  1.00  0.00     0.162 HD
HETATM    3  C5  UNL     1      18.229  46.061  75.811  1.00  0.00     0.171 C 
HETATM    4  N3  UNL     1      17.386  46.055  74.678  1.00  0.00    -0.361 N 
ATOM      5  H3  UNL     1      17.091  46.873  74.145  1.00  0.00     0.162 HD
HETATM    6  C6  UNL     1      17.009  44.662  74.404  1.00  0.00     0.142 C 
HETATM    7  C7  UNL     1      17.438  43.865  75.614  1.00  0.00     0.142 C 
HETATM    8  N4  UNL     1      17.987  44.867  76.535  1.00  0.00    -0.361 N 
ATOM      9  H4  UNL     1      18.165  44.728  77.529  1.00  0.00     0.162 HD
ENDROOT
BRANCH   1  10
HETATM   10  C4  UNL     1      19.223  48.140  75.319  1.00  0.00     0.124 C 
BRANCH  10  11
HETATM   11  C3  UNL     1      20.522  48.877  75.586  1.00  0.00     0.047 C 
BRANCH  11  12
HETATM   12  C2  UNL     1      20.678  50.070  74.676  1.00  0.00     0.233 C 
BRANCH  12  13
HETATM   13  N1  UNL     1      22.071  50.307  74.387  1.00  0.00    -0.079 N 
HETATM   14  C1  UNL     1      22.900  49.164  74.636  1.00  0.00     0.266 C 
ATOM     15  H12 UNL     1      22.414  51.122  74.894  1.00  0.00     0.276 HD
ATOM     16  H11 UNL     1      22.191  50.641  73.431  1.00  0.00     0.276 HD
ENDBRANCH  12  13
ENDBRANCH  11  12
ENDBRANCH  10  11
ENDBRANCH   1  10
TORSDOF 4
ENDMDL
MODEL 4
REMARK VINA RESULT: -4.280949070      1.700      6.454
REMARK  4 active torsions:
REMARK  status: ('A' for Active; 'I' for Inactive)
REMARK    1  A    between atoms: N1_2  and  C2_5 
REMARK    2  A    between atoms: C2_5  and  C3_6 
REMARK    3  A    between atoms: C3_6  and  C4_7 
REMARK    4  A    between atoms: C4_7  and  N2_8 
ROOT
HETATM    1  N2  UNL     1      20.101  48.549  74.828  1.00  0.00    -0.362 N 
ATOM      2  H2  UNL     1      20.333  47.923  74.057  1.00  0.00     0.162 HD
HETATM    3  C5  UNL     1      20.803  49.597  75.038  1.00  0.00     0.171 C 
HETATM    4  N3  UNL     1      20.617  50.560  76.055  1.00  0.00    -0.361 N 
ATOM      5  H3  UNL     1      19.750  50.741  76.560  1.00  0.00     0.162 HD
HETATM    6  C6  UNL     1      21.896  51.255  76.255  1.00  0.00     0.142 C 
HETATM    7  C7  UNL     1      22.779  50.854  75.097  1.00  0.00     0.142 C 
HETATM    8  N4  UNL     1      21.926  49.992  74.270  1.00  0.00    -0.361 N 
ATOM      9  H4  UNL     1      22.111  49.722  73.304  1.00  0.00     0.162 HD
ENDROOT
BRANCH   1  10
HETATM   10  C4  UNL     1      18.977  48.257  75.687  1.00  0.00     0.124 C 
BRANCH  10  11
HETATM   11  C3  UNL     1      18.496  46.825  75.555  1.00  0.00     0.047 C 
BRANCH  11  12
HETATM   12  C2  UNL     1      17.113  46.650  76.132  1.00  0.00     0.233 C 
BRANCH  12  13
HETATM   13  N1  UNL     1      16.534  45.405  75.689  1.00  0.00    -0.079 N 
HETATM   14  C1  UNL     1      17.326  44.736  74.698  1.00  0.00     0.266 C 
ATOM     15  H12 UNL     1      15.581  45.546  75.357  1.00  0.00     0.276 HD
ATOM     16  H11 UNL     1      16.347  44.790  76.481  1.00  0.00     0.276 HD
ENDBRANCH  12  13
ENDBRANCH  11  12
ENDBRANCH  10  11
ENDBRANCH   1  10
TORSDOF 4
ENDMDL
MODEL 5
REMARK VINA RESULT: -4.194334871      2.195      6.795
REMARK  4 active torsions:
REMARK  status: ('A' for Active; 'I' for Inactive)
REMARK    1  A    between atoms: N1_2  and  C2_5 
REMARK    2  A    between atoms: C2_5  and  C3_6 
REMARK    3  A    between atoms: C3_6  and  C4_7 
REMARK    4  A    between atoms: C4_7  and  N2_8 
ROOT
HETATM    1  N2  UNL     1      20.836  48.733  75.305  1.00  0.00    -0.362 N 
ATOM      2  H2  UNL     1      21.460  47.940  75.454  1.00  0.00     0.162 HD
HETATM    3  C5  UNL     1      21.317  49.907  75.142  1.00  0.00     0.171 C 
HETATM    4  N3  UNL     1      20.597  51.103  74.927  1.00  0.00    -0.361 N 
ATOM      5  H3  UNL     1      19.647  51.175  74.564  1.00  0.00     0.162 HD
HETATM    6  C6  UNL     1      21.461  52.225  75.318  1.00  0.00     0.142 C 
HETATM    7  C7  UNL     1      22.844  51.646  75.502  1.00  0.00     0.142 C 
HETATM    8  N4  UNL     1      22.696  50.229  75.149  1.00  0.00    -0.361 N 
ATOM      9  H4  UNL     1      23.459  49.585  74.943  1.00  0.00     0.162 HD
ENDROOT
BRANCH   1  10
HETATM   10  C4  UNL     1      19.405  48.536  75.277  1.00  0.00     0.124 C 
BRANCH  10  11
HETATM   11  C3  UNL     1      19.005  47.110  75.603  1.00  0.00     0.047 C 
BRANCH  11  12
HETATM   12  C2  UNL     1      17.522  46.997  75.858  1.00  0.00     0.233 C 
BRANCH  12  13
HETATM   13  N1  UNL     1      17.200  45.700  76.402  1.00  0.00    -0.079 N 
HETATM   14  C1  UNL     1      18.327  44.815  76.453  1.00  0.00     0.266 C 
ATOM     15  H12 UNL     1      16.427  45.274  75.893  1.00  0.00     0.276 HD
ATOM     16  H11 UNL     1      16.767  45.790  77.321  1.00  0.00     0.276 HD
ENDBRANCH  12  13
ENDBRANCH  11  12
ENDBRANCH  10  11
ENDBRANCH   1  10
TORSDOF 4
ENDMDL
