MODEL 1
REMARK VINA RESULT: -6.609971236      0.000      0.000
REMARK  8 active torsions:
REMARK  status: ('A' for Active; 'I' for Inactive)
REMARK    1  A    between atoms: S1_2  and  C2_3 
REMARK    2  A    between atoms: C2_3  and  C3_4 
REMARK    3  A    between atoms: C3_4  and  C4_5 
REMARK    4  A    between atoms: C4_5  and  C5_6 
REMARK    5  A    between atoms: C6_10  and  O1_11 
REMARK    6  A    between atoms: C12_22  and  O3_23 
REMARK    7  A    between atoms: C13_25  and  C14_26 
REMARK    8  A    between atoms: C17_31  and  O4_32 
ROOT
HETATM    1  C5  UNL     1      -3.664  11.733  22.394  1.00  0.00     0.195 C 
HETATM    2  F1  UNL     1      -3.425  10.745  23.419  1.00  0.00    -0.218 F 
HETATM    3  N1  UNL     1      -5.105  11.452  22.241  1.00  0.00    -0.336 N 
ATOM      4  H1  UNL     1      -5.314  10.516  21.891  1.00  0.00     0.164 HD
HETATM    5  C6  UNL     1      -6.213  12.220  22.485  1.00  0.00     0.132 C 
HETATM    6  C7  UNL     1      -6.641  13.518  21.905  1.00  0.00     0.209 C 
HETATM    7  N2  UNL     1      -8.107  13.533  21.741  1.00  0.00    -0.347 N 
HETATM    8  C8  UNL     1      -8.747  14.825  21.900  1.00  0.00     0.153 C 
HETATM    9  C9  UNL     1      -8.876  12.389  21.456  1.00  0.00     0.242 C 
HETATM   10  O2  UNL     1      -9.993  12.267  22.060  1.00  0.00    -0.271 OA
HETATM   11  C10 UNL     1      -8.493  11.303  20.502  1.00  0.00     0.172 C 
HETATM   12  C11 UNL     1      -9.819  10.734  19.951  1.00  0.00     0.042 C 
HETATM   13  N3  UNL     1      -7.677  11.830  19.426  1.00  0.00    -0.356 N 
ATOM     14  H3  UNL     1      -7.727  12.842  19.308  1.00  0.00     0.162 HD
HETATM   15  C12 UNL     1      -6.841  11.180  18.534  1.00  0.00     0.160 C 
HETATM   16  C13 UNL     1      -5.651  10.312  18.780  1.00  0.00     0.065 C 
HETATM   17  N4  UNL     1      -4.490  11.069  19.168  1.00  0.00    -0.339 N 
ATOM     18  H4  UNL     1      -4.543  11.960  18.675  1.00  0.00     0.167 HD
HETATM   19  C17 UNL     1      -3.362  11.100  19.907  1.00  0.00     0.132 C 
HETATM   20  C18 UNL     1      -2.829  11.458  21.245  1.00  0.00     0.110 A 
HETATM   21  C19 UNL     1      -1.710  12.532  20.975  1.00  0.00     0.029 A 
HETATM   22  C20 UNL     1      -0.641  11.614  21.408  1.00  0.00     0.040 A 
HETATM   23  C21 UNL     1      -1.668  10.568  21.673  1.00  0.00     0.191 A 
HETATM   24  F2  UNL     1      -1.543   9.387  20.939  1.00  0.00    -0.248 F 
ENDROOT
BRANCH   1  25
HETATM   25  C4  UNL     1      -3.573  12.983  23.173  1.00  0.00     0.069 C 
BRANCH  25  26
HETATM   26  C3  UNL     1      -3.262  13.043  24.590  1.00  0.00     0.015 C 
BRANCH  26  27
HETATM   27  C2  UNL     1      -4.419  13.302  25.528  1.00  0.00     0.073 C 
BRANCH  27  28
HETATM   28  S1  UNL     1      -4.951  15.005  25.569  1.00  0.00    -0.173 SA
HETATM   29  C1  UNL     1      -6.736  15.033  25.225  1.00  0.00     0.089 C 
ENDBRANCH  27  28
ENDBRANCH  26  27
ENDBRANCH  25  26
ENDBRANCH   1  25
BRANCH   5  30
HETATM   30  O1  UNL     1      -7.076  11.795  23.362  1.00  0.00    -0.348 OA
ATOM     31  H1  UNL     1      -6.948  12.035  24.271  1.00  0.00     0.219 HD
ENDBRANCH   5  30
BRANCH  19  32
HETATM   32  O4  UNL     1      -2.304  10.659  19.212  1.00  0.00    -0.349 OA
ATOM     33  H4  UNL     1      -1.502  10.723  19.717  1.00  0.00     0.219 HD
ENDBRANCH  19  32
BRANCH  16  34
HETATM   34  C14 UNL     1      -5.939   9.009  19.397  1.00  0.00     0.032 C 
HETATM   35  C15 UNL     1      -7.149   8.407  18.674  1.00  0.00     0.016 C 
HETATM   36  C16 UNL     1      -4.784   8.061  19.054  1.00  0.00     0.016 C 
ENDBRANCH  16  34
BRANCH  15  37
HETATM   37  O3  UNL     1      -7.173  11.381  17.292  1.00  0.00    -0.345 OA
ATOM     38  H3  UNL     1      -6.780  10.752  16.698  1.00  0.00     0.219 HD
ENDBRANCH  15  37
TORSDOF 8
ENDMDL
MODEL 2
REMARK VINA RESULT: -6.582927036      3.370      6.939
REMARK  8 active torsions:
REMARK  status: ('A' for Active; 'I' for Inactive)
REMARK    1  A    between atoms: S1_2  and  C2_3 
REMARK    2  A    between atoms: C2_3  and  C3_4 
REMARK    3  A    between atoms: C3_4  and  C4_5 
REMARK    4  A    between atoms: C4_5  and  C5_6 
REMARK    5  A    between atoms: C6_10  and  O1_11 
REMARK    6  A    between atoms: C12_22  and  O3_23 
REMARK    7  A    between atoms: C13_25  and  C14_26 
REMARK    8  A    between atoms: C17_31  and  O4_32 
ROOT
HETATM    1  C5  UNL     1      -5.948   9.765  19.960  1.00  0.00     0.195 C 
HETATM    2  F1  UNL     1      -6.653   8.657  20.561  1.00  0.00    -0.218 F 
HETATM    3  N1  UNL     1      -5.294  10.224  21.201  1.00  0.00    -0.336 N 
ATOM      4  H1  UNL     1      -5.941  10.559  21.915  1.00  0.00     0.164 HD
HETATM    5  C6  UNL     1      -3.975  10.283  21.566  1.00  0.00     0.132 C 
HETATM    6  C7  UNL     1      -2.833  11.018  20.966  1.00  0.00     0.209 C 
HETATM    7  N2  UNL     1      -1.940  11.510  22.032  1.00  0.00    -0.347 N 
HETATM    8  C8  UNL     1      -0.531  11.575  21.696  1.00  0.00     0.153 C 
HETATM    9  C9  UNL     1      -2.386  11.897  23.310  1.00  0.00     0.242 C 
HETATM   10  O2  UNL     1      -1.668  11.557  24.309  1.00  0.00    -0.271 OA
HETATM   11  C10 UNL     1      -3.629  12.676  23.597  1.00  0.00     0.172 C 
HETATM   12  C11 UNL     1      -3.341  13.481  24.883  1.00  0.00     0.042 C 
HETATM   13  N3  UNL     1      -3.941  13.567  22.497  1.00  0.00    -0.356 N 
ATOM     14  H3  UNL     1      -3.164  13.751  21.862  1.00  0.00     0.162 HD
HETATM   15  C12 UNL     1      -5.124  14.208  22.169  1.00  0.00     0.160 C 
HETATM   16  C13 UNL     1      -6.478  13.648  21.874  1.00  0.00     0.065 C 
HETATM   17  N4  UNL     1      -6.551  13.051  20.566  1.00  0.00    -0.339 N 
ATOM     18  H4  UNL     1      -5.935  13.592  19.961  1.00  0.00     0.167 HD
HETATM   19  C17 UNL     1      -7.089  12.078  19.803  1.00  0.00     0.132 C 
HETATM   20  C18 UNL     1      -6.895  10.676  19.355  1.00  0.00     0.110 A 
HETATM   21  C19 UNL     1      -6.827  10.746  17.783  1.00  0.00     0.029 A 
HETATM   22  C20 UNL     1      -8.107  10.030  17.637  1.00  0.00     0.040 A 
HETATM   23  C21 UNL     1      -8.212   9.945  19.121  1.00  0.00     0.191 A 
HETATM   24  F2  UNL     1      -9.327  10.564  19.692  1.00  0.00    -0.248 F 
ENDROOT
BRANCH   1  25
HETATM   25  C4  UNL     1      -4.908   9.058  19.188  1.00  0.00     0.069 C 
BRANCH  25  26
HETATM   26  C3  UNL     1      -4.914   7.630  18.923  1.00  0.00     0.015 C 
BRANCH  26  27
HETATM   27  C2  UNL     1      -5.977   7.121  17.976  1.00  0.00     0.073 C 
BRANCH  27  28
HETATM   28  S1  UNL     1      -6.233   5.356  18.055  1.00  0.00    -0.173 SA
HETATM   29  C1  UNL     1      -6.667   4.788  16.384  1.00  0.00     0.089 C 
ENDBRANCH  27  28
ENDBRANCH  26  27
ENDBRANCH  25  26
ENDBRANCH   1  25
BRANCH   5  30
HETATM   30  O1  UNL     1      -3.595   9.602  22.608  1.00  0.00    -0.348 OA
ATOM     31  H1  UNL     1      -2.846   9.916  23.101  1.00  0.00     0.219 HD
ENDBRANCH   5  30
BRANCH  19  32
HETATM   32  O4  UNL     1      -8.215  12.488  19.201  1.00  0.00    -0.349 OA
ATOM     33  H4  UNL     1      -8.439  11.933  18.463  1.00  0.00     0.219 HD
ENDBRANCH  19  32
BRANCH  16  34
HETATM   34  C14 UNL     1      -7.170  13.040  23.019  1.00  0.00     0.032 C 
HETATM   35  C15 UNL     1      -7.094  14.026  24.189  1.00  0.00     0.016 C 
HETATM   36  C16 UNL     1      -8.664  12.970  22.680  1.00  0.00     0.016 C 
ENDBRANCH  16  34
BRANCH  15  37
HETATM   37  O3  UNL     1      -5.001  15.501  22.117  1.00  0.00    -0.345 OA
ATOM     38  H3  UNL     1      -4.102  15.791  22.215  1.00  0.00     0.219 HD
ENDBRANCH  15  37
TORSDOF 8
ENDMDL
MODEL 3
REMARK VINA RESULT: -6.401023499      2.761      4.027
REMARK  8 active torsions:
REMARK  status: ('A' for Active; 'I' for Inactive)
REMARK    1  A    between atoms: S1_2  and  C2_3 
REMARK    2  A    between atoms: C2_3  and  C3_4 
REMARK    3  A    between atoms: C3_4  and  C4_5 
REMARK    4  A    between atoms: C4_5  and  C5_6 
REMARK    5  A    between atoms: C6_10  and  O1_11 
REMARK    6  A    between atoms: C12_22  and  O3_23 
REMARK    7  A    between atoms: C13_25  and  C14_26 
REMARK    8  A    between atoms: C17_31  and  O4_32 
ROOT
HETATM    1  C5  UNL     1      -3.026  10.990  22.450  1.00  0.00     0.195 C 
HETATM    2  F1  UNL     1      -3.502   9.656  22.733  1.00  0.00    -0.218 F 
HETATM    3  N1  UNL     1      -4.233  11.691  22.932  1.00  0.00    -0.336 N 
ATOM      4  H1  UNL     1      -5.076  11.491  22.394  1.00  0.00     0.164 HD
HETATM    5  C6  UNL     1      -4.424  12.560  23.973  1.00  0.00     0.132 C 
HETATM    6  C7  UNL     1      -3.823  13.890  24.251  1.00  0.00     0.209 C 
HETATM    7  N2  UNL     1      -4.834  14.779  24.855  1.00  0.00    -0.347 N 
HETATM    8  C8  UNL     1      -4.331  15.751  25.807  1.00  0.00     0.153 C 
HETATM    9  C9  UNL     1      -6.209  14.717  24.560  1.00  0.00     0.242 C 
HETATM   10  O2  UNL     1      -7.023  14.860  25.531  1.00  0.00    -0.271 OA
HETATM   11  C10 UNL     1      -6.795  14.499  23.202  1.00  0.00     0.172 C 
HETATM   12  C11 UNL     1      -8.157  15.226  23.205  1.00  0.00     0.042 C 
HETATM   13  N3  UNL     1      -5.928  15.042  22.176  1.00  0.00    -0.356 N 
ATOM     14  H3  UNL     1      -5.241  15.718  22.511  1.00  0.00     0.162 HD
HETATM   15  C12 UNL     1      -5.883  14.793  20.815  1.00  0.00     0.160 C 
HETATM   16  C13 UNL     1      -5.673  13.513  20.072  1.00  0.00     0.065 C 
HETATM   17  N4  UNL     1      -4.300  13.083  20.099  1.00  0.00    -0.339 N 
ATOM     18  H4  UNL     1      -3.728  13.927  20.098  1.00  0.00     0.167 HD
HETATM   19  C17 UNL     1      -3.449  12.037  20.126  1.00  0.00     0.132 C 
HETATM   20  C18 UNL     1      -2.730  11.114  21.040  1.00  0.00     0.110 A 
HETATM   21  C19 UNL     1      -1.203  11.300  20.704  1.00  0.00     0.029 A 
HETATM   22  C20 UNL     1      -1.098   9.940  20.146  1.00  0.00     0.040 A 
HETATM   23  C21 UNL     1      -2.542   9.723  20.444  1.00  0.00     0.191 A 
HETATM   24  F2  UNL     1      -3.360   9.449  19.345  1.00  0.00    -0.248 F 
ENDROOT
BRANCH   1  25
HETATM   25  C4  UNL     1      -2.007  11.160  23.504  1.00  0.00     0.069 C 
BRANCH  25  26
HETATM   26  C3  UNL     1      -1.470  10.075  24.306  1.00  0.00     0.015 C 
BRANCH  26  27
HETATM   27  C2  UNL     1      -1.915  10.015  25.750  1.00  0.00     0.073 C 
BRANCH  27  28
HETATM   28  S1  UNL     1      -0.951   8.904  26.760  1.00  0.00    -0.173 SA
HETATM   29  C1  UNL     1      -2.111   7.861  27.693  1.00  0.00     0.089 C 
ENDBRANCH  27  28
ENDBRANCH  26  27
ENDBRANCH  25  26
ENDBRANCH   1  25
BRANCH   5  30
HETATM   30  O1  UNL     1      -5.264  12.225  24.909  1.00  0.00    -0.348 OA
ATOM     31  H1  UNL     1      -6.134  11.944  24.653  1.00  0.00     0.219 HD
ENDBRANCH   5  30
BRANCH  19  32
HETATM   32  O4  UNL     1      -3.087  11.663  18.891  1.00  0.00    -0.349 OA
ATOM     33  H4  UNL     1      -3.662  10.988  18.546  1.00  0.00     0.219 HD
ENDBRANCH  19  32
BRANCH  16  34
HETATM   34  C14 UNL     1      -6.769  12.539  20.175  1.00  0.00     0.032 C 
HETATM   35  C15 UNL     1      -8.083  13.282  19.914  1.00  0.00     0.016 C 
HETATM   36  C16 UNL     1      -6.644  11.566  18.996  1.00  0.00     0.016 C 
ENDBRANCH  16  34
BRANCH  15  37
HETATM   37  O3  UNL     1      -6.054  15.864  20.098  1.00  0.00    -0.345 OA
ATOM     38  H3  UNL     1      -5.465  16.569  20.340  1.00  0.00     0.219 HD
ENDBRANCH  15  37
TORSDOF 8
ENDMDL
MODEL 4
REMARK VINA RESULT: -6.387418355      2.426      4.715
REMARK  8 active torsions:
REMARK  status: ('A' for Active; 'I' for Inactive)
REMARK    1  A    between atoms: S1_2  and  C2_3 
REMARK    2  A    between atoms: C2_3  and  C3_4 
REMARK    3  A    between atoms: C3_4  and  C4_5 
REMARK    4  A    between atoms: C4_5  and  C5_6 
REMARK    5  A    between atoms: C6_10  and  O1_11 
REMARK    6  A    between atoms: C12_22  and  O3_23 
REMARK    7  A    between atoms: C13_25  and  C14_26 
REMARK    8  A    between atoms: C17_31  and  O4_32 
ROOT
HETATM    1  C5  UNL     1      -4.742  10.095  20.663  1.00  0.00     0.195 C 
HETATM    2  F1  UNL     1      -4.451   9.023  21.586  1.00  0.00    -0.218 F 
HETATM    3  N1  UNL     1      -5.182  11.064  21.685  1.00  0.00    -0.336 N 
ATOM      4  H1  UNL     1      -6.026  10.787  22.188  1.00  0.00     0.164 HD
HETATM    5  C6  UNL     1      -4.663  12.268  22.080  1.00  0.00     0.132 C 
HETATM    6  C7  UNL     1      -4.435  13.524  21.320  1.00  0.00     0.209 C 
HETATM    7  N2  UNL     1      -4.716  14.688  22.182  1.00  0.00    -0.347 N 
HETATM    8  C8  UNL     1      -3.915  15.869  21.929  1.00  0.00     0.153 C 
HETATM    9  C9  UNL     1      -5.688  14.691  23.201  1.00  0.00     0.242 C 
HETATM   10  O2  UNL     1      -5.387  15.275  24.295  1.00  0.00    -0.271 OA
HETATM   11  C10 UNL     1      -7.044  14.069  23.108  1.00  0.00     0.172 C 
HETATM   12  C11 UNL     1      -7.961  14.909  24.024  1.00  0.00     0.042 C 
HETATM   13  N3  UNL     1      -7.527  14.094  21.742  1.00  0.00    -0.356 N 
ATOM     14  H3  UNL     1      -7.048  14.755  21.131  1.00  0.00     0.162 HD
HETATM   15  C12 UNL     1      -8.534  13.365  21.133  1.00  0.00     0.160 C 
HETATM   16  C13 UNL     1      -8.705  11.887  20.985  1.00  0.00     0.065 C 
HETATM   17  N4  UNL     1      -7.830  11.332  19.986  1.00  0.00    -0.339 N 
ATOM     18  H4  UNL     1      -7.724  12.042  19.261  1.00  0.00     0.167 HD
HETATM   19  C17 UNL     1      -7.092  10.271  19.602  1.00  0.00     0.132 C 
HETATM   20  C18 UNL     1      -5.742   9.662  19.712  1.00  0.00     0.110 A 
HETATM   21  C19 UNL     1      -5.224   9.526  18.231  1.00  0.00     0.029 A 
HETATM   22  C20 UNL     1      -5.285   8.054  18.282  1.00  0.00     0.040 A 
HETATM   23  C21 UNL     1      -5.780   8.139  19.685  1.00  0.00     0.191 A 
HETATM   24  F2  UNL     1      -7.041   7.587  19.923  1.00  0.00    -0.248 F 
ENDROOT
BRANCH   1  25
HETATM   25  C4  UNL     1      -3.382  10.509  20.266  1.00  0.00     0.069 C 
BRANCH  25  26
HETATM   26  C3  UNL     1      -2.167   9.828  20.676  1.00  0.00     0.015 C 
BRANCH  26  27
HETATM   27  C2  UNL     1      -1.287  10.550  21.671  1.00  0.00     0.073 C 
BRANCH  27  28
HETATM   28  S1  UNL     1      -1.574  10.079  23.368  1.00  0.00    -0.173 SA
HETATM   29  C1  UNL     1      -0.627  11.217  24.423  1.00  0.00     0.089 C 
ENDBRANCH  27  28
ENDBRANCH  26  27
ENDBRANCH  25  26
ENDBRANCH   1  25
BRANCH   5  30
HETATM   30  O1  UNL     1      -4.288  12.400  23.320  1.00  0.00    -0.348 OA
ATOM     31  H1  UNL     1      -3.409  12.714  23.492  1.00  0.00     0.219 HD
ENDBRANCH   5  30
BRANCH  19  32
HETATM   32  O4  UNL     1      -7.795   9.434  18.827  1.00  0.00    -0.349 OA
ATOM     33  H4  UNL     1      -7.240   8.768  18.437  1.00  0.00     0.219 HD
ENDBRANCH  19  32
BRANCH  16  34
HETATM   34  C14 UNL     1      -8.983  11.158  22.231  1.00  0.00     0.032 C 
HETATM   35  C15 UNL     1     -10.043  11.946  23.008  1.00  0.00     0.016 C 
HETATM   36  C16 UNL     1      -9.684   9.847  21.859  1.00  0.00     0.016 C 
ENDBRANCH  16  34
BRANCH  15  37
HETATM   37  O3  UNL     1      -9.463  14.116  20.618  1.00  0.00    -0.345 OA
ATOM     38  H3  UNL     1      -9.283  15.043  20.714  1.00  0.00     0.219 HD
ENDBRANCH  15  37
TORSDOF 8
ENDMDL
MODEL 5
REMARK VINA RESULT: -6.325313078      2.128      2.964
REMARK  8 active torsions:
REMARK  status: ('A' for Active; 'I' for Inactive)
REMARK    1  A    between atoms: S1_2  and  C2_3 
REMARK    2  A    between atoms: C2_3  and  C3_4 
REMARK    3  A    between atoms: C3_4  and  C4_5 
REMARK    4  A    between atoms: C4_5  and  C5_6 
REMARK    5  A    between atoms: C6_10  and  O1_11 
REMARK    6  A    between atoms: C12_22  and  O3_23 
REMARK    7  A    between atoms: C13_25  and  C14_26 
REMARK    8  A    between atoms: C17_31  and  O4_32 
ROOT
HETATM    1  C5  UNL     1      -3.355  11.251  22.152  1.00  0.00     0.195 C 
HETATM    2  F1  UNL     1      -3.279   9.952  22.778  1.00  0.00    -0.218 F 
HETATM    3  N1  UNL     1      -4.714  11.573  22.630  1.00  0.00    -0.336 N 
ATOM      4  H1  UNL     1      -5.442  10.958  22.266  1.00  0.00     0.164 HD
HETATM    5  C6  UNL     1      -5.173  12.549  23.474  1.00  0.00     0.132 C 
HETATM    6  C7  UNL     1      -5.107  14.030  23.374  1.00  0.00     0.209 C 
HETATM    7  N2  UNL     1      -6.351  14.622  23.903  1.00  0.00    -0.347 N 
HETATM    8  C8  UNL     1      -6.211  15.915  24.545  1.00  0.00     0.153 C 
HETATM    9  C9  UNL     1      -7.612  14.003  23.817  1.00  0.00     0.242 C 
HETATM   10  O2  UNL     1      -8.376  14.085  24.835  1.00  0.00    -0.271 OA
HETATM   11  C10 UNL     1      -8.133  13.257  22.630  1.00  0.00     0.172 C 
HETATM   12  C11 UNL     1      -9.667  13.428  22.660  1.00  0.00     0.042 C 
HETATM   13  N3  UNL     1      -7.583  13.797  21.403  1.00  0.00    -0.356 N 
ATOM     14  H3  UNL     1      -7.187  14.734  21.488  1.00  0.00     0.162 HD
HETATM   15  C12 UNL     1      -7.508  13.247  20.135  1.00  0.00     0.160 C 
HETATM   16  C13 UNL     1      -6.863  11.983  19.665  1.00  0.00     0.065 C 
HETATM   17  N4  UNL     1      -5.429  12.092  19.598  1.00  0.00    -0.339 N 
ATOM     18  H4  UNL     1      -5.219  13.055  19.337  1.00  0.00     0.167 HD
HETATM   19  C17 UNL     1      -4.246  11.459  19.735  1.00  0.00     0.132 C 
HETATM   20  C18 UNL     1      -3.191  11.114  20.722  1.00  0.00     0.110 A 
HETATM   21  C19 UNL     1      -1.864  11.741  20.150  1.00  0.00     0.029 A 
HETATM   22  C20 UNL     1      -1.278  10.413  19.890  1.00  0.00     0.040 A 
HETATM   23  C21 UNL     1      -2.519   9.780  20.420  1.00  0.00     0.191 A 
HETATM   24  F2  UNL     1      -3.220   8.966  19.527  1.00  0.00    -0.248 F 
ENDROOT
BRANCH   1  25
HETATM   25  C4  UNL     1      -2.429  12.031  22.996  1.00  0.00     0.069 C 
BRANCH  25  26
HETATM   26  C3  UNL     1      -1.616  11.465  24.058  1.00  0.00     0.015 C 
BRANCH  26  27
HETATM   27  C2  UNL     1      -2.203  11.497  25.451  1.00  0.00     0.073 C 
BRANCH  27  28
HETATM   28  S1  UNL     1      -2.065   9.949  26.330  1.00  0.00    -0.173 SA
HETATM   29  C1  UNL     1      -0.716   9.001  25.566  1.00  0.00     0.089 C 
ENDBRANCH  27  28
ENDBRANCH  26  27
ENDBRANCH  25  26
ENDBRANCH   1  25
BRANCH   5  30
HETATM   30  O1  UNL     1      -5.781  12.183  24.566  1.00  0.00    -0.348 OA
ATOM     31  H1  UNL     1      -6.708  12.372  24.649  1.00  0.00     0.219 HD
ENDBRANCH   5  30
BRANCH  19  32
HETATM   32  O4  UNL     1      -3.825  10.942  18.573  1.00  0.00    -0.349 OA
ATOM     33  H4  UNL     1      -2.911  11.144  18.409  1.00  0.00     0.219 HD
ENDBRANCH  19  32
BRANCH  16  34
HETATM   34  C14 UNL     1      -7.503  10.742  20.123  1.00  0.00     0.032 C 
HETATM   35  C15 UNL     1      -9.012  10.882  19.895  1.00  0.00     0.016 C 
HETATM   36  C16 UNL     1      -7.080   9.617  19.172  1.00  0.00     0.016 C 
ENDBRANCH  16  34
BRANCH  15  37
HETATM   37  O3  UNL     1      -8.103  13.971  19.233  1.00  0.00    -0.345 OA
ATOM     38  H3  UNL     1      -7.763  14.857  19.188  1.00  0.00     0.219 HD
ENDBRANCH  15  37
TORSDOF 8
ENDMDL
