MODEL 1
REMARK VINA RESULT: -9.593316393      0.000      0.000
REMARK  8 active torsions:
REMARK  status: ('A' for Active; 'I' for Inactive)
REMARK    1  A    between atoms: O1_2  and  C2_3 
REMARK    2  A    between atoms: C4_5  and  C5_6 
REMARK    3  A    between atoms: C5_6  and  N1_7 
REMARK    4  A    between atoms: N1_7  and  N2_9 
REMARK    5  A    between atoms: N2_9  and  C6_11 
REMARK    6  A    between atoms: N6_23  and  C11_25 
REMARK    7  A    between atoms: C14_29  and  O3_30 
REMARK    8  A    between atoms: C20_37  and  O4_38 
ROOT
HETATM    1  C6  UNL     1      -6.217  12.996  23.274  1.00  0.00     0.140 A 
HETATM    2  N3  UNL     1      -6.445  14.265  23.671  1.00  0.00    -0.330 N 
ATOM      3  H3  UNL     1      -6.243  14.508  24.641  1.00  0.00     0.168 HD
HETATM    4  C7  UNL     1      -6.921  15.222  22.867  1.00  0.00     0.080 A 
HETATM    5  C8  UNL     1      -7.145  16.608  23.392  1.00  0.00     0.089 C 
HETATM    6  N4  UNL     1      -7.187  14.906  21.590  1.00  0.00    -0.324 N 
ATOM      7  H4  UNL     1      -7.549  15.618  20.956  1.00  0.00     0.169 HD
HETATM    8  C9  UNL     1      -6.975  13.636  21.138  1.00  0.00     0.189 A 
HETATM    9  O2  UNL     1      -7.149  13.074  19.960  1.00  0.00    -0.217 OA
HETATM   10  N5  UNL     1      -6.813  11.821  19.966  1.00  0.00    -0.242 N 
ATOM     11  H5  UNL     1      -6.863  11.185  19.170  1.00  0.00     0.196 HD
HETATM   12  C10 UNL     1      -6.389  11.504  21.203  1.00  0.00     0.144 A 
HETATM   13  N6  UNL     1      -5.961  10.362  21.653  1.00  0.00    -0.335 N 
ATOM     14  H6  UNL     1      -5.664  10.246  22.621  1.00  0.00     0.168 HD
HETATM   15  C18 UNL     1      -6.485  12.646  21.959  1.00  0.00     0.108 A 
ENDROOT
BRANCH   1  16
HETATM   16  N2  UNL     1      -5.765  12.086  24.040  1.00  0.00    -0.285 N 
ATOM     17  H2  UNL     1      -6.416  11.383  24.387  1.00  0.00     0.188 HD
BRANCH  16  18
HETATM   18  N1  UNL     1      -4.423  11.997  24.434  1.00  0.00    -0.309 N 
ATOM     19  H1  UNL     1      -3.716  12.456  23.860  1.00  0.00     0.186 HD
BRANCH  18  20
HETATM   20  C5  UNL     1      -4.045  11.368  25.475  1.00  0.00     0.118 C 
BRANCH  20  21
HETATM   21  C4  UNL     1      -2.814  10.599  25.469  1.00  0.00    -0.014 A 
HETATM   22  C3  UNL     1      -2.006  10.606  24.329  1.00  0.00     0.049 A 
HETATM   23  C2  UNL     1      -0.840   9.889  24.301  1.00  0.00     0.071 A 
HETATM   24  C22 UNL     1      -0.470   9.165  25.396  1.00  0.00     0.073 A 
HETATM   25  C20 UNL     1      -1.241   9.123  26.562  1.00  0.00     0.071 A 
HETATM   26  C19 UNL     1      -2.410   9.854  26.565  1.00  0.00     0.049 A 
BRANCH  23  27
HETATM   27  O1  UNL     1      -0.068   9.919  23.157  1.00  0.00    -0.356 OA
HETATM   28  C1  UNL     1      -0.543  10.622  22.027  1.00  0.00     0.210 C 
ENDBRANCH  23  27
BRANCH  25  29
HETATM   29  O4  UNL     1      -0.839   8.377  27.665  1.00  0.00    -0.356 OA
HETATM   30  C21 UNL     1      -1.803   7.588  28.326  1.00  0.00     0.210 C 
ENDBRANCH  25  29
ENDBRANCH  20  21
ENDBRANCH  18  20
ENDBRANCH  16  18
ENDBRANCH   1  16
BRANCH  13  31
HETATM   31  C11 UNL     1      -5.928   9.268  20.714  1.00  0.00     0.112 A 
HETATM   32  C12 UNL     1      -4.800   9.050  19.952  1.00  0.00     0.148 A 
HETATM   33  F1  UNL     1      -3.735   9.859  20.085  1.00  0.00    -0.203 F 
HETATM   34  C13 UNL     1      -4.778   7.985  19.045  1.00  0.00     0.081 A 
HETATM   35  C14 UNL     1      -5.880   7.169  18.924  1.00  0.00     0.074 A 
HETATM   36  C16 UNL     1      -7.029   7.370  19.683  1.00  0.00     0.081 A 
HETATM   37  C17 UNL     1      -7.019   8.427  20.567  1.00  0.00     0.148 A 
HETATM   38  F2  UNL     1      -8.125   8.663  21.334  1.00  0.00    -0.203 F 
BRANCH  35  39
HETATM   39  O3  UNL     1      -5.857   6.118  18.028  1.00  0.00    -0.356 OA
HETATM   40  C15 UNL     1      -6.552   4.928  18.338  1.00  0.00     0.210 C 
ENDBRANCH  35  39
ENDBRANCH  13  31
TORSDOF 8
ENDMDL
MODEL 2
REMARK VINA RESULT: -9.564042366      0.042      1.411
REMARK  8 active torsions:
REMARK  status: ('A' for Active; 'I' for Inactive)
REMARK    1  A    between atoms: O1_2  and  C2_3 
REMARK    2  A    between atoms: C4_5  and  C5_6 
REMARK    3  A    between atoms: C5_6  and  N1_7 
REMARK    4  A    between atoms: N1_7  and  N2_9 
REMARK    5  A    between atoms: N2_9  and  C6_11 
REMARK    6  A    between atoms: N6_23  and  C11_25 
REMARK    7  A    between atoms: C14_29  and  O3_30 
REMARK    8  A    between atoms: C20_37  and  O4_38 
ROOT
HETATM    1  C6  UNL     1      -6.184  13.009  23.271  1.00  0.00     0.140 A 
HETATM    2  N3  UNL     1      -6.399  14.284  23.657  1.00  0.00    -0.330 N 
ATOM      3  H3  UNL     1      -6.187  14.535  24.622  1.00  0.00     0.168 HD
HETATM    4  C7  UNL     1      -6.875  15.236  22.846  1.00  0.00     0.080 A 
HETATM    5  C8  UNL     1      -7.083  16.629  23.358  1.00  0.00     0.089 C 
HETATM    6  N4  UNL     1      -7.154  14.909  21.575  1.00  0.00    -0.324 N 
ATOM      7  H4  UNL     1      -7.516  15.617  20.936  1.00  0.00     0.169 HD
HETATM    8  C9  UNL     1      -6.955  13.633  21.134  1.00  0.00     0.189 A 
HETATM    9  O2  UNL     1      -7.143  13.059  19.964  1.00  0.00    -0.217 OA
HETATM   10  N5  UNL     1      -6.818  11.804  19.980  1.00  0.00    -0.242 N 
ATOM     11  H5  UNL     1      -6.879  11.160  19.192  1.00  0.00     0.196 HD
HETATM   12  C10 UNL     1      -6.386  11.497  21.218  1.00  0.00     0.144 A 
HETATM   13  N6  UNL     1      -5.963  10.357  21.676  1.00  0.00    -0.335 N 
ATOM     14  H6  UNL     1      -5.659  10.248  22.643  1.00  0.00     0.168 HD
HETATM   15  C18 UNL     1      -6.467  12.648  21.962  1.00  0.00     0.108 A 
ENDROOT
BRANCH   1  16
HETATM   16  N2  UNL     1      -5.733  12.104  24.043  1.00  0.00    -0.285 N 
ATOM     17  H2  UNL     1      -6.380  11.389  24.374  1.00  0.00     0.188 HD
BRANCH  16  18
HETATM   18  N1  UNL     1      -4.398  12.034  24.463  1.00  0.00    -0.309 N 
ATOM     19  H1  UNL     1      -3.690  12.524  23.916  1.00  0.00     0.186 HD
BRANCH  18  20
HETATM   20  C5  UNL     1      -4.028  11.388  25.496  1.00  0.00     0.118 C 
BRANCH  20  21
HETATM   21  C4  UNL     1      -2.800  10.614  25.483  1.00  0.00    -0.014 A 
HETATM   22  C3  UNL     1      -1.992  10.628  24.343  1.00  0.00     0.049 A 
HETATM   23  C2  UNL     1      -0.828   9.907  24.309  1.00  0.00     0.071 A 
HETATM   24  C22 UNL     1      -0.461   9.171  25.397  1.00  0.00     0.073 A 
HETATM   25  C20 UNL     1      -1.233   9.122  26.562  1.00  0.00     0.071 A 
HETATM   26  C19 UNL     1      -2.400   9.857  26.572  1.00  0.00     0.049 A 
BRANCH  23  27
HETATM   27  O1  UNL     1      -0.055   9.945  23.166  1.00  0.00    -0.356 OA
HETATM   28  C1  UNL     1      -0.522  10.668  22.046  1.00  0.00     0.210 C 
ENDBRANCH  23  27
BRANCH  25  29
HETATM   29  O4  UNL     1      -0.835   8.363  27.658  1.00  0.00    -0.356 OA
HETATM   30  C21 UNL     1      -1.807   7.591  28.327  1.00  0.00     0.210 C 
ENDBRANCH  25  29
ENDBRANCH  20  21
ENDBRANCH  18  20
ENDBRANCH  16  18
ENDBRANCH   1  16
BRANCH  13  31
HETATM   31  C11 UNL     1      -5.946   9.252  20.749  1.00  0.00     0.112 A 
HETATM   32  C12 UNL     1      -7.053   8.438  20.628  1.00  0.00     0.148 A 
HETATM   33  F1  UNL     1      -8.144   8.676  21.376  1.00  0.00    -0.203 F 
HETATM   34  C13 UNL     1      -7.026   7.369  19.726  1.00  0.00     0.081 A 
HETATM   35  C14 UNL     1      -5.897   7.143  18.971  1.00  0.00     0.074 A 
HETATM   36  C16 UNL     1      -4.770   7.951  19.075  1.00  0.00     0.081 A 
HETATM   37  C17 UNL     1      -4.829   8.995  19.973  1.00  0.00     0.148 A 
HETATM   38  F2  UNL     1      -3.744   9.816  20.110  1.00  0.00    -0.203 F 
BRANCH  35  39
HETATM   39  O3  UNL     1      -5.873   6.088  18.080  1.00  0.00    -0.356 OA
HETATM   40  C15 UNL     1      -6.622   4.924  18.363  1.00  0.00     0.210 C 
ENDBRANCH  35  39
ENDBRANCH  13  31
TORSDOF 8
ENDMDL
MODEL 3
REMARK VINA RESULT: -9.538073331      0.171      2.652
REMARK  8 active torsions:
REMARK  status: ('A' for Active; 'I' for Inactive)
REMARK    1  A    between atoms: O1_2  and  C2_3 
REMARK    2  A    between atoms: C4_5  and  C5_6 
REMARK    3  A    between atoms: C5_6  and  N1_7 
REMARK    4  A    between atoms: N1_7  and  N2_9 
REMARK    5  A    between atoms: N2_9  and  C6_11 
REMARK    6  A    between atoms: N6_23  and  C11_25 
REMARK    7  A    between atoms: C14_29  and  O3_30 
REMARK    8  A    between atoms: C20_37  and  O4_38 
ROOT
HETATM    1  C6  UNL     1      -6.073  12.866  23.217  1.00  0.00     0.140 A 
HETATM    2  N3  UNL     1      -6.276  14.137  23.621  1.00  0.00    -0.330 N 
ATOM      3  H3  UNL     1      -6.016  14.385  24.575  1.00  0.00     0.168 HD
HETATM    4  C7  UNL     1      -6.798  15.090  22.841  1.00  0.00     0.080 A 
HETATM    5  C8  UNL     1      -6.989  16.480  23.370  1.00  0.00     0.089 C 
HETATM    6  N4  UNL     1      -7.140  14.768  21.584  1.00  0.00    -0.324 N 
ATOM      7  H4  UNL     1      -7.539  15.476  20.968  1.00  0.00     0.169 HD
HETATM    8  C9  UNL     1      -6.957  13.495  21.127  1.00  0.00     0.189 A 
HETATM    9  O2  UNL     1      -7.201  12.926  19.964  1.00  0.00    -0.217 OA
HETATM   10  N5  UNL     1      -6.868  11.673  19.958  1.00  0.00    -0.242 N 
ATOM     11  H5  UNL     1      -6.965  11.033  19.170  1.00  0.00     0.196 HD
HETATM   12  C10 UNL     1      -6.371  11.362  21.169  1.00  0.00     0.144 A 
HETATM   13  N6  UNL     1      -5.918  10.223  21.599  1.00  0.00    -0.335 N 
ATOM     14  H6  UNL     1      -5.564  10.111  22.549  1.00  0.00     0.168 HD
HETATM   15  C18 UNL     1      -6.420  12.509  21.923  1.00  0.00     0.108 A 
ENDROOT
BRANCH   1  16
HETATM   16  N2  UNL     1      -5.577  11.960  23.960  1.00  0.00    -0.285 N 
ATOM     17  H2  UNL     1      -6.033  11.048  23.975  1.00  0.00     0.188 HD
BRANCH  16  18
HETATM   18  N1  UNL     1      -4.440  12.144  24.758  1.00  0.00    -0.309 N 
ATOM     19  H1  UNL     1      -3.880  12.985  24.619  1.00  0.00     0.186 HD
BRANCH  18  20
HETATM   20  C5  UNL     1      -4.074  11.310  25.649  1.00  0.00     0.118 C 
BRANCH  20  21
HETATM   21  C4  UNL     1      -2.815  10.599  25.523  1.00  0.00    -0.014 A 
HETATM   22  C3  UNL     1      -2.345   9.839  26.597  1.00  0.00     0.049 A 
HETATM   23  C2  UNL     1      -1.161   9.160  26.500  1.00  0.00     0.071 A 
HETATM   24  C22 UNL     1      -0.438   9.229  25.346  1.00  0.00     0.073 A 
HETATM   25  C20 UNL     1      -0.861   9.974  24.241  1.00  0.00     0.071 A 
HETATM   26  C19 UNL     1      -2.058  10.649  24.364  1.00  0.00     0.049 A 
BRANCH  23  27
HETATM   27  O1  UNL     1      -0.729   8.419  27.582  1.00  0.00    -0.356 OA
HETATM   28  C1  UNL     1      -1.647   7.576  28.248  1.00  0.00     0.210 C 
ENDBRANCH  23  27
BRANCH  25  29
HETATM   29  O4  UNL     1      -0.105  10.027  23.075  1.00  0.00    -0.356 OA
HETATM   30  C21 UNL     1      -0.617  10.748  21.977  1.00  0.00     0.210 C 
ENDBRANCH  25  29
ENDBRANCH  20  21
ENDBRANCH  18  20
ENDBRANCH  16  18
ENDBRANCH   1  16
BRANCH  13  31
HETATM   31  C11 UNL     1      -5.942   9.123  20.666  1.00  0.00     0.112 A 
HETATM   32  C12 UNL     1      -7.054   8.312  20.589  1.00  0.00     0.148 A 
HETATM   33  F1  UNL     1      -8.113   8.548  21.382  1.00  0.00    -0.203 F 
HETATM   34  C13 UNL     1      -7.067   7.247  19.680  1.00  0.00     0.081 A 
HETATM   35  C14 UNL     1      -5.971   7.023  18.877  1.00  0.00     0.074 A 
HETATM   36  C16 UNL     1      -4.839   7.829  18.939  1.00  0.00     0.081 A 
HETATM   37  C17 UNL     1      -4.858   8.869  19.843  1.00  0.00     0.148 A 
HETATM   38  F2  UNL     1      -3.767   9.687  19.939  1.00  0.00    -0.203 F 
BRANCH  35  39
HETATM   39  O3  UNL     1      -5.986   5.972  17.981  1.00  0.00    -0.356 OA
HETATM   40  C15 UNL     1      -6.570   4.744  18.362  1.00  0.00     0.210 C 
ENDBRANCH  35  39
ENDBRANCH  13  31
TORSDOF 8
ENDMDL
MODEL 4
REMARK VINA RESULT: -9.459915602      0.237      2.236
REMARK  8 active torsions:
REMARK  status: ('A' for Active; 'I' for Inactive)
REMARK    1  A    between atoms: O1_2  and  C2_3 
REMARK    2  A    between atoms: C4_5  and  C5_6 
REMARK    3  A    between atoms: C5_6  and  N1_7 
REMARK    4  A    between atoms: N1_7  and  N2_9 
REMARK    5  A    between atoms: N2_9  and  C6_11 
REMARK    6  A    between atoms: N6_23  and  C11_25 
REMARK    7  A    between atoms: C14_29  and  O3_30 
REMARK    8  A    between atoms: C20_37  and  O4_38 
ROOT
HETATM    1  C6  UNL     1      -6.006  12.833  23.171  1.00  0.00     0.140 A 
HETATM    2  N3  UNL     1      -6.223  14.099  23.583  1.00  0.00    -0.330 N 
ATOM      3  H3  UNL     1      -5.946  14.350  24.532  1.00  0.00     0.168 HD
HETATM    4  C7  UNL     1      -6.780  15.045  22.818  1.00  0.00     0.080 A 
HETATM    5  C8  UNL     1      -6.984  16.429  23.355  1.00  0.00     0.089 C 
HETATM    6  N4  UNL     1      -7.144  14.719  21.568  1.00  0.00    -0.324 N 
ATOM      7  H4  UNL     1      -7.570  15.421  20.963  1.00  0.00     0.169 HD
HETATM    8  C9  UNL     1      -6.948  13.451  21.103  1.00  0.00     0.189 A 
HETATM    9  O2  UNL     1      -7.208  12.880  19.945  1.00  0.00    -0.217 OA
HETATM   10  N5  UNL     1      -6.852  11.634  19.927  1.00  0.00    -0.242 N 
ATOM     11  H5  UNL     1      -6.955  10.993  19.140  1.00  0.00     0.196 HD
HETATM   12  C10 UNL     1      -6.322  11.329  21.127  1.00  0.00     0.144 A 
HETATM   13  N6  UNL     1      -5.839  10.197  21.543  1.00  0.00    -0.335 N 
ATOM     14  H6  UNL     1      -5.461  10.090  22.484  1.00  0.00     0.168 HD
HETATM   15  C18 UNL     1      -6.375  12.473  21.885  1.00  0.00     0.108 A 
ENDROOT
BRANCH   1  16
HETATM   16  N2  UNL     1      -5.476  11.935  23.901  1.00  0.00    -0.285 N 
ATOM     17  H2  UNL     1      -5.851  10.988  23.844  1.00  0.00     0.188 HD
BRANCH  16  18
HETATM   18  N1  UNL     1      -4.408  12.172  24.776  1.00  0.00    -0.309 N 
ATOM     19  H1  UNL     1      -3.898  13.052  24.693  1.00  0.00     0.186 HD
BRANCH  18  20
HETATM   20  C5  UNL     1      -4.045  11.342  25.671  1.00  0.00     0.118 C 
BRANCH  20  21
HETATM   21  C4  UNL     1      -2.794  10.618  25.543  1.00  0.00    -0.014 A 
HETATM   22  C3  UNL     1      -2.322   9.867  26.623  1.00  0.00     0.049 A 
HETATM   23  C2  UNL     1      -1.144   9.176  26.525  1.00  0.00     0.071 A 
HETATM   24  C22 UNL     1      -0.431   9.223  25.364  1.00  0.00     0.073 A 
HETATM   25  C20 UNL     1      -0.858   9.958  24.253  1.00  0.00     0.071 A 
HETATM   26  C19 UNL     1      -2.047  10.645  24.377  1.00  0.00     0.049 A 
BRANCH  23  27
HETATM   27  O1  UNL     1      -0.709   8.445  27.613  1.00  0.00    -0.356 OA
HETATM   28  C1  UNL     1      -1.382   7.249  27.949  1.00  0.00     0.210 C 
ENDBRANCH  23  27
BRANCH  25  29
HETATM   29  O4  UNL     1      -0.111   9.988  23.080  1.00  0.00    -0.356 OA
HETATM   30  C21 UNL     1      -0.527  10.850  22.043  1.00  0.00     0.210 C 
ENDBRANCH  25  29
ENDBRANCH  20  21
ENDBRANCH  18  20
ENDBRANCH  16  18
ENDBRANCH   1  16
BRANCH  13  31
HETATM   31  C11 UNL     1      -5.863   9.099  20.608  1.00  0.00     0.112 A 
HETATM   32  C12 UNL     1      -4.766   8.849  19.812  1.00  0.00     0.148 A 
HETATM   33  F1  UNL     1      -3.676   9.630  19.908  1.00  0.00    -0.203 F 
HETATM   34  C13 UNL     1      -4.800   7.781  18.908  1.00  0.00     0.081 A 
HETATM   35  C14 UNL     1      -5.927   6.995  18.826  1.00  0.00     0.074 A 
HETATM   36  C16 UNL     1      -7.045   7.228  19.619  1.00  0.00     0.081 A 
HETATM   37  C17 UNL     1      -6.980   8.287  20.499  1.00  0.00     0.148 A 
HETATM   38  F2  UNL     1      -8.055   8.554  21.299  1.00  0.00    -0.203 F 
BRANCH  35  39
HETATM   39  O3  UNL     1      -5.959   5.940  17.934  1.00  0.00    -0.356 OA
HETATM   40  C15 UNL     1      -6.642   4.755  18.286  1.00  0.00     0.210 C 
ENDBRANCH  35  39
ENDBRANCH  13  31
TORSDOF 8
ENDMDL
MODEL 5
REMARK VINA RESULT: -9.202089602      3.200      7.607
REMARK  8 active torsions:
REMARK  status: ('A' for Active; 'I' for Inactive)
REMARK    1  A    between atoms: O1_2  and  C2_3 
REMARK    2  A    between atoms: C4_5  and  C5_6 
REMARK    3  A    between atoms: C5_6  and  N1_7 
REMARK    4  A    between atoms: N1_7  and  N2_9 
REMARK    5  A    between atoms: N2_9  and  C6_11 
REMARK    6  A    between atoms: N6_23  and  C11_25 
REMARK    7  A    between atoms: C14_29  and  O3_30 
REMARK    8  A    between atoms: C20_37  and  O4_38 
ROOT
HETATM    1  C6  UNL     1      -2.367  12.532  20.161  1.00  0.00     0.140 A 
HETATM    2  N3  UNL     1      -2.194  13.369  19.116  1.00  0.00    -0.330 N 
ATOM      3  H3  UNL     1      -2.905  13.376  18.385  1.00  0.00     0.168 HD
HETATM    4  C7  UNL     1      -1.145  14.188  18.984  1.00  0.00     0.080 A 
HETATM    5  C8  UNL     1      -1.033  15.086  17.790  1.00  0.00     0.089 C 
HETATM    6  N4  UNL     1      -0.208  14.181  19.945  1.00  0.00    -0.324 N 
ATOM      7  H4  UNL     1       0.601  14.797  19.870  1.00  0.00     0.169 HD
HETATM    8  C9  UNL     1      -0.335  13.353  21.023  1.00  0.00     0.189 A 
HETATM    9  O2  UNL     1       0.423  13.153  22.082  1.00  0.00    -0.217 OA
HETATM   10  N5  UNL     1      -0.080  12.260  22.876  1.00  0.00    -0.242 N 
ATOM     11  H5  UNL     1       0.331  11.943  23.754  1.00  0.00     0.196 HD
HETATM   12  C10 UNL     1      -1.235  11.823  22.342  1.00  0.00     0.144 A 
HETATM   13  N6  UNL     1      -2.063  10.933  22.802  1.00  0.00    -0.335 N 
ATOM     14  H6  UNL     1      -2.915  10.685  22.300  1.00  0.00     0.168 HD
HETATM   15  C18 UNL     1      -1.411  12.508  21.165  1.00  0.00     0.108 A 
ENDROOT
BRANCH   1  16
HETATM   16  N2  UNL     1      -3.365  11.754  20.284  1.00  0.00    -0.285 N 
ATOM     17  H2  UNL     1      -4.045  11.956  21.017  1.00  0.00     0.188 HD
BRANCH  16  18
HETATM   18  N1  UNL     1      -3.584  10.634  19.471  1.00  0.00    -0.309 N 
ATOM     19  H1  UNL     1      -3.692  10.776  18.467  1.00  0.00     0.186 HD
BRANCH  18  20
HETATM   20  C5  UNL     1      -3.653   9.447  19.928  1.00  0.00     0.118 C 
BRANCH  20  21
HETATM   21  C4  UNL     1      -4.888   8.690  19.835  1.00  0.00    -0.014 A 
HETATM   22  C3  UNL     1      -5.918   8.943  20.746  1.00  0.00     0.049 A 
HETATM   23  C2  UNL     1      -7.092   8.242  20.676  1.00  0.00     0.071 A 
HETATM   24  C22 UNL     1      -7.252   7.292  19.712  1.00  0.00     0.073 A 
HETATM   25  C20 UNL     1      -6.255   6.999  18.776  1.00  0.00     0.071 A 
HETATM   26  C19 UNL     1      -5.082   7.719  18.867  1.00  0.00     0.049 A 
BRANCH  23  27
HETATM   27  O1  UNL     1      -8.087   8.520  21.592  1.00  0.00    -0.356 OA
HETATM   28  C1  UNL     1      -8.551   9.848  21.720  1.00  0.00     0.210 C 
ENDBRANCH  23  27
BRANCH  25  29
HETATM   29  O4  UNL     1      -6.445   6.024  17.802  1.00  0.00    -0.356 OA
HETATM   30  C21 UNL     1      -6.290   4.671  18.169  1.00  0.00     0.210 C 
ENDBRANCH  25  29
ENDBRANCH  20  21
ENDBRANCH  18  20
ENDBRANCH  16  18
ENDBRANCH   1  16
BRANCH  13  31
HETATM   31  C11 UNL     1      -1.716  10.313  24.057  1.00  0.00     0.112 A 
HETATM   32  C12 UNL     1      -0.586   9.528  24.148  1.00  0.00     0.148 A 
HETATM   33  F1  UNL     1       0.189   9.342  23.065  1.00  0.00    -0.203 F 
HETATM   34  C13 UNL     1      -0.259   8.932  25.370  1.00  0.00     0.081 A 
HETATM   35  C14 UNL     1      -1.067   9.135  26.466  1.00  0.00     0.074 A 
HETATM   36  C16 UNL     1      -2.211   9.923  26.398  1.00  0.00     0.081 A 
HETATM   37  C17 UNL     1      -2.506  10.497  25.180  1.00  0.00     0.148 A 
HETATM   38  F2  UNL     1      -3.621  11.279  25.066  1.00  0.00    -0.203 F 
BRANCH  35  39
HETATM   39  O3  UNL     1      -0.742   8.546  27.672  1.00  0.00    -0.356 OA
HETATM   40  C15 UNL     1      -1.458   7.407  28.102  1.00  0.00     0.210 C 
ENDBRANCH  35  39
ENDBRANCH  13  31
TORSDOF 8
ENDMDL
