MODEL 1
REMARK VINA RESULT: -7.341000279      0.000      0.000
REMARK  8 active torsions:
REMARK  status: ('A' for Active; 'I' for Inactive)
REMARK    1  A    between atoms: N1_1  and  C1_5 
REMARK    2  A    between atoms: C1_5  and  C2_6 
REMARK    3  A    between atoms: C2_6  and  S1_7 
REMARK    4  A    between atoms: S1_7  and  C3_9 
REMARK    5  A    between atoms: C7_15  and  N3_16 
REMARK    6  A    between atoms: N3_16  and  N4_18 
REMARK    7  A    between atoms: N4_18  and  N5_19 
REMARK    8  A    between atoms: N4_18  and  N6_22 
ROOT
HETATM    1  C3  UNL     1      -0.479  79.785  24.346  1.00  0.00     0.032 A 
HETATM    2  C4  UNL     1      -1.349  80.510  23.557  1.00  0.00     0.023 A 
HETATM    3  C5  UNL     1      -2.641  80.091  23.303  1.00  0.00     0.032 A 
HETATM    4  C6  UNL     1      -3.107  78.904  23.848  1.00  0.00     0.065 A 
HETATM    5  N2  UNL     1      -4.361  78.460  23.624  1.00  0.00    -0.190 N 
ATOM      6  H2  UNL     1      -4.987  79.012  23.037  1.00  0.00     0.184 HD
HETATM    7  C7  UNL     1      -4.802  77.316  24.152  1.00  0.00     0.699 A 
HETATM    8  N7  UNL     1      -3.962  76.595  24.927  1.00  0.00    -0.154 N 
ATOM      9  H7  UNL     1      -4.293  75.720  25.333  1.00  0.00     0.187 HD
HETATM   10  C8  UNL     1      -2.697  76.997  25.180  1.00  0.00     0.272 A 
HETATM   11  O2  UNL     1      -1.927  76.314  25.905  1.00  0.00    -0.267 OA
HETATM   12  C9  UNL     1      -2.250  78.178  24.632  1.00  0.00     0.061 A 
HETATM   13  C10 UNL     1      -0.962  78.607  24.878  1.00  0.00     0.040 A 
ENDROOT
BRANCH   7  14
HETATM   14  N3  UNL     1      -6.125  76.835  23.924  1.00  0.00    -0.115 N 
ATOM     15  H3  UNL     1      -6.861  77.057  24.594  1.00  0.00     0.203 HD
BRANCH  14  16
HETATM   16  N4  UNL     1      -6.424  76.077  22.812  1.00  0.00    -0.039 NA
BRANCH  16  17
HETATM   17  N5  UNL     1      -5.406  76.040  21.864  1.00  0.00    -0.327 NA
ATOM     18  H52 UNL     1      -5.023  76.980  21.770  1.00  0.00     0.174 HD
ATOM     19  H51 UNL     1      -5.677  75.604  20.983  1.00  0.00     0.174 HD
ENDBRANCH  16  17
BRANCH  16  20
HETATM   20  N6  UNL     1      -6.804  74.777  23.089  1.00  0.00    -0.327 NA
ATOM     21  H62 UNL     1      -6.406  74.514  23.990  1.00  0.00     0.174 HD
ATOM     22  H61 UNL     1      -7.807  74.604  23.013  1.00  0.00     0.174 HD
ENDBRANCH  16  20
ENDBRANCH  14  16
ENDBRANCH   7  14
BRANCH   1  23
HETATM   23  S1  UNL     1       1.144  80.255  24.700  1.00  0.00     0.051 S 
HETATM   24  O1  UNL     1       1.391  81.895  24.658  1.00  0.00    -0.253 OA
BRANCH  23  25
HETATM   25  C2  UNL     1       2.341  79.363  23.746  1.00  0.00     0.141 C 
BRANCH  25  26
HETATM   26  C1  UNL     1       1.749  78.815  22.476  1.00  0.00     0.242 C 
BRANCH  26  27
HETATM   27  N1  UNL     1       1.854  77.371  22.503  1.00  0.00    -0.079 N 
ATOM     28  H13 UNL     1       2.409  77.006  21.729  1.00  0.00     0.274 HD
ATOM     29  H12 UNL     1       2.440  77.036  23.267  1.00  0.00     0.274 HD
ATOM     30  H11 UNL     1       0.913  76.976  22.529  1.00  0.00     0.274 HD
ENDBRANCH  26  27
ENDBRANCH  25  26
ENDBRANCH  23  25
ENDBRANCH   1  23
TORSDOF 8
ENDMDL
MODEL 2
REMARK VINA RESULT: -7.262917512      3.335      4.787
REMARK  8 active torsions:
REMARK  status: ('A' for Active; 'I' for Inactive)
REMARK    1  A    between atoms: N1_1  and  C1_5 
REMARK    2  A    between atoms: C1_5  and  C2_6 
REMARK    3  A    between atoms: C2_6  and  S1_7 
REMARK    4  A    between atoms: S1_7  and  C3_9 
REMARK    5  A    between atoms: C7_15  and  N3_16 
REMARK    6  A    between atoms: N3_16  and  N4_18 
REMARK    7  A    between atoms: N4_18  and  N5_19 
REMARK    8  A    between atoms: N4_18  and  N6_22 
ROOT
HETATM    1  C3  UNL     1       1.273  80.248  20.859  1.00  0.00     0.032 A 
HETATM    2  C4  UNL     1       2.115  79.317  21.431  1.00  0.00     0.023 A 
HETATM    3  C5  UNL     1       1.781  78.623  22.579  1.00  0.00     0.032 A 
HETATM    4  C6  UNL     1       0.561  78.849  23.197  1.00  0.00     0.065 A 
HETATM    5  N2  UNL     1       0.196  78.193  24.317  1.00  0.00    -0.190 N 
ATOM      6  H2  UNL     1       0.835  77.509  24.724  1.00  0.00     0.184 HD
HETATM    7  C7  UNL     1      -0.981  78.417  24.907  1.00  0.00     0.699 A 
HETATM    8  N7  UNL     1      -1.817  79.325  24.358  1.00  0.00    -0.154 N 
ATOM      9  H7  UNL     1      -2.717  79.500  24.803  1.00  0.00     0.187 HD
HETATM   10  C8  UNL     1      -1.497  80.008  23.237  1.00  0.00     0.272 A 
HETATM   11  O2  UNL     1      -2.288  80.851  22.737  1.00  0.00    -0.267 OA
HETATM   12  C9  UNL     1      -0.282  79.771  22.635  1.00  0.00     0.061 A 
HETATM   13  C10 UNL     1       0.064  80.458  21.489  1.00  0.00     0.040 A 
ENDROOT
BRANCH   7  14
HETATM   14  N3  UNL     1      -1.379  77.729  26.091  1.00  0.00    -0.115 N 
ATOM     15  H3  UNL     1      -0.856  77.874  26.955  1.00  0.00     0.203 HD
BRANCH  14  16
HETATM   16  N4  UNL     1      -2.459  76.872  26.086  1.00  0.00    -0.039 NA
BRANCH  16  17
HETATM   17  N5  UNL     1      -3.669  77.487  26.395  1.00  0.00    -0.327 NA
ATOM     18  H52 UNL     1      -4.165  76.897  27.063  1.00  0.00     0.174 HD
ATOM     19  H51 UNL     1      -4.216  77.755  25.578  1.00  0.00     0.174 HD
ENDBRANCH  16  17
BRANCH  16  20
HETATM   20  N6  UNL     1      -2.623  76.161  24.912  1.00  0.00    -0.327 NA
ATOM     21  H62 UNL     1      -2.567  75.166  25.132  1.00  0.00     0.174 HD
ATOM     22  H61 UNL     1      -3.448  76.419  24.372  1.00  0.00     0.174 HD
ENDBRANCH  16  20
ENDBRANCH  14  16
ENDBRANCH   7  14
BRANCH   1  23
HETATM   23  S1  UNL     1       1.634  81.146  19.429  1.00  0.00     0.051 S 
HETATM   24  O1  UNL     1       3.002  82.077  19.550  1.00  0.00    -0.253 OA
BRANCH  23  25
HETATM   25  C2  UNL     1       0.243  82.059  18.823  1.00  0.00     0.141 C 
BRANCH  25  26
HETATM   26  C1  UNL     1      -0.310  81.463  17.556  1.00  0.00     0.242 C 
BRANCH  26  27
HETATM   27  N1  UNL     1      -0.110  80.030  17.595  1.00  0.00    -0.079 N 
ATOM     28  H13 UNL     1      -0.615  79.545  16.853  1.00  0.00     0.274 HD
ATOM     29  H12 UNL     1       0.835  79.760  17.321  1.00  0.00     0.274 HD
ATOM     30  H11 UNL     1      -0.359  79.691  18.524  1.00  0.00     0.274 HD
ENDBRANCH  26  27
ENDBRANCH  25  26
ENDBRANCH  23  25
ENDBRANCH   1  23
TORSDOF 8
ENDMDL
MODEL 3
REMARK VINA RESULT: -7.188335015      2.674      6.487
REMARK  8 active torsions:
REMARK  status: ('A' for Active; 'I' for Inactive)
REMARK    1  A    between atoms: N1_1  and  C1_5 
REMARK    2  A    between atoms: C1_5  and  C2_6 
REMARK    3  A    between atoms: C2_6  and  S1_7 
REMARK    4  A    between atoms: S1_7  and  C3_9 
REMARK    5  A    between atoms: C7_15  and  N3_16 
REMARK    6  A    between atoms: N3_16  and  N4_18 
REMARK    7  A    between atoms: N4_18  and  N5_19 
REMARK    8  A    between atoms: N4_18  and  N6_22 
ROOT
HETATM    1  C3  UNL     1      -4.128  79.161  24.379  1.00  0.00     0.032 A 
HETATM    2  C4  UNL     1      -3.678  78.125  25.171  1.00  0.00     0.023 A 
HETATM    3  C5  UNL     1      -2.342  77.779  25.247  1.00  0.00     0.032 A 
HETATM    4  C6  UNL     1      -1.399  78.482  24.512  1.00  0.00     0.065 A 
HETATM    5  N2  UNL     1      -0.086  78.176  24.558  1.00  0.00    -0.190 N 
ATOM      6  H2  UNL     1       0.225  77.406  25.150  1.00  0.00     0.184 HD
HETATM    7  C7  UNL     1       0.816  78.857  23.847  1.00  0.00     0.699 A 
HETATM    8  N7  UNL     1       0.389  79.875  23.067  1.00  0.00    -0.154 N 
ATOM      9  H7  UNL     1       1.073  80.399  22.522  1.00  0.00     0.187 HD
HETATM   10  C8  UNL     1      -0.915  80.219  22.987  1.00  0.00     0.272 A 
HETATM   11  O2  UNL     1      -1.296  81.170  22.255  1.00  0.00    -0.267 OA
HETATM   12  C9  UNL     1      -1.838  79.512  23.723  1.00  0.00     0.061 A 
HETATM   13  C10 UNL     1      -3.175  79.848  23.656  1.00  0.00     0.040 A 
ENDROOT
BRANCH   7  14
HETATM   14  N3  UNL     1       2.206  78.545  23.887  1.00  0.00    -0.115 N 
ATOM     15  H3  UNL     1       2.840  79.146  24.414  1.00  0.00     0.203 HD
BRANCH  14  16
HETATM   16  N4  UNL     1       2.707  77.444  23.225  1.00  0.00    -0.039 NA
BRANCH  16  17
HETATM   17  N5  UNL     1       3.267  76.487  24.066  1.00  0.00    -0.327 NA
ATOM     18  H52 UNL     1       3.956  76.948  24.660  1.00  0.00     0.174 HD
ATOM     19  H51 UNL     1       3.614  75.661  23.578  1.00  0.00     0.174 HD
ENDBRANCH  16  17
BRANCH  16  20
HETATM   20  N6  UNL     1       1.802  76.813  22.393  1.00  0.00    -0.327 NA
ATOM     21  H62 UNL     1       2.087  76.977  21.428  1.00  0.00     0.174 HD
ATOM     22  H61 UNL     1       1.636  75.831  22.614  1.00  0.00     0.174 HD
ENDBRANCH  16  20
ENDBRANCH  14  16
ENDBRANCH   7  14
BRANCH   1  23
HETATM   23  S1  UNL     1      -5.782  79.641  24.242  1.00  0.00     0.051 S 
HETATM   24  O1  UNL     1      -6.479  80.061  25.687  1.00  0.00    -0.253 OA
BRANCH  23  25
HETATM   25  C2  UNL     1      -6.760  78.481  23.328  1.00  0.00     0.141 C 
BRANCH  25  26
HETATM   26  C1  UNL     1      -5.940  77.316  22.843  1.00  0.00     0.242 C 
BRANCH  26  27
HETATM   27  N1  UNL     1      -6.475  76.101  23.421  1.00  0.00    -0.079 N 
ATOM     28  H13 UNL     1      -5.745  75.478  23.766  1.00  0.00     0.274 HD
ATOM     29  H12 UNL     1      -6.949  76.267  24.309  1.00  0.00     0.274 HD
ATOM     30  H11 UNL     1      -7.080  75.652  22.734  1.00  0.00     0.274 HD
ENDBRANCH  26  27
ENDBRANCH  25  26
ENDBRANCH  23  25
ENDBRANCH   1  23
TORSDOF 8
ENDMDL
MODEL 4
REMARK VINA RESULT: -7.120510251      4.220      5.498
REMARK  8 active torsions:
REMARK  status: ('A' for Active; 'I' for Inactive)
REMARK    1  A    between atoms: N1_1  and  C1_5 
REMARK    2  A    between atoms: C1_5  and  C2_6 
REMARK    3  A    between atoms: C2_6  and  S1_7 
REMARK    4  A    between atoms: S1_7  and  C3_9 
REMARK    5  A    between atoms: C7_15  and  N3_16 
REMARK    6  A    between atoms: N3_16  and  N4_18 
REMARK    7  A    between atoms: N4_18  and  N5_19 
REMARK    8  A    between atoms: N4_18  and  N6_22 
ROOT
HETATM    1  C3  UNL     1       0.542  81.176  19.850  1.00  0.00     0.032 A 
HETATM    2  C4  UNL     1      -0.590  81.702  20.436  1.00  0.00     0.023 A 
HETATM    3  C5  UNL     1      -1.087  81.233  21.638  1.00  0.00     0.032 A 
HETATM    4  C6  UNL     1      -0.444  80.198  22.299  1.00  0.00     0.065 A 
HETATM    5  N2  UNL     1      -0.897  79.712  23.473  1.00  0.00    -0.190 N 
ATOM      6  H2  UNL     1      -1.736  80.115  23.889  1.00  0.00     0.184 HD
HETATM    7  C7  UNL     1      -0.273  78.713  24.103  1.00  0.00     0.699 A 
HETATM    8  N7  UNL     1       0.838  78.188  23.541  1.00  0.00    -0.154 N 
ATOM      9  H7  UNL     1       1.320  77.426  24.018  1.00  0.00     0.187 HD
HETATM   10  C8  UNL     1       1.330  78.640  22.367  1.00  0.00     0.272 A 
HETATM   11  O2  UNL     1       2.367  78.140  21.856  1.00  0.00    -0.267 OA
HETATM   12  C9  UNL     1       0.681  79.670  21.724  1.00  0.00     0.061 A 
HETATM   13  C10 UNL     1       1.167  80.147  20.523  1.00  0.00     0.040 A 
ENDROOT
BRANCH   7  14
HETATM   14  N3  UNL     1      -0.740  78.190  25.344  1.00  0.00    -0.115 N 
ATOM     15  H3  UNL     1      -0.450  78.634  26.216  1.00  0.00     0.203 HD
BRANCH  14  16
HETATM   16  N4  UNL     1      -1.576  77.095  25.384  1.00  0.00    -0.039 NA
BRANCH  16  17
HETATM   17  N5  UNL     1      -2.664  77.247  26.239  1.00  0.00    -0.327 NA
ATOM     18  H52 UNL     1      -2.848  78.244  26.347  1.00  0.00     0.174 HD
ATOM     19  H51 UNL     1      -2.576  76.735  27.116  1.00  0.00     0.174 HD
ENDBRANCH  16  17
BRANCH  16  20
HETATM   20  N6  UNL     1      -2.048  76.687  24.151  1.00  0.00    -0.327 NA
ATOM     21  H62 UNL     1      -1.993  77.479  23.511  1.00  0.00     0.174 HD
ATOM     22  H61 UNL     1      -1.616  75.835  23.793  1.00  0.00     0.174 HD
ENDBRANCH  16  20
ENDBRANCH  14  16
ENDBRANCH   7  14
BRANCH   1  23
HETATM   23  S1  UNL     1       1.212  81.718  18.353  1.00  0.00     0.051 S 
HETATM   24  O1  UNL     1       2.869  81.673  18.305  1.00  0.00    -0.253 OA
BRANCH  23  25
HETATM   25  C2  UNL     1       0.560  83.282  17.837  1.00  0.00     0.141 C 
BRANCH  25  26
HETATM   26  C1  UNL     1      -0.262  83.160  16.582  1.00  0.00     0.242 C 
BRANCH  26  27
HETATM   27  N1  UNL     1      -0.770  81.806  16.493  1.00  0.00    -0.079 N 
ATOM     28  H13 UNL     1      -1.042  81.431  17.402  1.00  0.00     0.274 HD
ATOM     29  H12 UNL     1      -1.684  81.760  16.043  1.00  0.00     0.274 HD
ATOM     30  H11 UNL     1      -0.073  81.227  16.024  1.00  0.00     0.274 HD
ENDBRANCH  26  27
ENDBRANCH  25  26
ENDBRANCH  23  25
ENDBRANCH   1  23
TORSDOF 8
ENDMDL
MODEL 5
REMARK VINA RESULT: -7.104209611      2.999      6.609
REMARK  8 active torsions:
REMARK  status: ('A' for Active; 'I' for Inactive)
REMARK    1  A    between atoms: N1_1  and  C1_5 
REMARK    2  A    between atoms: C1_5  and  C2_6 
REMARK    3  A    between atoms: C2_6  and  S1_7 
REMARK    4  A    between atoms: S1_7  and  C3_9 
REMARK    5  A    between atoms: C7_15  and  N3_16 
REMARK    6  A    between atoms: N3_16  and  N4_18 
REMARK    7  A    between atoms: N4_18  and  N5_19 
REMARK    8  A    between atoms: N4_18  and  N6_22 
ROOT
HETATM    1  C3  UNL     1      -4.264  78.613  23.779  1.00  0.00     0.032 A 
HETATM    2  C4  UNL     1      -4.102  79.843  23.177  1.00  0.00     0.023 A 
HETATM    3  C5  UNL     1      -2.924  80.561  23.266  1.00  0.00     0.032 A 
HETATM    4  C6  UNL     1      -1.850  80.049  23.977  1.00  0.00     0.065 A 
HETATM    5  N2  UNL     1      -0.684  80.716  24.088  1.00  0.00    -0.190 N 
ATOM      6  H2  UNL     1      -0.586  81.625  23.635  1.00  0.00     0.184 HD
HETATM    7  C7  UNL     1       0.346  80.217  24.776  1.00  0.00     0.699 A 
HETATM    8  N7  UNL     1       0.202  79.012  25.371  1.00  0.00    -0.154 N 
ATOM      9  H7  UNL     1       0.985  78.624  25.897  1.00  0.00     0.187 HD
HETATM   10  C8  UNL     1      -0.946  78.304  25.289  1.00  0.00     0.272 A 
HETATM   11  O2  UNL     1      -1.064  77.183  25.849  1.00  0.00    -0.267 OA
HETATM   12  C9  UNL     1      -2.002  78.827  24.578  1.00  0.00     0.061 A 
HETATM   13  C10 UNL     1      -3.184  78.120  24.482  1.00  0.00     0.040 A 
ENDROOT
BRANCH   7  14
HETATM   14  N3  UNL     1       1.584  80.912  24.900  1.00  0.00    -0.115 N 
ATOM     15  H3  UNL     1       1.611  81.805  25.392  1.00  0.00     0.203 HD
BRANCH  14  16
HETATM   16  N4  UNL     1       2.746  80.395  24.366  1.00  0.00    -0.039 NA
BRANCH  16  17
HETATM   17  N5  UNL     1       3.525  79.694  25.282  1.00  0.00    -0.327 NA
ATOM     18  H52 UNL     1       3.992  80.369  25.887  1.00  0.00     0.174 HD
ATOM     19  H51 UNL     1       4.146  79.007  24.855  1.00  0.00     0.174 HD
ENDBRANCH  16  17
BRANCH  16  20
HETATM   20  N6  UNL     1       2.561  79.596  23.254  1.00  0.00    -0.327 NA
ATOM     21  H62 UNL     1       2.446  80.202  22.441  1.00  0.00     0.174 HD
ATOM     22  H61 UNL     1       3.267  78.870  23.132  1.00  0.00     0.174 HD
ENDBRANCH  16  20
ENDBRANCH  14  16
ENDBRANCH   7  14
BRANCH   1  23
HETATM   23  S1  UNL     1      -5.709  77.669  23.705  1.00  0.00     0.051 S 
HETATM   24  O1  UNL     1      -5.936  76.688  25.023  1.00  0.00    -0.253 OA
BRANCH  23  25
HETATM   25  C2  UNL     1      -5.882  76.799  22.172  1.00  0.00     0.141 C 
BRANCH  25  26
HETATM   26  C1  UNL     1      -5.573  75.334  22.322  1.00  0.00     0.242 C 
BRANCH  26  27
HETATM   27  N1  UNL     1      -6.704  74.685  22.952  1.00  0.00    -0.079 N 
ATOM     28  H13 UNL     1      -6.494  74.367  23.899  1.00  0.00     0.274 HD
ATOM     29  H12 UNL     1      -7.449  75.340  23.187  1.00  0.00     0.274 HD
ATOM     30  H11 UNL     1      -7.024  73.928  22.347  1.00  0.00     0.274 HD
ENDBRANCH  26  27
ENDBRANCH  25  26
ENDBRANCH  23  25
ENDBRANCH   1  23
TORSDOF 8
ENDMDL
