MODEL 1
REMARK VINA RESULT: -6.977047373      0.000      0.000
REMARK  5 active torsions:
REMARK  status: ('A' for Active; 'I' for Inactive)
REMARK    1  A    between atoms: C6_6  and  C7_7 
REMARK    2  A    between atoms: N1_8  and  N2_10 
REMARK       I    between atoms: N2_10  and  C8_12 
REMARK    3  A    between atoms: C8_12  and  C9_14 
REMARK    4  A    between atoms: C9_14  and  N3_15 
REMARK    5  A    between atoms: C9_14  and  C10_19 
ROOT
HETATM    1  N2  UNL     1      -3.746  77.081  23.495  1.00  0.00    -0.268 N 
ATOM      2  H2  UNL     1      -4.580  77.457  23.042  1.00  0.00     0.190 HD
HETATM    3  C8  UNL     1      -3.582  75.681  23.620  1.00  0.00     0.271 C 
HETATM    4  O1  UNL     1      -2.575  75.158  24.167  1.00  0.00    -0.269 OA
ENDROOT
BRANCH   1   5
HETATM    5  N1  UNL     1      -2.777  77.947  23.986  1.00  0.00    -0.308 N 
HETATM    6  C7  UNL     1      -2.552  79.035  23.349  1.00  0.00     0.118 C 
ATOM      7  H1  UNL     1      -2.258  77.722  24.834  1.00  0.00     0.186 HD
BRANCH   6   8
HETATM    8  C6  UNL     1      -1.537  79.942  23.864  1.00  0.00    -0.019 A 
HETATM    9  C5  UNL     1      -0.405  79.464  24.487  1.00  0.00     0.013 A 
HETATM   10  C4  UNL     1       0.553  80.313  24.973  1.00  0.00     0.001 A 
HETATM   11  C3  UNL     1       0.392  81.693  24.842  1.00  0.00     0.007 A 
HETATM   12  C2  UNL     1      -0.730  82.207  24.224  1.00  0.00    -0.061 A 
HETATM   13  C1  UNL     1      -0.877  83.685  24.097  1.00  0.00     0.048 C 
HETATM   14  C11 UNL     1      -1.656  81.317  23.756  1.00  0.00     0.019 A 
ENDBRANCH   6   8
ENDBRANCH   1   5
BRANCH   3  15
HETATM   15  C9  UNL     1      -4.634  74.783  23.085  1.00  0.00     0.314 C 
BRANCH  15  16
HETATM   16  N3  UNL     1      -4.157  74.099  21.913  1.00  0.00    -0.062 N 
ATOM     17  H33 UNL     1      -3.155  74.229  21.778  1.00  0.00     0.275 HD
ATOM     18  H32 UNL     1      -4.163  73.087  22.034  1.00  0.00     0.275 HD
ATOM     19  H31 UNL     1      -4.692  74.388  21.093  1.00  0.00     0.275 HD
ENDBRANCH  15  16
BRANCH  15  20
HETATM   20  C10 UNL     1      -5.860  75.558  22.845  1.00  0.00     0.095 C 
HETATM   21  N4  UNL     1      -7.004  75.016  23.019  1.00  0.00    -0.409 N 
ATOM     22  H42 UNL     1      -7.049  74.044  23.324  1.00  0.00     0.155 HD
ATOM     23  H41 UNL     1      -7.854  75.553  22.852  1.00  0.00     0.155 HD
ENDBRANCH  15  20
ENDBRANCH   3  15
TORSDOF 5
ENDMDL
MODEL 2
REMARK VINA RESULT: -6.680286427      4.684      7.047
REMARK  5 active torsions:
REMARK  status: ('A' for Active; 'I' for Inactive)
REMARK    1  A    between atoms: C6_6  and  C7_7 
REMARK    2  A    between atoms: N1_8  and  N2_10 
REMARK       I    between atoms: N2_10  and  C8_12 
REMARK    3  A    between atoms: C8_12  and  C9_14 
REMARK    4  A    between atoms: C9_14  and  N3_15 
REMARK    5  A    between atoms: C9_14  and  C10_19 
ROOT
HETATM    1  N2  UNL     1      -5.619  76.748  21.896  1.00  0.00    -0.268 N 
ATOM      2  H2  UNL     1      -5.279  76.419  20.991  1.00  0.00     0.190 HD
HETATM    3  C8  UNL     1      -5.223  76.083  23.081  1.00  0.00     0.271 C 
HETATM    4  O1  UNL     1      -5.608  76.441  24.226  1.00  0.00    -0.269 OA
ENDROOT
BRANCH   1   5
HETATM    5  N1  UNL     1      -6.468  77.845  21.958  1.00  0.00    -0.308 N 
HETATM    6  C7  UNL     1      -7.613  77.763  21.393  1.00  0.00     0.118 C 
ATOM      7  H1  UNL     1      -6.185  78.696  22.443  1.00  0.00     0.186 HD
BRANCH   6   8
HETATM    8  C6  UNL     1      -8.503  78.913  21.459  1.00  0.00    -0.019 A 
HETATM    9  C5  UNL     1      -8.016  80.177  21.709  1.00  0.00     0.013 A 
HETATM   10  C4  UNL     1      -8.848  81.262  21.771  1.00  0.00     0.001 A 
HETATM   11  C3  UNL     1     -10.221  81.098  21.582  1.00  0.00     0.007 A 
HETATM   12  C2  UNL     1     -10.744  79.847  21.329  1.00  0.00    -0.061 A 
HETATM   13  C1  UNL     1     -12.214  79.701  21.129  1.00  0.00     0.048 C 
HETATM   14  C11 UNL     1      -9.870  78.796  21.276  1.00  0.00     0.019 A 
ENDBRANCH   6   8
ENDBRANCH   1   5
BRANCH   3  15
HETATM   15  C9  UNL     1      -4.316  74.914  22.981  1.00  0.00     0.314 C 
BRANCH  15  16
HETATM   16  N3  UNL     1      -4.983  73.725  23.441  1.00  0.00    -0.062 N 
ATOM     17  H33 UNL     1      -4.333  73.064  23.866  1.00  0.00     0.275 HD
ATOM     18  H32 UNL     1      -5.567  73.908  24.256  1.00  0.00     0.275 HD
ATOM     19  H31 UNL     1      -5.513  73.300  22.680  1.00  0.00     0.275 HD
ENDBRANCH  15  16
BRANCH  15  20
HETATM   20  C10 UNL     1      -3.072  75.199  23.711  1.00  0.00     0.095 C 
HETATM   21  N4  UNL     1      -2.630  76.396  23.778  1.00  0.00    -0.409 N 
ATOM     22  H42 UNL     1      -3.153  77.143  23.320  1.00  0.00     0.155 HD
ATOM     23  H41 UNL     1      -1.767  76.594  24.284  1.00  0.00     0.155 HD
ENDBRANCH  15  20
ENDBRANCH   3  15
TORSDOF 5
ENDMDL
MODEL 3
REMARK VINA RESULT: -6.552826070      0.942      1.385
REMARK  5 active torsions:
REMARK  status: ('A' for Active; 'I' for Inactive)
REMARK    1  A    between atoms: C6_6  and  C7_7 
REMARK    2  A    between atoms: N1_8  and  N2_10 
REMARK       I    between atoms: N2_10  and  C8_12 
REMARK    3  A    between atoms: C8_12  and  C9_14 
REMARK    4  A    between atoms: C9_14  and  N3_15 
REMARK    5  A    between atoms: C9_14  and  C10_19 
ROOT
HETATM    1  N2  UNL     1      -4.050  78.106  23.291  1.00  0.00    -0.268 N 
ATOM      2  H2  UNL     1      -4.709  78.485  22.610  1.00  0.00     0.190 HD
HETATM    3  C8  UNL     1      -4.099  76.733  23.631  1.00  0.00     0.271 C 
HETATM    4  O1  UNL     1      -3.313  76.207  24.463  1.00  0.00    -0.269 OA
ENDROOT
BRANCH   1   5
HETATM    5  N1  UNL     1      -3.108  78.940  23.880  1.00  0.00    -0.308 N 
HETATM    6  C7  UNL     1      -2.370  79.660  23.121  1.00  0.00     0.118 C 
ATOM      7  H1  UNL     1      -3.007  78.979  24.894  1.00  0.00     0.186 HD
BRANCH   6   8
HETATM    8  C6  UNL     1      -1.384  80.534  23.739  1.00  0.00    -0.019 A 
HETATM    9  C5  UNL     1      -0.267  80.020  24.359  1.00  0.00     0.013 A 
HETATM   10  C4  UNL     1       0.664  80.838  24.942  1.00  0.00     0.001 A 
HETATM   11  C3  UNL     1       0.489  82.222  24.915  1.00  0.00     0.007 A 
HETATM   12  C2  UNL     1      -0.618  82.772  24.302  1.00  0.00    -0.061 A 
HETATM   13  C1  UNL     1      -0.780  84.253  24.286  1.00  0.00     0.048 C 
HETATM   14  C11 UNL     1      -1.518  81.912  23.735  1.00  0.00     0.019 A 
ENDBRANCH   6   8
ENDBRANCH   1   5
BRANCH   3  15
HETATM   15  C9  UNL     1      -5.116  75.869  22.984  1.00  0.00     0.314 C 
BRANCH  15  16
HETATM   16  N3  UNL     1      -6.320  75.840  23.772  1.00  0.00    -0.062 N 
ATOM     17  H33 UNL     1      -6.665  76.778  23.974  1.00  0.00     0.275 HD
ATOM     18  H32 UNL     1      -7.117  75.497  23.237  1.00  0.00     0.275 HD
ATOM     19  H31 UNL     1      -6.171  75.299  24.624  1.00  0.00     0.275 HD
ENDBRANCH  15  16
BRANCH  15  20
HETATM   20  C10 UNL     1      -4.544  74.535  22.751  1.00  0.00     0.095 C 
HETATM   21  N4  UNL     1      -4.845  73.566  23.528  1.00  0.00    -0.409 N 
ATOM     22  H42 UNL     1      -5.483  73.734  24.305  1.00  0.00     0.155 HD
ATOM     23  H41 UNL     1      -4.448  72.640  23.367  1.00  0.00     0.155 HD
ENDBRANCH  15  20
ENDBRANCH   3  15
TORSDOF 5
ENDMDL
MODEL 4
REMARK VINA RESULT: -6.527230053      6.045      8.628
REMARK  5 active torsions:
REMARK  status: ('A' for Active; 'I' for Inactive)
REMARK    1  A    between atoms: C6_6  and  C7_7 
REMARK    2  A    between atoms: N1_8  and  N2_10 
REMARK       I    between atoms: N2_10  and  C8_12 
REMARK    3  A    between atoms: C8_12  and  C9_14 
REMARK    4  A    between atoms: C9_14  and  N3_15 
REMARK    5  A    between atoms: C9_14  and  C10_19 
ROOT
HETATM    1  N2  UNL     1      -7.600  77.983  22.151  1.00  0.00    -0.268 N 
ATOM      2  H2  UNL     1      -6.956  78.404  22.821  1.00  0.00     0.190 HD
HETATM    3  C8  UNL     1      -7.205  76.840  21.417  1.00  0.00     0.271 C 
HETATM    4  O1  UNL     1      -7.955  76.276  20.576  1.00  0.00    -0.269 OA
ENDROOT
BRANCH   1   5
HETATM    5  N1  UNL     1      -8.860  78.537  21.962  1.00  0.00    -0.308 N 
HETATM    6  C7  UNL     1      -8.940  79.764  21.607  1.00  0.00     0.118 C 
ATOM      7  H1  UNL     1      -9.701  77.978  22.101  1.00  0.00     0.186 HD
BRANCH   6   8
HETATM    8  C6  UNL     1     -10.260  80.344  21.409  1.00  0.00    -0.019 A 
HETATM    9  C5  UNL     1     -10.427  81.703  21.264  1.00  0.00     0.013 A 
HETATM   10  C4  UNL     1     -11.667  82.253  21.076  1.00  0.00     0.001 A 
HETATM   11  C3  UNL     1     -12.794  81.431  21.032  1.00  0.00     0.007 A 
HETATM   12  C2  UNL     1     -12.664  80.065  21.174  1.00  0.00    -0.061 A 
HETATM   13  C1  UNL     1     -13.884  79.210  21.121  1.00  0.00     0.048 C 
HETATM   14  C11 UNL     1     -11.404  79.566  21.358  1.00  0.00     0.019 A 
ENDBRANCH   6   8
ENDBRANCH   1   5
BRANCH   3  15
HETATM   15  C9  UNL     1      -5.853  76.272  21.641  1.00  0.00     0.314 C 
BRANCH  15  16
HETATM   16  N3  UNL     1      -5.322  75.749  20.411  1.00  0.00    -0.062 N 
ATOM     17  H33 UNL     1      -5.266  74.731  20.423  1.00  0.00     0.275 HD
ATOM     18  H32 UNL     1      -5.978  75.855  19.637  1.00  0.00     0.275 HD
ATOM     19  H31 UNL     1      -4.419  76.177  20.205  1.00  0.00     0.275 HD
ENDBRANCH  15  16
BRANCH  15  20
HETATM   20  C10 UNL     1      -5.917  75.272  22.717  1.00  0.00     0.095 C 
HETATM   21  N4  UNL     1      -7.044  74.787  23.073  1.00  0.00    -0.409 N 
ATOM     22  H42 UNL     1      -7.891  75.105  22.601  1.00  0.00     0.155 HD
ATOM     23  H41 UNL     1      -7.089  74.094  23.819  1.00  0.00     0.155 HD
ENDBRANCH  15  20
ENDBRANCH   3  15
TORSDOF 5
ENDMDL
MODEL 5
REMARK VINA RESULT: -6.464884432      1.199      1.681
REMARK  5 active torsions:
REMARK  status: ('A' for Active; 'I' for Inactive)
REMARK    1  A    between atoms: C6_6  and  C7_7 
REMARK    2  A    between atoms: N1_8  and  N2_10 
REMARK       I    between atoms: N2_10  and  C8_12 
REMARK    3  A    between atoms: C8_12  and  C9_14 
REMARK    4  A    between atoms: C9_14  and  N3_15 
REMARK    5  A    between atoms: C9_14  and  C10_19 
ROOT
HETATM    1  N2  UNL     1      -4.930  77.756  22.899  1.00  0.00    -0.268 N 
ATOM      2  H2  UNL     1      -5.576  78.428  22.483  1.00  0.00     0.190 HD
HETATM    3  C8  UNL     1      -5.272  76.384  22.943  1.00  0.00     0.271 C 
HETATM    4  O1  UNL     1      -4.518  75.507  23.443  1.00  0.00    -0.269 OA
ENDROOT
BRANCH   1   5
HETATM    5  N1  UNL     1      -3.719  78.193  23.421  1.00  0.00    -0.308 N 
HETATM    6  C7  UNL     1      -3.348  79.394  23.177  1.00  0.00     0.118 C 
ATOM      7  H1  UNL     1      -3.139  77.572  23.984  1.00  0.00     0.186 HD
BRANCH   6   8
HETATM    8  C6  UNL     1      -2.079  79.851  23.723  1.00  0.00    -0.019 A 
HETATM    9  C5  UNL     1      -1.183  78.966  24.282  1.00  0.00     0.013 A 
HETATM   10  C4  UNL     1       0.012  79.391  24.797  1.00  0.00     0.001 A 
HETATM   11  C3  UNL     1       0.342  80.747  24.764  1.00  0.00     0.007 A 
HETATM   12  C2  UNL     1      -0.531  81.662  24.213  1.00  0.00    -0.061 A 
HETATM   13  C1  UNL     1      -0.154  83.104  24.189  1.00  0.00     0.048 C 
HETATM   14  C11 UNL     1      -1.711  81.186  23.711  1.00  0.00     0.019 A 
ENDBRANCH   6   8
ENDBRANCH   1   5
BRANCH   3  15
HETATM   15  C9  UNL     1      -6.573  75.949  22.378  1.00  0.00     0.314 C 
BRANCH  15  16
HETATM   16  N3  UNL     1      -7.071  74.806  23.097  1.00  0.00    -0.062 N 
ATOM     17  H33 UNL     1      -7.103  73.972  22.511  1.00  0.00     0.275 HD
ATOM     18  H32 UNL     1      -6.405  74.476  23.795  1.00  0.00     0.275 HD
ATOM     19  H31 UNL     1      -7.981  75.017  23.509  1.00  0.00     0.275 HD
ENDBRANCH  15  16
BRANCH  15  20
HETATM   20  C10 UNL     1      -6.420  75.704  20.936  1.00  0.00     0.095 C 
HETATM   21  N4  UNL     1      -5.612  74.806  20.522  1.00  0.00    -0.409 N 
ATOM     22  H42 UNL     1      -5.080  74.266  21.205  1.00  0.00     0.155 HD
ATOM     23  H41 UNL     1      -5.506  74.637  19.522  1.00  0.00     0.155 HD
ENDBRANCH  15  20
ENDBRANCH   3  15
TORSDOF 5
ENDMDL
