MODEL 1
REMARK VINA RESULT: -7.936786326      0.000      0.000
REMARK  10 active torsions:
REMARK  status: ('A' for Active; 'I' for Inactive)
REMARK    1  A    between atoms: C2_2  and  C5_5 
REMARK    2  A    between atoms: C5_5  and  N1_6 
REMARK    3  A    between atoms: C5_5  and  C17_20 
REMARK       I    between atoms: N1_6  and  C6_8 
REMARK    4  A    between atoms: C6_8  and  C7_10 
REMARK    5  A    between atoms: C17_20  and  O2_21 
REMARK    6  A    between atoms: C17_20  and  C18_23 
REMARK    7  A    between atoms: C18_23  and  C19_26 
REMARK    8  A    between atoms: C19_26  and  O3_27 
REMARK    9  A    between atoms: C19_26  and  C20_29 
REMARK       I    between atoms: C20_29  and  N2_31 
REMARK   10  A    between atoms: C24_35  and  C25_36 
ROOT
HETATM    1  C5  UNL     1      10.337  64.704   1.067  1.00  0.00     0.126 C 
ENDROOT
BRANCH   1   2
HETATM    2  C2  UNL     1      11.170  63.959   0.129  1.00  0.00    -0.028 C 
HETATM    3  C1  UNL     1      10.806  63.693  -1.257  1.00  0.00     0.016 C 
HETATM    4  C3  UNL     1      12.561  64.627   0.094  1.00  0.00     0.016 C 
HETATM    5  C4  UNL     1      11.477  62.565   0.753  1.00  0.00     0.016 C 
ENDBRANCH   1   2
BRANCH   1   6
HETATM    6  N1  UNL     1       9.523  63.614   1.742  1.00  0.00    -0.352 N 
HETATM    7  C6  UNL     1       8.226  63.309   1.333  1.00  0.00     0.226 C 
HETATM    8  O1  UNL     1       7.672  63.935   0.372  1.00  0.00    -0.273 OA
ATOM      9  H1  UNL     1       9.937  63.091   2.514  1.00  0.00     0.163 HD
BRANCH   7  10
HETATM   10  C7  UNL     1       7.456  62.256   1.996  1.00  0.00     0.042 C 
HETATM   11  C8  UNL     1       6.904  62.776   3.303  1.00  0.00     0.024 C 
HETATM   12  C9  UNL     1       6.054  61.773   4.015  1.00  0.00    -0.013 C 
HETATM   13  C10 UNL     1       6.908  60.581   4.362  1.00  0.00     0.009 C 
HETATM   14  C14 UNL     1       4.917  61.389   3.101  1.00  0.00     0.009 C 
HETATM   15  C11 UNL     1       7.485  60.045   3.075  1.00  0.00    -0.013 C 
HETATM   16  C12 UNL     1       6.329  59.532   2.238  1.00  0.00     0.009 C 
HETATM   17  C16 UNL     1       8.326  61.053   2.354  1.00  0.00     0.024 C 
HETATM   18  C13 UNL     1       5.493  60.746   1.869  1.00  0.00    -0.013 C 
HETATM   19  C15 UNL     1       6.345  61.705   1.111  1.00  0.00     0.024 C 
ENDBRANCH   7  10
ENDBRANCH   1   6
BRANCH   1  20
HETATM   20  C17 UNL     1      10.897  65.453   2.218  1.00  0.00     0.217 C 
BRANCH  20  21
HETATM   21  O2  UNL     1      10.388  64.685   3.371  1.00  0.00    -0.387 OA
ATOM     22  H2  UNL     1      10.563  65.270   4.098  1.00  0.00     0.210 HD
ENDBRANCH  20  21
BRANCH  20  23
HETATM   23  C18 UNL     1      10.299  66.797   2.529  1.00  0.00     0.304 C 
HETATM   24  F1  UNL     1      11.117  67.767   2.967  1.00  0.00    -0.200 F 
HETATM   25  F2  UNL     1       9.593  67.255   1.418  1.00  0.00    -0.200 F 
BRANCH  23  26
HETATM   26  C19 UNL     1       9.211  66.696   3.627  1.00  0.00     0.285 C 
BRANCH  26  27
HETATM   27  O3  UNL     1       9.648  67.060   4.854  1.00  0.00    -0.380 OA
ATOM     28  H3  UNL     1       9.836  66.322   5.423  1.00  0.00     0.210 HD
ENDBRANCH  26  27
BRANCH  26  29
HETATM   29  C20 UNL     1       7.927  67.223   3.167  1.00  0.00     0.255 C 
HETATM   30  O4  UNL     1       7.125  66.370   2.639  1.00  0.00    -0.270 OA
HETATM   31  N2  UNL     1       7.510  68.541   3.256  1.00  0.00    -0.337 N 
HETATM   32  C21 UNL     1       6.187  68.990   2.763  1.00  0.00     0.127 C 
HETATM   33  C24 UNL     1       8.096  69.732   3.784  1.00  0.00     0.176 C 
HETATM   34  C22 UNL     1       5.679  69.707   4.020  1.00  0.00     0.022 C 
HETATM   35  C23 UNL     1       6.906  70.497   4.399  1.00  0.00     0.036 C 
BRANCH  33  36
HETATM   36  C25 UNL     1       8.618  70.565   2.684  1.00  0.00     0.254 C 
HETATM   37  N3  UNL     1       8.101  71.851   2.372  1.00  0.00    -0.060 NA
HETATM   38  O5  UNL     1       9.557  70.153   1.973  1.00  0.00    -0.275 OA
ENDBRANCH  33  36
ENDBRANCH  26  29
ENDBRANCH  23  26
ENDBRANCH  20  23
ENDBRANCH   1  20
TORSDOF 10
ENDMDL
MODEL 2
REMARK VINA RESULT: -7.906679576      1.239      2.169
REMARK  10 active torsions:
REMARK  status: ('A' for Active; 'I' for Inactive)
REMARK    1  A    between atoms: C2_2  and  C5_5 
REMARK    2  A    between atoms: C5_5  and  N1_6 
REMARK    3  A    between atoms: C5_5  and  C17_20 
REMARK       I    between atoms: N1_6  and  C6_8 
REMARK    4  A    between atoms: C6_8  and  C7_10 
REMARK    5  A    between atoms: C17_20  and  O2_21 
REMARK    6  A    between atoms: C17_20  and  C18_23 
REMARK    7  A    between atoms: C18_23  and  C19_26 
REMARK    8  A    between atoms: C19_26  and  O3_27 
REMARK    9  A    between atoms: C19_26  and  C20_29 
REMARK       I    between atoms: C20_29  and  N2_31 
REMARK   10  A    between atoms: C24_35  and  C25_36 
ROOT
HETATM    1  C5  UNL     1      10.370  64.699   1.044  1.00  0.00     0.126 C 
ENDROOT
BRANCH   1   2
HETATM    2  C2  UNL     1      11.054  64.051  -0.069  1.00  0.00    -0.028 C 
HETATM    3  C1  UNL     1      10.484  63.893  -1.402  1.00  0.00     0.016 C 
HETATM    4  C3  UNL     1      12.420  64.744  -0.258  1.00  0.00     0.016 C 
HETATM    5  C4  UNL     1      11.461  62.616   0.381  1.00  0.00     0.016 C 
ENDBRANCH   1   2
BRANCH   1   6
HETATM    6  N1  UNL     1       9.543  63.574   1.640  1.00  0.00    -0.352 N 
HETATM    7  C6  UNL     1       8.171  63.474   1.415  1.00  0.00     0.226 C 
HETATM    8  O1  UNL     1       7.556  64.327   0.695  1.00  0.00    -0.273 OA
ATOM      9  H1  UNL     1      10.004  62.873   2.220  1.00  0.00     0.163 HD
BRANCH   7  10
HETATM   10  C7  UNL     1       7.390  62.383   1.998  1.00  0.00     0.042 C 
HETATM   11  C8  UNL     1       6.857  62.804   3.348  1.00  0.00     0.024 C 
HETATM   12  C9  UNL     1       5.997  61.761   3.985  1.00  0.00    -0.013 C 
HETATM   13  C10 UNL     1       6.835  60.532   4.227  1.00  0.00     0.009 C 
HETATM   14  C14 UNL     1       4.846  61.469   3.055  1.00  0.00     0.009 C 
HETATM   15  C11 UNL     1       7.392  60.092   2.895  1.00  0.00    -0.013 C 
HETATM   16  C12 UNL     1       6.221  59.666   2.031  1.00  0.00     0.009 C 
HETATM   17  C16 UNL     1       8.243  61.142   2.250  1.00  0.00     0.024 C 
HETATM   18  C13 UNL     1       5.402  60.918   1.769  1.00  0.00    -0.013 C 
HETATM   19  C15 UNL     1       6.263  61.923   1.082  1.00  0.00     0.024 C 
ENDBRANCH   7  10
ENDBRANCH   1   6
BRANCH   1  20
HETATM   20  C17 UNL     1      11.088  65.237   2.225  1.00  0.00     0.217 C 
BRANCH  20  21
HETATM   21  O2  UNL     1      10.424  64.537   3.343  1.00  0.00    -0.387 OA
ATOM     22  H2  UNL     1      10.947  63.749   3.427  1.00  0.00     0.210 HD
ENDBRANCH  20  21
BRANCH  20  23
HETATM   23  C18 UNL     1      10.809  66.661   2.619  1.00  0.00     0.304 C 
HETATM   24  F1  UNL     1      11.844  67.513   2.686  1.00  0.00    -0.200 F 
HETATM   25  F2  UNL     1       9.831  67.187   1.779  1.00  0.00    -0.200 F 
BRANCH  23  26
HETATM   26  C19 UNL     1      10.159  66.745   4.023  1.00  0.00     0.285 C 
BRANCH  26  27
HETATM   27  O3  UNL     1      11.032  66.536   5.034  1.00  0.00    -0.380 OA
ATOM     28  H3  UNL     1      10.629  66.565   5.895  1.00  0.00     0.210 HD
ENDBRANCH  26  27
BRANCH  26  29
HETATM   29  C20 UNL     1       9.241  67.878   4.127  1.00  0.00     0.255 C 
HETATM   30  O4  UNL     1       9.739  68.966   4.593  1.00  0.00    -0.270 OA
HETATM   31  N2  UNL     1       7.903  67.876   3.768  1.00  0.00    -0.337 N 
HETATM   32  C21 UNL     1       7.042  69.074   3.906  1.00  0.00     0.127 C 
HETATM   33  C24 UNL     1       7.028  66.894   3.210  1.00  0.00     0.176 C 
HETATM   34  C22 UNL     1       6.476  69.144   2.483  1.00  0.00     0.022 C 
HETATM   35  C23 UNL     1       6.116  67.697   2.260  1.00  0.00     0.036 C 
BRANCH  33  36
HETATM   36  C25 UNL     1       6.161  66.337   4.266  1.00  0.00     0.254 C 
HETATM   37  N3  UNL     1       4.745  66.279   4.157  1.00  0.00    -0.060 NA
HETATM   38  O5  UNL     1       6.659  65.886   5.317  1.00  0.00    -0.275 OA
ENDBRANCH  33  36
ENDBRANCH  26  29
ENDBRANCH  23  26
ENDBRANCH  20  23
ENDBRANCH   1  20
TORSDOF 10
ENDMDL
MODEL 3
REMARK VINA RESULT: -7.856338965      1.581      2.612
REMARK  10 active torsions:
REMARK  status: ('A' for Active; 'I' for Inactive)
REMARK    1  A    between atoms: C2_2  and  C5_5 
REMARK    2  A    between atoms: C5_5  and  N1_6 
REMARK    3  A    between atoms: C5_5  and  C17_20 
REMARK       I    between atoms: N1_6  and  C6_8 
REMARK    4  A    between atoms: C6_8  and  C7_10 
REMARK    5  A    between atoms: C17_20  and  O2_21 
REMARK    6  A    between atoms: C17_20  and  C18_23 
REMARK    7  A    between atoms: C18_23  and  C19_26 
REMARK    8  A    between atoms: C19_26  and  O3_27 
REMARK    9  A    between atoms: C19_26  and  C20_29 
REMARK       I    between atoms: C20_29  and  N2_31 
REMARK   10  A    between atoms: C24_35  and  C25_36 
ROOT
HETATM    1  C5  UNL     1      10.759  64.454   1.337  1.00  0.00     0.126 C 
ENDROOT
BRANCH   1   2
HETATM    2  C2  UNL     1      11.102  64.018  -0.012  1.00  0.00    -0.028 C 
HETATM    3  C1  UNL     1      10.215  64.136  -1.162  1.00  0.00     0.016 C 
HETATM    4  C3  UNL     1      12.427  64.702  -0.411  1.00  0.00     0.016 C 
HETATM    5  C4  UNL     1      11.503  62.514   0.052  1.00  0.00     0.016 C 
ENDBRANCH   1   2
BRANCH   1   6
HETATM    6  N1  UNL     1       9.786  63.386   1.805  1.00  0.00    -0.352 N 
HETATM    7  C6  UNL     1       8.407  63.590   1.779  1.00  0.00     0.226 C 
HETATM    8  O1  UNL     1       7.908  64.684   1.357  1.00  0.00    -0.273 OA
ATOM      9  H1  UNL     1      10.151  62.498   2.147  1.00  0.00     0.163 HD
BRANCH   7  10
HETATM   10  C7  UNL     1       7.484  62.549   2.234  1.00  0.00     0.042 C 
HETATM   11  C8  UNL     1       8.215  61.230   2.336  1.00  0.00     0.024 C 
HETATM   12  C9  UNL     1       7.350  60.126   2.853  1.00  0.00    -0.013 C 
HETATM   13  C10 UNL     1       6.220  59.907   1.881  1.00  0.00     0.009 C 
HETATM   14  C14 UNL     1       6.838  60.528   4.213  1.00  0.00     0.009 C 
HETATM   15  C11 UNL     1       5.476  61.213   1.748  1.00  0.00    -0.013 C 
HETATM   16  C12 UNL     1       4.849  61.517   3.094  1.00  0.00     0.009 C 
HETATM   17  C16 UNL     1       6.344  62.324   1.243  1.00  0.00     0.024 C 
HETATM   18  C13 UNL     1       5.997  61.766   4.058  1.00  0.00    -0.013 C 
HETATM   19  C15 UNL     1       6.811  62.908   3.553  1.00  0.00     0.024 C 
ENDBRANCH   7  10
ENDBRANCH   1   6
BRANCH   1  20
HETATM   20  C17 UNL     1      11.747  64.502   2.442  1.00  0.00     0.217 C 
BRANCH  20  21
HETATM   21  O2  UNL     1      10.931  64.115   3.610  1.00  0.00    -0.387 OA
ATOM     22  H2  UNL     1      11.010  63.169   3.609  1.00  0.00     0.210 HD
ENDBRANCH  20  21
BRANCH  20  23
HETATM   23  C18 UNL     1      12.214  65.856   2.899  1.00  0.00     0.304 C 
HETATM   24  F1  UNL     1      13.467  65.969   3.365  1.00  0.00    -0.200 F 
HETATM   25  F2  UNL     1      12.016  66.780   1.875  1.00  0.00    -0.200 F 
BRANCH  23  26
HETATM   26  C19 UNL     1      11.332  66.403   4.050  1.00  0.00     0.285 C 
BRANCH  26  27
HETATM   27  O3  UNL     1      11.775  66.057   5.279  1.00  0.00    -0.380 OA
ATOM     28  H3  UNL     1      11.824  66.788   5.885  1.00  0.00     0.210 HD
ENDBRANCH  26  27
BRANCH  26  29
HETATM   29  C20 UNL     1      10.947  67.795   3.822  1.00  0.00     0.255 C 
HETATM   30  O4  UNL     1      11.790  68.683   4.210  1.00  0.00    -0.270 OA
HETATM   31  N2  UNL     1       9.771  68.227   3.231  1.00  0.00    -0.337 N 
HETATM   32  C21 UNL     1       9.461  69.663   3.038  1.00  0.00     0.127 C 
HETATM   33  C24 UNL     1       8.640  67.559   2.671  1.00  0.00     0.176 C 
HETATM   34  C22 UNL     1       9.131  69.651   1.540  1.00  0.00     0.022 C 
HETATM   35  C23 UNL     1       8.242  68.436   1.466  1.00  0.00     0.036 C 
BRANCH  33  36
HETATM   36  C25 UNL     1       7.512  67.600   3.621  1.00  0.00     0.254 C 
HETATM   37  N3  UNL     1       6.261  68.201   3.315  1.00  0.00    -0.060 NA
HETATM   38  O5  UNL     1       7.625  67.093   4.755  1.00  0.00    -0.275 OA
ENDBRANCH  33  36
ENDBRANCH  26  29
ENDBRANCH  23  26
ENDBRANCH  20  23
ENDBRANCH   1  20
TORSDOF 10
ENDMDL
MODEL 4
REMARK VINA RESULT: -7.798334325      1.587      2.568
REMARK  10 active torsions:
REMARK  status: ('A' for Active; 'I' for Inactive)
REMARK    1  A    between atoms: C2_2  and  C5_5 
REMARK    2  A    between atoms: C5_5  and  N1_6 
REMARK    3  A    between atoms: C5_5  and  C17_20 
REMARK       I    between atoms: N1_6  and  C6_8 
REMARK    4  A    between atoms: C6_8  and  C7_10 
REMARK    5  A    between atoms: C17_20  and  O2_21 
REMARK    6  A    between atoms: C17_20  and  C18_23 
REMARK    7  A    between atoms: C18_23  and  C19_26 
REMARK    8  A    between atoms: C19_26  and  O3_27 
REMARK    9  A    between atoms: C19_26  and  C20_29 
REMARK       I    between atoms: C20_29  and  N2_31 
REMARK   10  A    between atoms: C24_35  and  C25_36 
ROOT
HETATM    1  C5  UNL     1      10.792  64.509   1.353  1.00  0.00     0.126 C 
ENDROOT
BRANCH   1   2
HETATM    2  C2  UNL     1      11.117  64.043   0.010  1.00  0.00    -0.028 C 
HETATM    3  C1  UNL     1      10.230  64.174  -1.140  1.00  0.00     0.016 C 
HETATM    4  C3  UNL     1      12.462  64.677  -0.402  1.00  0.00     0.016 C 
HETATM    5  C4  UNL     1      11.467  62.527   0.094  1.00  0.00     0.016 C 
ENDBRANCH   1   2
BRANCH   1   6
HETATM    6  N1  UNL     1       9.859  63.430   1.874  1.00  0.00    -0.352 N 
HETATM    7  C6  UNL     1       8.473  63.569   1.815  1.00  0.00     0.226 C 
HETATM    8  O1  UNL     1       7.934  64.612   1.318  1.00  0.00    -0.273 OA
ATOM      9  H1  UNL     1      10.257  62.582   2.277  1.00  0.00     0.163 HD
BRANCH   7  10
HETATM   10  C7  UNL     1       7.589  62.520   2.323  1.00  0.00     0.042 C 
HETATM   11  C8  UNL     1       6.304  62.509   1.528  1.00  0.00     0.024 C 
HETATM   12  C9  UNL     1       5.369  61.421   1.950  1.00  0.00    -0.013 C 
HETATM   13  C10 UNL     1       4.975  61.658   3.385  1.00  0.00     0.009 C 
HETATM   14  C14 UNL     1       6.079  60.102   1.783  1.00  0.00     0.009 C 
HETATM   15  C11 UNL     1       6.241  61.686   4.205  1.00  0.00    -0.013 C 
HETATM   16  C12 UNL     1       6.856  60.302   4.138  1.00  0.00     0.009 C 
HETATM   17  C16 UNL     1       7.185  62.767   3.775  1.00  0.00     0.024 C 
HETATM   18  C13 UNL     1       7.277  60.088   2.693  1.00  0.00    -0.013 C 
HETATM   19  C15 UNL     1       8.252  61.148   2.313  1.00  0.00     0.024 C 
ENDBRANCH   7  10
ENDBRANCH   1   6
BRANCH   1  20
HETATM   20  C17 UNL     1      11.803  64.615   2.433  1.00  0.00     0.217 C 
BRANCH  20  21
HETATM   21  O2  UNL     1      11.034  64.207   3.626  1.00  0.00    -0.387 OA
ATOM     22  H2  UNL     1      11.687  63.748   4.141  1.00  0.00     0.210 HD
ENDBRANCH  20  21
BRANCH  20  23
HETATM   23  C18 UNL     1      12.219  65.995   2.863  1.00  0.00     0.304 C 
HETATM   24  F1  UNL     1      13.462  66.160   3.344  1.00  0.00    -0.200 F 
HETATM   25  F2  UNL     1      12.007  66.887   1.814  1.00  0.00    -0.200 F 
BRANCH  23  26
HETATM   26  C19 UNL     1      11.304  66.540   3.988  1.00  0.00     0.285 C 
BRANCH  26  27
HETATM   27  O3  UNL     1      11.748  66.251   5.232  1.00  0.00    -0.380 OA
ATOM     28  H3  UNL     1      11.539  66.920   5.874  1.00  0.00     0.210 HD
ENDBRANCH  26  27
BRANCH  26  29
HETATM   29  C20 UNL     1      10.864  67.908   3.713  1.00  0.00     0.255 C 
HETATM   30  O4  UNL     1      11.644  68.842   4.122  1.00  0.00    -0.270 OA
HETATM   31  N2  UNL     1       9.701  68.271   3.056  1.00  0.00    -0.337 N 
HETATM   32  C21 UNL     1       9.332  69.686   2.818  1.00  0.00     0.127 C 
HETATM   33  C24 UNL     1       8.631  67.538   2.455  1.00  0.00     0.176 C 
HETATM   34  C22 UNL     1       9.078  69.630   1.307  1.00  0.00     0.022 C 
HETATM   35  C23 UNL     1       8.253  68.372   1.214  1.00  0.00     0.036 C 
BRANCH  33  36
HETATM   36  C25 UNL     1       7.457  67.541   3.348  1.00  0.00     0.254 C 
HETATM   37  N3  UNL     1       7.483  67.014   4.667  1.00  0.00    -0.060 NA
HETATM   38  O5  UNL     1       6.373  68.022   2.961  1.00  0.00    -0.275 OA
ENDBRANCH  33  36
ENDBRANCH  26  29
ENDBRANCH  23  26
ENDBRANCH  20  23
ENDBRANCH   1  20
TORSDOF 10
ENDMDL
MODEL 5
REMARK VINA RESULT: -7.783925894      0.173      1.374
REMARK  10 active torsions:
REMARK  status: ('A' for Active; 'I' for Inactive)
REMARK    1  A    between atoms: C2_2  and  C5_5 
REMARK    2  A    between atoms: C5_5  and  N1_6 
REMARK    3  A    between atoms: C5_5  and  C17_20 
REMARK       I    between atoms: N1_6  and  C6_8 
REMARK    4  A    between atoms: C6_8  and  C7_10 
REMARK    5  A    between atoms: C17_20  and  O2_21 
REMARK    6  A    between atoms: C17_20  and  C18_23 
REMARK    7  A    between atoms: C18_23  and  C19_26 
REMARK    8  A    between atoms: C19_26  and  O3_27 
REMARK    9  A    between atoms: C19_26  and  C20_29 
REMARK       I    between atoms: C20_29  and  N2_31 
REMARK   10  A    between atoms: C24_35  and  C25_36 
ROOT
HETATM    1  C5  UNL     1      10.405  64.693   1.143  1.00  0.00     0.126 C 
ENDROOT
BRANCH   1   2
HETATM    2  C2  UNL     1      11.282  63.891   0.297  1.00  0.00    -0.028 C 
HETATM    3  C1  UNL     1      11.528  62.467   0.489  1.00  0.00     0.016 C 
HETATM    4  C3  UNL     1      10.819  64.061  -1.165  1.00  0.00     0.016 C 
HETATM    5  C4  UNL     1      12.690  64.558   0.288  1.00  0.00     0.016 C 
ENDBRANCH   1   2
BRANCH   1   6
HETATM    6  N1  UNL     1       9.549  63.648   1.836  1.00  0.00    -0.352 N 
HETATM    7  C6  UNL     1       8.260  63.348   1.396  1.00  0.00     0.226 C 
HETATM    8  O1  UNL     1       7.751  63.939   0.389  1.00  0.00    -0.273 OA
ATOM      9  H1  UNL     1       9.926  63.154   2.645  1.00  0.00     0.163 HD
BRANCH   7  10
HETATM   10  C7  UNL     1       7.449  62.338   2.077  1.00  0.00     0.042 C 
HETATM   11  C8  UNL     1       6.200  62.062   1.272  1.00  0.00     0.024 C 
HETATM   12  C9  UNL     1       5.344  60.995   1.875  1.00  0.00    -0.013 C 
HETATM   13  C10 UNL     1       4.878  61.464   3.230  1.00  0.00     0.009 C 
HETATM   14  C14 UNL     1       6.168  59.736   1.980  1.00  0.00     0.009 C 
HETATM   15  C11 UNL     1       6.105  61.759   4.055  1.00  0.00    -0.013 C 
HETATM   16  C12 UNL     1       6.836  60.448   4.268  1.00  0.00     0.009 C 
HETATM   17  C16 UNL     1       6.971  62.819   3.446  1.00  0.00     0.024 C 
HETATM   18  C13 UNL     1       7.328  60.002   2.901  1.00  0.00    -0.013 C 
HETATM   19  C15 UNL     1       8.225  61.055   2.345  1.00  0.00     0.024 C 
ENDBRANCH   7  10
ENDBRANCH   1   6
BRANCH   1  20
HETATM   20  C17 UNL     1      10.907  65.507   2.276  1.00  0.00     0.217 C 
BRANCH  20  21
HETATM   21  O2  UNL     1      10.408  64.759   3.447  1.00  0.00    -0.387 OA
ATOM     22  H2  UNL     1      10.503  65.393   4.148  1.00  0.00     0.210 HD
ENDBRANCH  20  21
BRANCH  20  23
HETATM   23  C18 UNL     1      10.244  66.834   2.526  1.00  0.00     0.304 C 
HETATM   24  F1  UNL     1      11.012  67.858   2.932  1.00  0.00    -0.200 F 
HETATM   25  F2  UNL     1       9.530  67.213   1.391  1.00  0.00    -0.200 F 
BRANCH  23  26
HETATM   26  C19 UNL     1       9.150  66.726   3.618  1.00  0.00     0.285 C 
BRANCH  26  27
HETATM   27  O3  UNL     1       9.578  67.091   4.848  1.00  0.00    -0.380 OA
ATOM     28  H3  UNL     1       8.902  67.044   5.514  1.00  0.00     0.210 HD
ENDBRANCH  26  27
BRANCH  26  29
HETATM   29  C20 UNL     1       7.867  67.249   3.152  1.00  0.00     0.255 C 
HETATM   30  O4  UNL     1       7.068  66.393   2.624  1.00  0.00    -0.270 OA
HETATM   31  N2  UNL     1       7.447  68.567   3.233  1.00  0.00    -0.337 N 
HETATM   32  C21 UNL     1       6.125  69.011   2.733  1.00  0.00     0.127 C 
HETATM   33  C24 UNL     1       8.029  69.761   3.757  1.00  0.00     0.176 C 
HETATM   34  C22 UNL     1       5.612  69.733   3.985  1.00  0.00     0.022 C 
HETATM   35  C23 UNL     1       6.836  70.528   4.364  1.00  0.00     0.036 C 
BRANCH  33  36
HETATM   36  C25 UNL     1       8.553  70.590   2.654  1.00  0.00     0.254 C 
HETATM   37  N3  UNL     1       8.078  71.900   2.374  1.00  0.00    -0.060 NA
HETATM   38  O5  UNL     1       9.457  70.153   1.913  1.00  0.00    -0.275 OA
ENDBRANCH  33  36
ENDBRANCH  26  29
ENDBRANCH  23  26
ENDBRANCH  20  23
ENDBRANCH   1  20
TORSDOF 10
ENDMDL
