MODEL 1
REMARK VINA RESULT: -7.504395777      0.000      0.000
REMARK  10 active torsions:
REMARK  status: ('A' for Active; 'I' for Inactive)
REMARK    1  A    between atoms: C2_2  and  C3_3 
REMARK    2  A    between atoms: C3_3  and  C5_5 
REMARK    3  A    between atoms: C5_5  and  C6_6 
REMARK    4  A    between atoms: C5_5  and  N1_9 
REMARK    5  A    between atoms: C5_5  and  C13_18 
REMARK    6  A    between atoms: C6_6  and  O1_7 
REMARK    7  A    between atoms: C13_18  and  O2_19 
REMARK    8  A    between atoms: C13_18  and  N3_21 
REMARK    9  A    between atoms: C16_24  and  N4_25 
REMARK       I    between atoms: N5_28  and  C19_29 
REMARK   10  A    between atoms: C21_35  and  C22_36 
ROOT
HETATM    1  N3  UNL     1       6.265  63.611   1.043  1.00  0.00    -0.363 N 
HETATM    2  C14 UNL     1       6.378  65.117   1.226  1.00  0.00     0.127 C 
HETATM    3  C15 UNL     1       7.674  65.420   1.976  1.00  0.00     0.055 C 
HETATM    4  C16 UNL     1       8.817  64.864   1.189  1.00  0.00     0.227 C 
HETATM    5  C23 UNL     1       8.649  63.371   1.163  1.00  0.00     0.055 C 
HETATM    6  C24 UNL     1       7.375  63.119   0.315  1.00  0.00     0.127 C 
ENDROOT
BRANCH   1   7
HETATM    7  C13 UNL     1       5.148  63.050   1.618  1.00  0.00     0.145 C 
BRANCH   7   8
HETATM    8  C5  UNL     1       4.972  61.806   2.468  1.00  0.00     0.119 C 
BRANCH   8   9
HETATM    9  C3  UNL     1       5.200  62.219   3.877  1.00  0.00     0.020 C 
HETATM   10  C4  UNL     1       4.151  63.218   4.390  1.00  0.00     0.013 C 
BRANCH   9  11
HETATM   11  C2  UNL     1       6.549  62.739   4.238  1.00  0.00     0.002 C 
HETATM   12  C1  UNL     1       7.068  62.073   5.521  1.00  0.00     0.005 C 
ENDBRANCH   9  11
ENDBRANCH   8   9
BRANCH   8  13
HETATM   13  C6  UNL     1       3.503  61.477   2.318  1.00  0.00     0.204 C 
BRANCH  13  14
HETATM   14  O1  UNL     1       3.134  61.064   1.052  1.00  0.00    -0.398 OA
ATOM     15  H1  UNL     1       2.196  61.046   0.901  1.00  0.00     0.209 HD
ENDBRANCH  13  14
ENDBRANCH   8  13
BRANCH   8  16
HETATM   16  N1  UNL     1       5.854  60.876   2.008  1.00  0.00    -0.378 N 
HETATM   17  C7  UNL     1       6.245  59.617   2.299  1.00  0.00    -0.014 C 
HETATM   18  C8  UNL     1       5.201  58.504   2.304  1.00  0.00     0.082 C 
HETATM   19  C12 UNL     1       7.371  59.217   3.167  1.00  0.00     0.082 C 
HETATM   20  C9  UNL     1       5.948  57.220   1.992  1.00  0.00     0.277 C 
HETATM   21  N2  UNL     1       6.677  56.855   3.184  1.00  0.00     0.084 N 
HETATM   22  C10 UNL     1       5.815  55.990   3.967  1.00  0.00     0.309 C 
HETATM   23  C11 UNL     1       7.064  57.962   3.989  1.00  0.00     0.277 C 
ATOM     24  H1  UNL     1       6.371  61.237   1.206  1.00  0.00     0.160 HD
ENDBRANCH   8  16
ENDBRANCH   7   8
BRANCH   7  25
HETATM   25  O2  UNL     1       4.048  63.710   1.391  1.00  0.00    -0.347 OA
ATOM     26  H2  UNL     1       4.163  64.511   0.893  1.00  0.00     0.219 HD
ENDBRANCH   7  25
ENDBRANCH   1   7
BRANCH   4  27
HETATM   27  N4  UNL     1      10.120  65.322   1.559  1.00  0.00     0.110 N 
HETATM   28  C17 UNL     1      11.063  64.581   0.719  1.00  0.00     0.293 C 
HETATM   29  C18 UNL     1      12.457  65.168   0.854  1.00  0.00     0.156 C 
HETATM   30  N5  UNL     1      12.808  65.023   2.254  1.00  0.00    -0.352 N 
HETATM   31  C19 UNL     1      14.097  65.372   2.673  1.00  0.00     0.184 C 
HETATM   32  C20 UNL     1      11.772  64.513   3.130  1.00  0.00     0.170 C 
HETATM   33  N6  UNL     1      14.902  65.952   1.845  1.00  0.00    -0.374 N 
HETATM   34  N7  UNL     1      14.596  65.126   3.986  1.00  0.00    -0.064 NA
ATOM     35  H62 UNL     1      14.544  66.128   0.905  1.00  0.00     0.158 HD
ATOM     36  H61 UNL     1      15.841  66.206   2.150  1.00  0.00     0.158 HD
HETATM   37  C21 UNL     1      10.446  65.264   2.935  1.00  0.00     0.347 C 
BRANCH  37  38
HETATM   38  C22 UNL     1      10.661  66.611   3.604  1.00  0.00     0.419 C 
HETATM   39  F1  UNL     1      11.593  66.549   4.621  1.00  0.00    -0.169 F 
HETATM   40  F2  UNL     1      10.941  67.621   2.706  1.00  0.00    -0.169 F 
HETATM   41  F3  UNL     1       9.479  67.022   4.242  1.00  0.00    -0.169 F 
ENDBRANCH  37  38
ENDBRANCH   4  27
TORSDOF 10
ENDMDL
MODEL 2
REMARK VINA RESULT: -7.258730528      4.051      9.173
REMARK  10 active torsions:
REMARK  status: ('A' for Active; 'I' for Inactive)
REMARK    1  A    between atoms: C2_2  and  C3_3 
REMARK    2  A    between atoms: C3_3  and  C5_5 
REMARK    3  A    between atoms: C5_5  and  C6_6 
REMARK    4  A    between atoms: C5_5  and  N1_9 
REMARK    5  A    between atoms: C5_5  and  C13_18 
REMARK    6  A    between atoms: C6_6  and  O1_7 
REMARK    7  A    between atoms: C13_18  and  O2_19 
REMARK    8  A    between atoms: C13_18  and  N3_21 
REMARK    9  A    between atoms: C16_24  and  N4_25 
REMARK       I    between atoms: N5_28  and  C19_29 
REMARK   10  A    between atoms: C21_35  and  C22_36 
ROOT
HETATM    1  N3  UNL     1       9.283  63.375   2.554  1.00  0.00    -0.363 N 
HETATM    2  C14 UNL     1       8.228  63.802   1.546  1.00  0.00     0.127 C 
HETATM    3  C15 UNL     1       7.630  62.550   0.906  1.00  0.00     0.055 C 
HETATM    4  C16 UNL     1       7.057  61.693   1.989  1.00  0.00     0.227 C 
HETATM    5  C23 UNL     1       8.202  61.255   2.858  1.00  0.00     0.055 C 
HETATM    6  C24 UNL     1       8.708  62.548   3.549  1.00  0.00     0.127 C 
ENDROOT
BRANCH   1   7
HETATM    7  C13 UNL     1      10.546  63.854   2.293  1.00  0.00     0.145 C 
BRANCH   7   8
HETATM    8  C5  UNL     1      11.237  65.142   2.699  1.00  0.00     0.119 C 
BRANCH   8   9
HETATM    9  C3  UNL     1      12.436  64.751   3.485  1.00  0.00     0.020 C 
HETATM   10  C4  UNL     1      12.632  65.603   4.749  1.00  0.00     0.013 C 
BRANCH   9  11
HETATM   11  C2  UNL     1      13.742  64.680   2.769  1.00  0.00     0.002 C 
HETATM   12  C1  UNL     1      14.879  64.327   3.739  1.00  0.00     0.005 C 
ENDBRANCH   9  11
ENDBRANCH   8   9
BRANCH   8  13
HETATM   13  C6  UNL     1      11.718  65.718   1.385  1.00  0.00     0.204 C 
BRANCH  13  14
HETATM   14  O1  UNL     1      10.921  65.411   0.299  1.00  0.00    -0.398 OA
ATOM     15  H1  UNL     1      11.348  64.886  -0.368  1.00  0.00     0.209 HD
ENDBRANCH  13  14
ENDBRANCH   8  13
BRANCH   8  16
HETATM   16  N1  UNL     1      10.330  65.884   3.393  1.00  0.00    -0.378 N 
HETATM   17  C7  UNL     1       9.710  67.080   3.295  1.00  0.00    -0.014 C 
HETATM   18  C8  UNL     1       8.880  67.379   2.051  1.00  0.00     0.082 C 
HETATM   19  C12 UNL     1      10.149  68.357   3.894  1.00  0.00     0.082 C 
HETATM   20  C9  UNL     1       7.830  68.389   2.474  1.00  0.00     0.277 C 
HETATM   21  N2  UNL     1       8.499  69.661   2.615  1.00  0.00     0.084 N 
HETATM   22  C10 UNL     1       8.417  70.334   1.331  1.00  0.00     0.309 C 
HETATM   23  C11 UNL     1       9.868  69.559   2.988  1.00  0.00     0.277 C 
ATOM     24  H1  UNL     1      10.030  65.391   4.234  1.00  0.00     0.160 HD
ENDBRANCH   8  16
ENDBRANCH   7   8
BRANCH   7  25
HETATM   25  O2  UNL     1      11.276  63.053   1.569  1.00  0.00    -0.347 OA
ATOM     26  H2  UNL     1      11.231  62.139   1.824  1.00  0.00     0.219 HD
ENDBRANCH   7  25
ENDBRANCH   1   7
BRANCH   4  27
HETATM   27  N4  UNL     1       6.179  60.646   1.567  1.00  0.00     0.110 N 
HETATM   28  C17 UNL     1       5.498  61.146   0.371  1.00  0.00     0.293 C 
HETATM   29  C18 UNL     1       4.728  60.022  -0.301  1.00  0.00     0.156 C 
HETATM   30  N5  UNL     1       3.760  59.572   0.680  1.00  0.00    -0.352 N 
HETATM   31  C19 UNL     1       2.814  58.609   0.310  1.00  0.00     0.184 C 
HETATM   32  C20 UNL     1       3.847  60.171   1.997  1.00  0.00     0.170 C 
HETATM   33  N6  UNL     1       2.908  58.030  -0.842  1.00  0.00    -0.374 N 
HETATM   34  N7  UNL     1       1.725  58.209   1.140  1.00  0.00    -0.064 NA
ATOM     35  H62 UNL     1       3.688  58.316  -1.435  1.00  0.00     0.158 HD
ATOM     36  H61 UNL     1       2.219  57.329  -1.111  1.00  0.00     0.158 HD
HETATM   37  C21 UNL     1       5.284  60.138   2.538  1.00  0.00     0.347 C 
BRANCH  37  38
HETATM   38  C22 UNL     1       5.517  58.692   2.936  1.00  0.00     0.419 C 
HETATM   39  F1  UNL     1       6.257  58.579   4.098  1.00  0.00    -0.169 F 
HETATM   40  F2  UNL     1       4.353  57.952   2.990  1.00  0.00    -0.169 F 
HETATM   41  F3  UNL     1       6.301  58.048   1.964  1.00  0.00    -0.169 F 
ENDBRANCH  37  38
ENDBRANCH   4  27
TORSDOF 10
ENDMDL
MODEL 3
REMARK VINA RESULT: -7.180883026      3.251      7.957
REMARK  10 active torsions:
REMARK  status: ('A' for Active; 'I' for Inactive)
REMARK    1  A    between atoms: C2_2  and  C3_3 
REMARK    2  A    between atoms: C3_3  and  C5_5 
REMARK    3  A    between atoms: C5_5  and  C6_6 
REMARK    4  A    between atoms: C5_5  and  N1_9 
REMARK    5  A    between atoms: C5_5  and  C13_18 
REMARK    6  A    between atoms: C6_6  and  O1_7 
REMARK    7  A    between atoms: C13_18  and  O2_19 
REMARK    8  A    between atoms: C13_18  and  N3_21 
REMARK    9  A    between atoms: C16_24  and  N4_25 
REMARK       I    between atoms: N5_28  and  C19_29 
REMARK   10  A    between atoms: C21_35  and  C22_36 
ROOT
HETATM    1  N3  UNL     1       6.283  66.783   3.473  1.00  0.00    -0.363 N 
HETATM    2  C14 UNL     1       5.306  66.291   2.418  1.00  0.00     0.127 C 
HETATM    3  C15 UNL     1       5.776  64.926   1.917  1.00  0.00     0.055 C 
HETATM    4  C16 UNL     1       5.855  63.995   3.084  1.00  0.00     0.227 C 
HETATM    5  C23 UNL     1       6.917  64.530   4.003  1.00  0.00     0.055 C 
HETATM    6  C24 UNL     1       6.349  65.865   4.550  1.00  0.00     0.127 C 
ENDROOT
BRANCH   1   7
HETATM    7  C13 UNL     1       6.897  67.976   3.168  1.00  0.00     0.145 C 
BRANCH   7   8
HETATM    8  C5  UNL     1       8.363  68.358   3.079  1.00  0.00     0.119 C 
BRANCH   8   9
HETATM    9  C3  UNL     1       8.663  68.557   1.638  1.00  0.00     0.020 C 
HETATM   10  C4  UNL     1       8.839  70.036   1.257  1.00  0.00     0.013 C 
BRANCH   9  11
HETATM   11  C2  UNL     1       7.745  67.931   0.645  1.00  0.00     0.002 C 
HETATM   12  C1  UNL     1       8.430  66.758  -0.071  1.00  0.00     0.005 C 
ENDBRANCH   9  11
ENDBRANCH   8   9
BRANCH   8  13
HETATM   13  C6  UNL     1       8.419  69.713   3.751  1.00  0.00     0.204 C 
BRANCH  13  14
HETATM   14  O1  UNL     1       7.691  69.803   4.922  1.00  0.00    -0.398 OA
ATOM     15  H1  UNL     1       7.712  70.658   5.335  1.00  0.00     0.209 HD
ENDBRANCH  13  14
ENDBRANCH   8  13
BRANCH   8  16
HETATM   16  N1  UNL     1       9.076  67.358   3.666  1.00  0.00    -0.378 N 
HETATM   17  C7  UNL     1      10.191  66.633   3.431  1.00  0.00    -0.014 C 
HETATM   18  C8  UNL     1      11.520  67.363   3.253  1.00  0.00     0.082 C 
HETATM   19  C12 UNL     1      10.272  65.325   2.749  1.00  0.00     0.082 C 
HETATM   20  C9  UNL     1      12.601  66.384   3.670  1.00  0.00     0.277 C 
HETATM   21  N2  UNL     1      12.727  65.415   2.606  1.00  0.00     0.084 N 
HETATM   22  C10 UNL     1      13.737  65.913   1.689  1.00  0.00     0.309 C 
HETATM   23  C11 UNL     1      11.525  65.191   1.880  1.00  0.00     0.277 C 
ATOM     24  H1  UNL     1       8.640  67.071   4.543  1.00  0.00     0.160 HD
ENDBRANCH   8  16
ENDBRANCH   7   8
BRANCH   7  25
HETATM   25  O2  UNL     1       6.068  68.946   2.907  1.00  0.00    -0.347 OA
ATOM     26  H2  UNL     1       5.152  68.726   3.029  1.00  0.00     0.219 HD
ENDBRANCH   7  25
ENDBRANCH   1   7
BRANCH   4  27
HETATM   27  N4  UNL     1       5.964  62.604   2.776  1.00  0.00     0.110 N 
HETATM   28  C17 UNL     1       4.703  61.994   3.205  1.00  0.00     0.293 C 
HETATM   29  C18 UNL     1       4.614  60.565   2.698  1.00  0.00     0.156 C 
HETATM   30  N5  UNL     1       5.738  59.869   3.293  1.00  0.00    -0.352 N 
HETATM   31  C19 UNL     1       5.862  58.487   3.103  1.00  0.00     0.184 C 
HETATM   32  C20 UNL     1       6.667  60.677   4.058  1.00  0.00     0.170 C 
HETATM   33  N6  UNL     1       5.064  57.881   2.286  1.00  0.00    -0.374 N 
HETATM   34  N7  UNL     1       6.833  57.681   3.766  1.00  0.00    -0.064 NA
ATOM     35  H62 UNL     1       4.369  58.459   1.812  1.00  0.00     0.158 HD
ATOM     36  H61 UNL     1       5.154  56.875   2.149  1.00  0.00     0.158 HD
HETATM   37  C21 UNL     1       7.101  61.928   3.280  1.00  0.00     0.347 C 
BRANCH  37  38
HETATM   38  C22 UNL     1       8.067  61.416   2.227  1.00  0.00     0.419 C 
HETATM   39  F1  UNL     1       9.094  62.307   1.979  1.00  0.00    -0.169 F 
HETATM   40  F2  UNL     1       8.536  60.147   2.496  1.00  0.00    -0.169 F 
HETATM   41  F3  UNL     1       7.409  61.296   0.992  1.00  0.00    -0.169 F 
ENDBRANCH  37  38
ENDBRANCH   4  27
TORSDOF 10
ENDMDL
MODEL 4
REMARK VINA RESULT: -7.146502521      1.586      2.186
REMARK  10 active torsions:
REMARK  status: ('A' for Active; 'I' for Inactive)
REMARK    1  A    between atoms: C2_2  and  C3_3 
REMARK    2  A    between atoms: C3_3  and  C5_5 
REMARK    3  A    between atoms: C5_5  and  C6_6 
REMARK    4  A    between atoms: C5_5  and  N1_9 
REMARK    5  A    between atoms: C5_5  and  C13_18 
REMARK    6  A    between atoms: C6_6  and  O1_7 
REMARK    7  A    between atoms: C13_18  and  O2_19 
REMARK    8  A    between atoms: C13_18  and  N3_21 
REMARK    9  A    between atoms: C16_24  and  N4_25 
REMARK       I    between atoms: N5_28  and  C19_29 
REMARK   10  A    between atoms: C21_35  and  C22_36 
ROOT
HETATM    1  N3  UNL     1       6.635  63.845   0.759  1.00  0.00    -0.363 N 
HETATM    2  C14 UNL     1       6.687  65.120   1.588  1.00  0.00     0.127 C 
HETATM    3  C15 UNL     1       8.054  65.203   2.266  1.00  0.00     0.055 C 
HETATM    4  C16 UNL     1       9.110  65.179   1.208  1.00  0.00     0.227 C 
HETATM    5  C23 UNL     1       9.023  63.841   0.530  1.00  0.00     0.055 C 
HETATM    6  C24 UNL     1       7.662  63.848  -0.214  1.00  0.00     0.127 C 
ENDROOT
BRANCH   1   7
HETATM    7  C13 UNL     1       5.638  62.970   1.125  1.00  0.00     0.145 C 
BRANCH   7   8
HETATM    8  C5  UNL     1       5.658  61.737   2.010  1.00  0.00     0.119 C 
BRANCH   8   9
HETATM    9  C3  UNL     1       6.911  61.804   2.804  1.00  0.00     0.020 C 
HETATM   10  C4  UNL     1       8.084  61.060   2.144  1.00  0.00     0.013 C 
BRANCH   9  11
HETATM   11  C2  UNL     1       6.849  61.390   4.235  1.00  0.00     0.002 C 
HETATM   12  C1  UNL     1       6.918  59.862   4.367  1.00  0.00     0.005 C 
ENDBRANCH   9  11
ENDBRANCH   8   9
BRANCH   8  13
HETATM   13  C6  UNL     1       4.501  61.962   2.959  1.00  0.00     0.204 C 
BRANCH  13  14
HETATM   14  O1  UNL     1       4.299  63.281   3.315  1.00  0.00    -0.398 OA
ATOM     15  H1  UNL     1       3.415  63.482   3.598  1.00  0.00     0.209 HD
ENDBRANCH  13  14
ENDBRANCH   8  13
BRANCH   8  16
HETATM   16  N1  UNL     1       5.571  60.653   1.190  1.00  0.00    -0.378 N 
HETATM   17  C7  UNL     1       4.731  59.621   0.959  1.00  0.00    -0.014 C 
HETATM   18  C8  UNL     1       3.284  59.920   0.579  1.00  0.00     0.082 C 
HETATM   19  C12 UNL     1       4.797  58.272   1.558  1.00  0.00     0.082 C 
HETATM   20  C9  UNL     1       2.804  58.732  -0.234  1.00  0.00     0.277 C 
HETATM   21  N2  UNL     1       2.578  57.649   0.694  1.00  0.00     0.084 N 
HETATM   22  C10 UNL     1       1.193  57.729   1.120  1.00  0.00     0.309 C 
HETATM   23  C11 UNL     1       3.412  57.688   1.847  1.00  0.00     0.277 C 
ATOM     24  H1  UNL     1       6.378  60.607   0.567  1.00  0.00     0.160 HD
ENDBRANCH   8  16
ENDBRANCH   7   8
BRANCH   7  25
HETATM   25  O2  UNL     1       4.471  63.256   0.623  1.00  0.00    -0.347 OA
ATOM     26  H2  UNL     1       3.806  63.473   1.266  1.00  0.00     0.219 HD
ENDBRANCH   7  25
ENDBRANCH   1   7
BRANCH   4  27
HETATM   27  N4  UNL     1      10.423  65.568   1.617  1.00  0.00     0.110 N 
HETATM   28  C17 UNL     1      11.351  64.763   0.819  1.00  0.00     0.293 C 
HETATM   29  C18 UNL     1      12.771  65.272   0.995  1.00  0.00     0.156 C 
HETATM   30  N5  UNL     1      13.065  65.128   2.408  1.00  0.00    -0.352 N 
HETATM   31  C19 UNL     1      14.357  65.409   2.868  1.00  0.00     0.184 C 
HETATM   32  C20 UNL     1      11.972  64.689   3.254  1.00  0.00     0.170 C 
HETATM   33  N6  UNL     1      15.221  65.932   2.061  1.00  0.00    -0.374 N 
HETATM   34  N7  UNL     1      14.797  65.154   4.200  1.00  0.00    -0.064 NA
ATOM     35  H62 UNL     1      14.906  66.114   1.107  1.00  0.00     0.158 HD
ATOM     36  H61 UNL     1      16.162  66.136   2.395  1.00  0.00     0.158 HD
HETATM   37  C21 UNL     1      10.699  65.511   3.004  1.00  0.00     0.347 C 
BRANCH  37  38
HETATM   38  C22 UNL     1      10.967  66.852   3.663  1.00  0.00     0.419 C 
HETATM   39  F1  UNL     1      11.878  66.757   4.698  1.00  0.00    -0.169 F 
HETATM   40  F2  UNL     1      11.310  67.839   2.761  1.00  0.00    -0.169 F 
HETATM   41  F3  UNL     1       9.796  67.326   4.278  1.00  0.00    -0.169 F 
ENDBRANCH  37  38
ENDBRANCH   4  27
TORSDOF 10
ENDMDL
MODEL 5
REMARK VINA RESULT: -7.137609215      1.994      4.130
REMARK  10 active torsions:
REMARK  status: ('A' for Active; 'I' for Inactive)
REMARK    1  A    between atoms: C2_2  and  C3_3 
REMARK    2  A    between atoms: C3_3  and  C5_5 
REMARK    3  A    between atoms: C5_5  and  C6_6 
REMARK    4  A    between atoms: C5_5  and  N1_9 
REMARK    5  A    between atoms: C5_5  and  C13_18 
REMARK    6  A    between atoms: C6_6  and  O1_7 
REMARK    7  A    between atoms: C13_18  and  O2_19 
REMARK    8  A    between atoms: C13_18  and  N3_21 
REMARK    9  A    between atoms: C16_24  and  N4_25 
REMARK       I    between atoms: N5_28  and  C19_29 
REMARK   10  A    between atoms: C21_35  and  C22_36 
ROOT
HETATM    1  N3  UNL     1       7.595  63.446   1.352  1.00  0.00    -0.363 N 
HETATM    2  C14 UNL     1       7.647  64.908   1.767  1.00  0.00     0.127 C 
HETATM    3  C15 UNL     1       8.908  65.132   2.601  1.00  0.00     0.055 C 
HETATM    4  C16 UNL     1      10.094  64.740   1.781  1.00  0.00     0.227 C 
HETATM    5  C23 UNL     1       9.982  63.264   1.520  1.00  0.00     0.055 C 
HETATM    6  C24 UNL     1       8.744  63.106   0.598  1.00  0.00     0.127 C 
ENDROOT
BRANCH   1   7
HETATM    7  C13 UNL     1       6.481  62.769   1.793  1.00  0.00     0.145 C 
BRANCH   7   8
HETATM    8  C5  UNL     1       6.235  61.949   3.046  1.00  0.00     0.119 C 
BRANCH   8   9
HETATM    9  C3  UNL     1       6.311  60.522   2.641  1.00  0.00     0.020 C 
HETATM   10  C4  UNL     1       5.015  59.745   2.922  1.00  0.00     0.013 C 
BRANCH   9  11
HETATM   11  C2  UNL     1       7.454  59.715   3.157  1.00  0.00     0.002 C 
HETATM   12  C1  UNL     1       6.953  58.529   3.994  1.00  0.00     0.005 C 
ENDBRANCH   9  11
ENDBRANCH   8   9
BRANCH   8  13
HETATM   13  C6  UNL     1       7.441  62.246   3.909  1.00  0.00     0.204 C 
BRANCH  13  14
HETATM   14  O1  UNL     1       7.206  62.172   5.269  1.00  0.00    -0.398 OA
ATOM     15  H1  UNL     1       7.366  62.981   5.741  1.00  0.00     0.209 HD
ENDBRANCH  13  14
ENDBRANCH   8  13
BRANCH   8  16
HETATM   16  N1  UNL     1       5.024  62.326   3.541  1.00  0.00    -0.378 N 
HETATM   17  C7  UNL     1       4.492  63.340   4.258  1.00  0.00    -0.014 C 
HETATM   18  C8  UNL     1       4.627  64.765   3.729  1.00  0.00     0.082 C 
HETATM   19  C12 UNL     1       4.311  63.392   5.723  1.00  0.00     0.082 C 
HETATM   20  C9  UNL     1       3.453  65.542   4.296  1.00  0.00     0.277 C 
HETATM   21  N2  UNL     1       3.742  65.786   5.690  1.00  0.00     0.084 N 
HETATM   22  C10 UNL     1       4.433  67.060   5.769  1.00  0.00     0.309 C 
HETATM   23  C11 UNL     1       4.555  64.789   6.298  1.00  0.00     0.277 C 
ATOM     24  H1  UNL     1       4.307  61.642   3.300  1.00  0.00     0.160 HD
ENDBRANCH   8  16
ENDBRANCH   7   8
BRANCH   7  25
HETATM   25  O2  UNL     1       5.459  62.851   0.990  1.00  0.00    -0.347 OA
ATOM     26  H2  UNL     1       4.759  63.415   1.300  1.00  0.00     0.219 HD
ENDBRANCH   7  25
ENDBRANCH   1   7
BRANCH   4  27
HETATM   27  N4  UNL     1      11.367  65.175   2.264  1.00  0.00     0.110 N 
HETATM   28  C17 UNL     1      12.302  64.083   1.981  1.00  0.00     0.293 C 
HETATM   29  C18 UNL     1      13.730  64.540   2.227  1.00  0.00     0.156 C 
HETATM   30  N5  UNL     1      13.787  64.902   3.630  1.00  0.00    -0.352 N 
HETATM   31  C19 UNL     1      15.019  65.257   4.192  1.00  0.00     0.184 C 
HETATM   32  C20 UNL     1      12.535  64.865   4.359  1.00  0.00     0.170 C 
HETATM   33  N6  UNL     1      16.052  65.400   3.427  1.00  0.00    -0.374 N 
HETATM   34  N7  UNL     1      15.219  65.479   5.586  1.00  0.00    -0.064 NA
ATOM     35  H62 UNL     1      15.909  65.241   2.430  1.00  0.00     0.158 HD
ATOM     36  H61 UNL     1      16.949  65.658   3.837  1.00  0.00     0.158 HD
HETATM   37  C21 UNL     1      11.422  65.611   3.609  1.00  0.00     0.347 C 
BRANCH  37  38
HETATM   38  C22 UNL     1      11.745  67.082   3.797  1.00  0.00     0.419 C 
HETATM   39  F1  UNL     1      12.732  67.286   4.742  1.00  0.00    -0.169 F 
HETATM   40  F2  UNL     1      12.023  67.730   2.611  1.00  0.00    -0.169 F 
HETATM   41  F3  UNL     1      10.626  67.756   4.315  1.00  0.00    -0.169 F 
ENDBRANCH  37  38
ENDBRANCH   4  27
TORSDOF 10
ENDMDL
