MODEL 1
REMARK VINA RESULT: -7.159284391      0.000      0.000
REMARK  7 active torsions:
REMARK  status: ('A' for Active; 'I' for Inactive)
REMARK    1  A    between atoms: C2_2  and  C4_4 
REMARK    2  A    between atoms: C4_4  and  C5_5 
REMARK    3  A    between atoms: N2_9  and  C7_11 
REMARK    4  A    between atoms: C7_11  and  C8_12 
REMARK    5  A    between atoms: C9_15  and  N3_16 
REMARK    6  A    between atoms: C10_20  and  C11_21 
REMARK    7  A    between atoms: C16_33  and  C17_34 
ROOT
HETATM    1  C5  UNL     1       9.462  66.666   2.844  1.00  0.00     0.183 C 
HETATM    2  N1  UNL     1      10.453  65.779   3.540  1.00  0.00    -0.364 N 
ATOM      3  H1  UNL     1      10.338  65.594   4.537  1.00  0.00     0.161 HD
HETATM    4  C6  UNL     1      11.536  65.197   2.855  1.00  0.00     0.107 C 
HETATM    5  N2  UNL     1      12.660  65.055   3.444  1.00  0.00    -0.376 N 
ATOM      6  H2  UNL     1      13.431  64.629   2.930  1.00  0.00     0.160 HD
HETATM    7  C9  UNL     1      11.436  64.728   1.439  1.00  0.00     0.279 C 
HETATM    8  C10 UNL     1      10.722  63.421   1.350  1.00  0.00     0.183 C 
HETATM    9  N4  UNL     1       9.459  63.618   0.680  1.00  0.00    -0.346 N 
ATOM     10  H4  UNL     1       9.420  64.431   0.065  1.00  0.00     0.163 HD
HETATM   11  C12 UNL     1       8.293  62.874   0.741  1.00  0.00     0.240 C 
HETATM   12  O2  UNL     1       7.825  62.434  -0.388  1.00  0.00    -0.271 OA
HETATM   13  C13 UNL     1       7.470  62.489   1.905  1.00  0.00     0.172 C 
HETATM   14  C14 UNL     1       8.186  62.434   3.214  1.00  0.00     0.042 C 
HETATM   15  N5  UNL     1       6.194  63.176   1.988  1.00  0.00    -0.346 N 
ATOM     16  H5  UNL     1       5.437  62.606   2.367  1.00  0.00     0.163 HD
HETATM   17  C15 UNL     1       5.817  64.460   1.647  1.00  0.00     0.248 C 
HETATM   18  O3  UNL     1       4.937  64.582   0.707  1.00  0.00    -0.271 OA
HETATM   19  C16 UNL     1       6.254  65.773   2.184  1.00  0.00     0.227 C 
HETATM   20  O4  UNL     1       7.134  65.722   3.234  1.00  0.00    -0.304 OA
HETATM   21  C20 UNL     1       8.220  66.406   3.616  1.00  0.00     0.282 C 
HETATM   22  O5  UNL     1       8.225  66.912   4.797  1.00  0.00    -0.263 OA
ENDROOT
BRANCH   5  23
HETATM   23  C7  UNL     1      12.882  65.472   4.798  1.00  0.00     0.157 C 
BRANCH  23  24
HETATM   24  C8  UNL     1      14.300  65.187   5.261  1.00  0.00     0.196 C 
HETATM   25 CL1  UNL     1      14.912  63.856   4.221  1.00  0.00    -0.106 Cl
HETATM   26 CL2  UNL     1      14.342  64.688   6.960  1.00  0.00    -0.106 Cl
ENDBRANCH  23  24
ENDBRANCH   5  23
BRANCH   7  27
HETATM   27  N3  UNL     1      12.782  64.578   0.931  1.00  0.00    -0.066 N 
ATOM     28  H33 UNL     1      13.092  65.383   0.388  1.00  0.00     0.275 HD
ATOM     29  H32 UNL     1      13.490  64.629   1.663  1.00  0.00     0.275 HD
ATOM     30  H31 UNL     1      12.818  63.705   0.404  1.00  0.00     0.275 HD
ENDBRANCH   7  27
BRANCH   1  31
HETATM   31  C4  UNL     1       9.993  68.042   3.098  1.00  0.00     0.039 C 
BRANCH  31  32
HETATM   32  C2  UNL     1       9.197  69.213   2.713  1.00  0.00    -0.020 C 
HETATM   33  C1  UNL     1       8.614  68.932   1.297  1.00  0.00     0.009 C 
HETATM   34  C3  UNL     1      10.008  70.460   2.525  1.00  0.00     0.009 C 
ENDBRANCH  31  32
ENDBRANCH   1  31
BRANCH   8  35
HETATM   35  C11 UNL     1      11.575  62.495   0.504  1.00  0.00     0.258 C 
HETATM   36  O1  UNL     1      11.443  62.475  -0.699  1.00  0.00    -0.305 OA
ENDBRANCH   8  35
BRANCH  19  37
HETATM   37  C17 UNL     1       4.995  66.485   2.731  1.00  0.00     0.016 C 
HETATM   38  C18 UNL     1       4.632  66.065   4.107  1.00  0.00     0.012 C 
HETATM   39  C19 UNL     1       5.194  67.995   2.630  1.00  0.00     0.012 C 
ENDBRANCH  19  37
TORSDOF 7
ENDMDL
MODEL 2
REMARK VINA RESULT: -6.591474260      3.071      5.005
REMARK  7 active torsions:
REMARK  status: ('A' for Active; 'I' for Inactive)
REMARK    1  A    between atoms: C2_2  and  C4_4 
REMARK    2  A    between atoms: C4_4  and  C5_5 
REMARK    3  A    between atoms: N2_9  and  C7_11 
REMARK    4  A    between atoms: C7_11  and  C8_12 
REMARK    5  A    between atoms: C9_15  and  N3_16 
REMARK    6  A    between atoms: C10_20  and  C11_21 
REMARK    7  A    between atoms: C16_33  and  C17_34 
ROOT
HETATM    1  C5  UNL     1      10.259  65.978   2.753  1.00  0.00     0.183 C 
HETATM    2  N1  UNL     1       9.379  64.762   2.733  1.00  0.00    -0.364 N 
ATOM      3  H1  UNL     1       8.700  64.628   3.482  1.00  0.00     0.161 HD
HETATM    4  C6  UNL     1       9.466  63.802   1.707  1.00  0.00     0.107 C 
HETATM    5  N2  UNL     1       9.294  62.565   1.976  1.00  0.00    -0.376 N 
ATOM      6  H2  UNL     1       9.359  61.886   1.218  1.00  0.00     0.160 HD
HETATM    7  C9  UNL     1       9.759  64.163   0.286  1.00  0.00     0.279 C 
HETATM    8  C10 UNL     1       8.554  64.726  -0.389  1.00  0.00     0.183 C 
HETATM    9  N4  UNL     1       8.784  66.121  -0.679  1.00  0.00    -0.346 N 
ATOM     10  H4  UNL     1       9.766  66.390  -0.754  1.00  0.00     0.163 HD
HETATM   11  C12 UNL     1       7.880  67.152  -0.870  1.00  0.00     0.240 C 
HETATM   12  O2  UNL     1       7.975  67.808  -1.986  1.00  0.00    -0.271 OA
HETATM   13  C13 UNL     1       6.798  67.643   0.006  1.00  0.00     0.172 C 
HETATM   14  C14 UNL     1       6.250  66.650   0.978  1.00  0.00     0.042 C 
HETATM   15  N5  UNL     1       7.058  68.937   0.610  1.00  0.00    -0.346 N 
ATOM     16  H5  UNL     1       6.228  69.519   0.723  1.00  0.00     0.163 HD
HETATM   17  C15 UNL     1       8.225  69.524   1.058  1.00  0.00     0.248 C 
HETATM   18  O3  UNL     1       8.609  70.601   0.453  1.00  0.00    -0.271 OA
HETATM   19  C16 UNL     1       9.152  69.130   2.149  1.00  0.00     0.227 C 
HETATM   20  O4  UNL     1       8.773  68.037   2.884  1.00  0.00    -0.304 OA
HETATM   21  C20 UNL     1       9.388  66.977   3.424  1.00  0.00     0.282 C 
HETATM   22  O5  UNL     1       9.222  66.764   4.680  1.00  0.00    -0.263 OA
ENDROOT
BRANCH   5  23
HETATM   23  C7  UNL     1       9.013  62.093   3.301  1.00  0.00     0.157 C 
BRANCH  23  24
HETATM   24  C8  UNL     1       7.730  61.283   3.362  1.00  0.00     0.196 C 
HETATM   25 CL1  UNL     1       7.082  61.489   5.024  1.00  0.00    -0.106 Cl
HETATM   26 CL2  UNL     1       8.031  59.566   3.044  1.00  0.00    -0.106 Cl
ENDBRANCH  23  24
ENDBRANCH   5  23
BRANCH   7  27
HETATM   27  N3  UNL     1      10.177  62.958  -0.395  1.00  0.00    -0.066 N 
ATOM     28  H33 UNL     1       9.827  62.110   0.050  1.00  0.00     0.275 HD
ATOM     29  H32 UNL     1       9.720  62.835  -1.298  1.00  0.00     0.275 HD
ATOM     30  H31 UNL     1      11.195  62.979  -0.464  1.00  0.00     0.275 HD
ENDBRANCH   7  27
BRANCH   1  31
HETATM   31  C4  UNL     1      11.400  65.563   3.629  1.00  0.00     0.039 C 
BRANCH  31  32
HETATM   32  C2  UNL     1      12.770  65.941   3.267  1.00  0.00    -0.020 C 
HETATM   33  C1  UNL     1      12.983  65.543   1.776  1.00  0.00     0.009 C 
HETATM   34  C3  UNL     1      13.825  65.165   3.998  1.00  0.00     0.009 C 
ENDBRANCH  31  32
ENDBRANCH   1  31
BRANCH   8  35
HETATM   35  C11 UNL     1       8.384  63.986  -1.703  1.00  0.00     0.258 C 
HETATM   36  O1  UNL     1       7.675  63.007  -1.763  1.00  0.00    -0.305 OA
ENDBRANCH   8  35
BRANCH  19  37
HETATM   37  C17 UNL     1       9.206  70.306   3.151  1.00  0.00     0.016 C 
HETATM   38  C18 UNL     1       8.194  70.205   4.232  1.00  0.00     0.012 C 
HETATM   39  C19 UNL     1      10.622  70.423   3.706  1.00  0.00     0.012 C 
ENDBRANCH  19  37
TORSDOF 7
ENDMDL
MODEL 3
REMARK VINA RESULT: -6.581925646      2.982      5.716
REMARK  7 active torsions:
REMARK  status: ('A' for Active; 'I' for Inactive)
REMARK    1  A    between atoms: C2_2  and  C4_4 
REMARK    2  A    between atoms: C4_4  and  C5_5 
REMARK    3  A    between atoms: N2_9  and  C7_11 
REMARK    4  A    between atoms: C7_11  and  C8_12 
REMARK    5  A    between atoms: C9_15  and  N3_16 
REMARK    6  A    between atoms: C10_20  and  C11_21 
REMARK    7  A    between atoms: C16_33  and  C17_34 
ROOT
HETATM    1  C5  UNL     1       8.512  62.711   1.929  1.00  0.00     0.183 C 
HETATM    2  N1  UNL     1       9.238  63.212   0.714  1.00  0.00    -0.364 N 
ATOM      3  H1  UNL     1       8.707  63.418  -0.132  1.00  0.00     0.161 HD
HETATM    4  C6  UNL     1      10.632  63.406   0.712  1.00  0.00     0.107 C 
HETATM    5  N2  UNL     1      11.307  63.161  -0.344  1.00  0.00    -0.376 N 
ATOM      6  H2  UNL     1      12.316  63.310  -0.326  1.00  0.00     0.160 HD
HETATM    7  C9  UNL     1      11.381  63.892   1.911  1.00  0.00     0.279 C 
HETATM    8  C10 UNL     1      11.212  65.363   2.095  1.00  0.00     0.183 C 
HETATM    9  N4  UNL     1      10.447  65.602   3.296  1.00  0.00    -0.346 N 
ATOM     10  H4  UNL     1      10.484  64.853   3.987  1.00  0.00     0.163 HD
HETATM   11  C12 UNL     1       9.671  66.691   3.656  1.00  0.00     0.240 C 
HETATM   12  O2  UNL     1       9.968  67.270   4.779  1.00  0.00    -0.271 OA
HETATM   13  C13 UNL     1       8.532  67.320   2.957  1.00  0.00     0.172 C 
HETATM   14  C14 UNL     1       8.492  67.124   1.477  1.00  0.00     0.042 C 
HETATM   15  N5  UNL     1       7.246  67.096   3.590  1.00  0.00    -0.346 N 
ATOM     16  H5  UNL     1       6.600  67.883   3.513  1.00  0.00     0.163 HD
HETATM   17  C15 UNL     1       6.736  66.013   4.279  1.00  0.00     0.248 C 
HETATM   18  O3  UNL     1       6.440  66.198   5.524  1.00  0.00    -0.271 OA
HETATM   19  C16 UNL     1       6.454  64.625   3.833  1.00  0.00     0.227 C 
HETATM   20  O4  UNL     1       6.676  64.373   2.504  1.00  0.00    -0.304 OA
HETATM   21  C20 UNL     1       7.185  63.364   1.786  1.00  0.00     0.282 C 
HETATM   22  O5  UNL     1       6.464  62.877   0.841  1.00  0.00    -0.263 OA
ENDROOT
BRANCH   5  23
HETATM   23  C7  UNL     1      10.704  62.684  -1.555  1.00  0.00     0.157 C 
BRANCH  23  24
HETATM   24  C8  UNL     1      10.420  63.809  -2.535  1.00  0.00     0.196 C 
HETATM   25 CL1  UNL     1      10.526  63.087  -4.176  1.00  0.00    -0.106 Cl
HETATM   26 CL2  UNL     1      11.601  65.120  -2.381  1.00  0.00    -0.106 Cl
ENDBRANCH  23  24
ENDBRANCH   5  23
BRANCH   7  27
HETATM   27  N3  UNL     1      12.780  63.589   1.706  1.00  0.00    -0.066 N 
ATOM     28  H33 UNL     1      13.068  62.721   2.157  1.00  0.00     0.275 HD
ATOM     29  H32 UNL     1      12.991  63.317   0.746  1.00  0.00     0.275 HD
ATOM     30  H31 UNL     1      13.320  64.397   2.017  1.00  0.00     0.275 HD
ENDBRANCH   7  27
BRANCH   1  31
HETATM   31  C4  UNL     1       8.429  61.235   1.696  1.00  0.00     0.039 C 
BRANCH  31  32
HETATM   32  C2  UNL     1       8.146  60.335   2.818  1.00  0.00    -0.020 C 
HETATM   33  C1  UNL     1       6.807  59.604   2.501  1.00  0.00     0.009 C 
HETATM   34  C3  UNL     1       7.867  61.046   4.109  1.00  0.00     0.009 C 
ENDBRANCH  31  32
ENDBRANCH   1  31
BRANCH   8  35
HETATM   35  C11 UNL     1      12.595  65.958   2.282  1.00  0.00     0.258 C 
HETATM   36  O1  UNL     1      13.021  66.173   3.394  1.00  0.00    -0.305 OA
ENDBRANCH   8  35
BRANCH  19  37
HETATM   37  C17 UNL     1       4.947  64.369   4.059  1.00  0.00     0.016 C 
HETATM   38  C18 UNL     1       4.095  64.838   2.938  1.00  0.00     0.012 C 
HETATM   39  C19 UNL     1       4.733  62.887   4.356  1.00  0.00     0.012 C 
ENDBRANCH  19  37
TORSDOF 7
ENDMDL
MODEL 4
REMARK VINA RESULT: -6.536629682      3.801      6.638
REMARK  7 active torsions:
REMARK  status: ('A' for Active; 'I' for Inactive)
REMARK    1  A    between atoms: C2_2  and  C4_4 
REMARK    2  A    between atoms: C4_4  and  C5_5 
REMARK    3  A    between atoms: N2_9  and  C7_11 
REMARK    4  A    between atoms: C7_11  and  C8_12 
REMARK    5  A    between atoms: C9_15  and  N3_16 
REMARK    6  A    between atoms: C10_20  and  C11_21 
REMARK    7  A    between atoms: C16_33  and  C17_34 
ROOT
HETATM    1  C5  UNL     1       5.772  62.481   3.140  1.00  0.00     0.183 C 
HETATM    2  N1  UNL     1       5.986  62.737   1.676  1.00  0.00    -0.364 N 
ATOM      3  H1  UNL     1       5.179  62.931   1.083  1.00  0.00     0.161 HD
HETATM    4  C6  UNL     1       7.270  62.716   1.100  1.00  0.00     0.107 C 
HETATM    5  N2  UNL     1       7.430  62.263  -0.083  1.00  0.00    -0.376 N 
ATOM      6  H2  UNL     1       8.368  62.259  -0.483  1.00  0.00     0.160 HD
HETATM    7  C9  UNL     1       8.485  63.206   1.820  1.00  0.00     0.279 C 
HETATM    8  C10 UNL     1       8.549  64.697   1.824  1.00  0.00     0.183 C 
HETATM    9  N4  UNL     1       8.365  65.173   3.174  1.00  0.00    -0.346 N 
ATOM     10  H4  UNL     1       8.608  64.503   3.904  1.00  0.00     0.163 HD
HETATM   11  C12 UNL     1       7.912  66.398   3.633  1.00  0.00     0.240 C 
HETATM   12  O2  UNL     1       8.694  67.040   4.447  1.00  0.00    -0.271 OA
HETATM   13  C13 UNL     1       6.654  67.115   3.345  1.00  0.00     0.172 C 
HETATM   14  C14 UNL     1       5.996  66.774   2.048  1.00  0.00     0.042 C 
HETATM   15  N5  UNL     1       5.721  67.156   4.456  1.00  0.00    -0.346 N 
ATOM     16  H5  UNL     1       5.179  68.018   4.514  1.00  0.00     0.163 HD
HETATM   17  C15 UNL     1       5.433  66.240   5.449  1.00  0.00     0.248 C 
HETATM   18  O3  UNL     1       5.689  66.597   6.666  1.00  0.00    -0.271 OA
HETATM   19  C16 UNL     1       4.862  64.872   5.371  1.00  0.00     0.227 C 
HETATM   20  O4  UNL     1       4.498  64.452   4.118  1.00  0.00    -0.304 OA
HETATM   21  C20 UNL     1       4.572  63.308   3.425  1.00  0.00     0.282 C 
HETATM   22  O5  UNL     1       3.485  62.840   2.925  1.00  0.00    -0.263 OA
ENDROOT
BRANCH   5  23
HETATM   23  C7  UNL     1       6.343  61.760  -0.873  1.00  0.00     0.157 C 
BRANCH  23  24
HETATM   24  C8  UNL     1       6.353  62.319  -2.285  1.00  0.00     0.196 C 
HETATM   25 CL1  UNL     1       6.478  60.905  -3.386  1.00  0.00    -0.106 Cl
HETATM   26 CL2  UNL     1       7.729  63.404  -2.544  1.00  0.00    -0.106 Cl
ENDBRANCH  23  24
ENDBRANCH   5  23
BRANCH   7  27
HETATM   27  N3  UNL     1       9.643  62.675   1.136  1.00  0.00    -0.066 N 
ATOM     28  H33 UNL     1       9.839  61.705   1.381  1.00  0.00     0.275 HD
ATOM     29  H32 UNL     1       9.484  62.532   0.139  1.00  0.00     0.275 HD
ATOM     30  H31 UNL     1      10.428  63.299   1.327  1.00  0.00     0.275 HD
ENDBRANCH   7  27
BRANCH   1  31
HETATM   31  C4  UNL     1       5.460  61.017   3.191  1.00  0.00     0.039 C 
BRANCH  31  32
HETATM   32  C2  UNL     1       6.360  60.105   3.903  1.00  0.00    -0.020 C 
HETATM   33  C1  UNL     1       7.191  60.961   4.905  1.00  0.00     0.009 C 
HETATM   34  C3  UNL     1       7.399  59.473   3.026  1.00  0.00     0.009 C 
ENDBRANCH  31  32
ENDBRANCH   1  31
BRANCH   8  35
HETATM   35  C11 UNL     1       9.938  65.092   1.360  1.00  0.00     0.258 C 
HETATM   36  O1  UNL     1      10.110  65.506   0.237  1.00  0.00    -0.305 OA
ENDBRANCH   8  35
BRANCH  19  37
HETATM   37  C17 UNL     1       3.560  64.871   6.204  1.00  0.00     0.016 C 
HETATM   38  C18 UNL     1       2.360  65.255   5.421  1.00  0.00     0.012 C 
HETATM   39  C19 UNL     1       3.395  63.507   6.868  1.00  0.00     0.012 C 
ENDBRANCH  19  37
TORSDOF 7
ENDMDL
MODEL 5
REMARK VINA RESULT: -6.427429216      2.729      5.599
REMARK  7 active torsions:
REMARK  status: ('A' for Active; 'I' for Inactive)
REMARK    1  A    between atoms: C2_2  and  C4_4 
REMARK    2  A    between atoms: C4_4  and  C5_5 
REMARK    3  A    between atoms: N2_9  and  C7_11 
REMARK    4  A    between atoms: C7_11  and  C8_12 
REMARK    5  A    between atoms: C9_15  and  N3_16 
REMARK    6  A    between atoms: C10_20  and  C11_21 
REMARK    7  A    between atoms: C16_33  and  C17_34 
ROOT
HETATM    1  C5  UNL     1       7.949  62.483   2.204  1.00  0.00     0.183 C 
HETATM    2  N1  UNL     1       8.948  63.101   1.270  1.00  0.00    -0.364 N 
ATOM      3  H1  UNL     1       8.740  63.134   0.272  1.00  0.00     0.161 HD
HETATM    4  C6  UNL     1      10.164  63.638   1.734  1.00  0.00     0.107 C 
HETATM    5  N2  UNL     1      11.221  63.527   1.025  1.00  0.00    -0.376 N 
ATOM      6  H2  UNL     1      12.091  63.925   1.379  1.00  0.00     0.160 HD
HETATM    7  C9  UNL     1      10.286  64.343   3.047  1.00  0.00     0.279 C 
HETATM    8  C10 UNL     1       9.744  65.731   2.968  1.00  0.00     0.183 C 
HETATM    9  N4  UNL     1       8.554  65.819   3.780  1.00  0.00    -0.346 N 
ATOM     10  H4  UNL     1       8.492  65.131   4.531  1.00  0.00     0.163 HD
HETATM   11  C12 UNL     1       7.482  66.692   3.699  1.00  0.00     0.240 C 
HETATM   12  O2  UNL     1       7.204  67.371   4.770  1.00  0.00    -0.271 OA
HETATM   13  C13 UNL     1       6.580  66.988   2.568  1.00  0.00     0.172 C 
HETATM   14  C14 UNL     1       7.139  66.729   1.208  1.00  0.00     0.042 C 
HETATM   15  N5  UNL     1       5.232  66.475   2.731  1.00  0.00    -0.346 N 
ATOM     16  H5  UNL     1       4.507  67.071   2.330  1.00  0.00     0.163 HD
HETATM   17  C15 UNL     1       4.751  65.327   3.329  1.00  0.00     0.248 C 
HETATM   18  O3  UNL     1       3.979  65.481   4.355  1.00  0.00    -0.271 OA
HETATM   19  C16 UNL     1       4.966  63.896   2.996  1.00  0.00     0.227 C 
HETATM   20  O4  UNL     1       5.717  63.654   1.875  1.00  0.00    -0.304 OA
HETATM   21  C20 UNL     1       6.664  62.777   1.520  1.00  0.00     0.282 C 
HETATM   22  O5  UNL     1       6.472  62.088   0.453  1.00  0.00    -0.263 OA
ENDROOT
BRANCH   5  23
HETATM   23  C7  UNL     1      11.233  62.867  -0.248  1.00  0.00     0.157 C 
BRANCH  23  24
HETATM   24  C8  UNL     1      11.430  63.840  -1.397  1.00  0.00     0.196 C 
HETATM   25 CL1  UNL     1      13.031  64.612  -1.135  1.00  0.00    -0.106 Cl
HETATM   26 CL2  UNL     1      10.165  65.080  -1.423  1.00  0.00    -0.106 Cl
ENDBRANCH  23  24
ENDBRANCH   5  23
BRANCH   7  27
HETATM   27  N3  UNL     1      11.690  64.392   3.389  1.00  0.00    -0.066 N 
ATOM     28  H33 UNL     1      12.063  63.483   3.666  1.00  0.00     0.275 HD
ATOM     29  H32 UNL     1      12.291  64.542   2.579  1.00  0.00     0.275 HD
ATOM     30  H31 UNL     1      11.808  65.105   4.109  1.00  0.00     0.275 HD
ENDBRANCH   7  27
BRANCH   1  31
HETATM   31  C4  UNL     1       8.283  61.025   2.150  1.00  0.00     0.039 C 
BRANCH  31  32
HETATM   32  C2  UNL     1       7.809  60.129   3.210  1.00  0.00    -0.020 C 
HETATM   33  C1  UNL     1       6.720  59.206   2.586  1.00  0.00     0.009 C 
HETATM   34  C3  UNL     1       7.087  60.833   4.320  1.00  0.00     0.009 C 
ENDBRANCH  31  32
ENDBRANCH   1  31
BRANCH   8  35
HETATM   35  C11 UNL     1      10.792  66.660   3.551  1.00  0.00     0.258 C 
HETATM   36  O1  UNL     1      11.439  67.381   2.825  1.00  0.00    -0.305 OA
ENDBRANCH   8  35
BRANCH  19  37
HETATM   37  C17 UNL     1       3.578  63.280   2.708  1.00  0.00     0.016 C 
HETATM   38  C18 UNL     1       3.044  63.631   1.368  1.00  0.00     0.012 C 
HETATM   39  C19 UNL     1       3.651  61.769   2.913  1.00  0.00     0.012 C 
ENDBRANCH  19  37
TORSDOF 7
ENDMDL
