MODEL 1
REMARK VINA RESULT: -9.536866599      0.000      0.000
REMARK  8 active torsions:
REMARK  status: ('A' for Active; 'I' for Inactive)
REMARK    1  A    between atoms: S1_2  and  N1_4 
REMARK    2  A    between atoms: S1_2  and  N2_13 
REMARK    3  A    between atoms: N1_4  and  C1_6 
REMARK    4  A    between atoms: C1_6  and  C2_7 
REMARK    5  A    between atoms: C2_7  and  C3_9 
REMARK    6  A    between atoms: C9_19  and  N3_20 
REMARK    7  A    between atoms: N3_20  and  C10_22 
REMARK    8  A    between atoms: N6_29  and  C13_31 
ROOT
HETATM    1  N2  UNL     1      12.110  66.242   2.435  1.00  0.00    -0.193 NA
HETATM    2  C4  UNL     1      12.960  65.112   2.280  1.00  0.00     0.110 C 
HETATM    3  C5  UNL     1      12.014  63.904   2.192  1.00  0.00     0.026 C 
HETATM    4  C6  UNL     1      10.928  64.500   1.309  1.00  0.00    -0.025 C 
HETATM    5  C7  UNL     1      11.380  64.407  -0.111  1.00  0.00     0.013 C 
HETATM    6  C8  UNL     1      10.453  63.327  -0.694  1.00  0.00     0.026 C 
HETATM    7  C9  UNL     1       9.177  63.651   0.006  1.00  0.00     0.100 C 
HETATM    8  C19 UNL     1       9.621  63.754   1.445  1.00  0.00     0.036 C 
HETATM    9  C20 UNL     1      10.847  65.911   1.787  1.00  0.00     0.118 C 
ENDROOT
BRANCH   7  10
HETATM   10  N3  UNL     1       8.071  62.826  -0.238  1.00  0.00    -0.221 N 
ATOM     11  H3  UNL     1       7.956  62.536  -1.209  1.00  0.00     0.178 HD
BRANCH  10  12
HETATM   12  C10 UNL     1       7.181  62.378   0.573  1.00  0.00     0.693 A 
HETATM   13  N4  UNL     1       6.059  63.034   0.878  1.00  0.00    -0.187 N 
HETATM   14  C11 UNL     1       5.196  62.482   1.733  1.00  0.00     0.215 A 
ATOM     15  H4  UNL     1       5.864  63.946   0.464  1.00  0.00     0.185 HD
HETATM   16  N5  UNL     1       5.394  61.274   2.320  1.00  0.00    -0.187 N 
HETATM   17  C12 UNL     1       6.524  60.625   2.005  1.00  0.00     0.693 A 
ATOM     18  H5  UNL     1       4.715  60.879   2.970  1.00  0.00     0.185 HD
HETATM   19  N6  UNL     1       6.779  59.482   2.520  1.00  0.00    -0.221 N 
HETATM   20  N7  UNL     1       7.411  61.190   1.128  1.00  0.00    -0.022 N 
ATOM     21  H6  UNL     1       7.646  59.010   2.264  1.00  0.00     0.178 HD
ATOM     22  H7  UNL     1       8.268  60.689   0.894  1.00  0.00     0.203 HD
BRANCH  19  23
HETATM   23  C13 UNL     1       5.896  58.844   3.438  1.00  0.00     0.099 C 
HETATM   24  C14 UNL     1       6.652  58.150   4.520  1.00  0.00     0.026 C 
HETATM   25  C15 UNL     1       7.048  56.740   4.234  1.00  0.00     0.002 C 
HETATM   26  C16 UNL     1       5.973  55.893   3.612  1.00  0.00     0.000 C 
HETATM   27  C17 UNL     1       5.584  56.610   2.311  1.00  0.00     0.002 C 
HETATM   28  C18 UNL     1       4.936  57.897   2.732  1.00  0.00     0.026 C 
ENDBRANCH  19  23
ENDBRANCH  10  12
ENDBRANCH   7  10
BRANCH   1  29
HETATM   29  S1  UNL     1      11.774  66.731   4.025  1.00  0.00     0.298 S 
HETATM   30  O1  UNL     1      11.495  68.210   4.016  1.00  0.00    -0.188 OA
HETATM   31  O2  UNL     1      10.483  66.032   4.438  1.00  0.00    -0.188 OA
BRANCH  29  32
HETATM   32  N1  UNL     1      12.984  66.421   5.171  1.00  0.00    -0.304 N 
ATOM     33  H1  UNL     1      13.625  67.145   5.498  1.00  0.00     0.173 HD
BRANCH  32  34
HETATM   34  C1  UNL     1      13.042  65.074   5.648  1.00  0.00     0.179 C 
BRANCH  34  35
HETATM   35  C2  UNL     1      14.317  64.814   6.448  1.00  0.00     0.295 C 
HETATM   36  F1  UNL     1      14.015  63.962   7.498  1.00  0.00    -0.238 F 
BRANCH  35  37
HETATM   37  C3  UNL     1      15.238  64.042   5.494  1.00  0.00     0.419 C 
HETATM   38  F2  UNL     1      15.900  63.080   6.223  1.00  0.00    -0.168 F 
HETATM   39  F3  UNL     1      16.084  64.936   4.884  1.00  0.00    -0.168 F 
HETATM   40  F4  UNL     1      14.486  63.421   4.503  1.00  0.00    -0.168 F 
ENDBRANCH  35  37
ENDBRANCH  34  35
ENDBRANCH  32  34
ENDBRANCH  29  32
ENDBRANCH   1  29
TORSDOF 8
ENDMDL
MODEL 2
REMARK VINA RESULT: -9.172307556      4.279      8.744
REMARK  8 active torsions:
REMARK  status: ('A' for Active; 'I' for Inactive)
REMARK    1  A    between atoms: S1_2  and  N1_4 
REMARK    2  A    between atoms: S1_2  and  N2_13 
REMARK    3  A    between atoms: N1_4  and  C1_6 
REMARK    4  A    between atoms: C1_6  and  C2_7 
REMARK    5  A    between atoms: C2_7  and  C3_9 
REMARK    6  A    between atoms: C9_19  and  N3_20 
REMARK    7  A    between atoms: N3_20  and  C10_22 
REMARK    8  A    between atoms: N6_29  and  C13_31 
ROOT
HETATM    1  N2  UNL     1       5.837  62.022   1.842  1.00  0.00    -0.193 NA
HETATM    2  C4  UNL     1       5.814  63.436   2.003  1.00  0.00     0.110 C 
HETATM    3  C5  UNL     1       7.265  63.829   2.322  1.00  0.00     0.026 C 
HETATM    4  C6  UNL     1       7.992  62.920   1.343  1.00  0.00    -0.025 C 
HETATM    5  C7  UNL     1       7.979  63.574   0.001  1.00  0.00     0.013 C 
HETATM    6  C8  UNL     1       9.447  63.990  -0.191  1.00  0.00     0.026 C 
HETATM    7  C9  UNL     1      10.146  62.828   0.428  1.00  0.00     0.100 C 
HETATM    8  C19 UNL     1       9.431  62.692   1.750  1.00  0.00     0.036 C 
HETATM    9  C20 UNL     1       7.173  61.673   1.374  1.00  0.00     0.118 C 
ENDROOT
BRANCH   7  10
HETATM   10  N3  UNL     1      11.546  62.865   0.489  1.00  0.00    -0.221 N 
ATOM     11  H3  UNL     1      12.018  62.104   0.001  1.00  0.00     0.178 HD
BRANCH  10  12
HETATM   12  C10 UNL     1      12.325  63.709   1.065  1.00  0.00     0.693 A 
HETATM   13  N4  UNL     1      12.835  64.782   0.457  1.00  0.00    -0.187 N 
HETATM   14  C11 UNL     1      13.636  65.598   1.144  1.00  0.00     0.215 A 
ATOM     15  H4  UNL     1      12.616  64.975  -0.521  1.00  0.00     0.185 HD
HETATM   16  N5  UNL     1      13.967  65.399   2.445  1.00  0.00    -0.187 N 
HETATM   17  C12 UNL     1      13.449  64.319   3.046  1.00  0.00     0.693 A 
ATOM     18  H5  UNL     1      14.583  66.043   2.943  1.00  0.00     0.185 HD
HETATM   19  N6  UNL     1      13.718  64.067   4.270  1.00  0.00    -0.221 N 
HETATM   20  N7  UNL     1      12.627  63.480   2.341  1.00  0.00    -0.022 N 
ATOM     21  H6  UNL     1      13.310  63.237   4.702  1.00  0.00     0.178 HD
ATOM     22  H7  UNL     1      12.237  62.660   2.806  1.00  0.00     0.203 HD
BRANCH  19  23
HETATM   23  C13 UNL     1      14.565  64.901   5.053  1.00  0.00     0.099 C 
HETATM   24  C14 UNL     1      15.788  64.169   5.491  1.00  0.00     0.026 C 
HETATM   25  C15 UNL     1      15.672  63.423   6.779  1.00  0.00     0.002 C 
HETATM   26  C16 UNL     1      14.990  64.174   7.888  1.00  0.00     0.000 C 
HETATM   27  C17 UNL     1      13.596  64.528   7.351  1.00  0.00     0.002 C 
HETATM   28  C18 UNL     1      13.824  65.507   6.236  1.00  0.00     0.026 C 
ENDBRANCH  19  23
ENDBRANCH  10  12
ENDBRANCH   7  10
BRANCH   1  29
HETATM   29  S1  UNL     1       5.502  61.093   3.221  1.00  0.00     0.298 S 
HETATM   30  O1  UNL     1       6.774  60.946   4.012  1.00  0.00    -0.188 OA
HETATM   31  O2  UNL     1       4.533  61.903   4.075  1.00  0.00    -0.188 OA
BRANCH  29  32
HETATM   32  N1  UNL     1       4.864  59.547   2.942  1.00  0.00    -0.304 N 
ATOM     33  H1  UNL     1       3.907  59.297   3.192  1.00  0.00     0.173 HD
BRANCH  32  34
HETATM   34  C1  UNL     1       5.763  58.617   2.331  1.00  0.00     0.179 C 
BRANCH  34  35
HETATM   35  C2  UNL     1       5.856  57.316   3.126  1.00  0.00     0.295 C 
HETATM   36  F1  UNL     1       6.069  56.271   2.242  1.00  0.00    -0.238 F 
BRANCH  35  37
HETATM   37  C3  UNL     1       7.128  57.454   3.973  1.00  0.00     0.419 C 
HETATM   38  F2  UNL     1       6.791  58.076   5.154  1.00  0.00    -0.168 F 
HETATM   39  F3  UNL     1       8.066  58.147   3.245  1.00  0.00    -0.168 F 
HETATM   40  F4  UNL     1       7.651  56.197   4.257  1.00  0.00    -0.168 F 
ENDBRANCH  35  37
ENDBRANCH  34  35
ENDBRANCH  32  34
ENDBRANCH  29  32
ENDBRANCH   1  29
TORSDOF 8
ENDMDL
MODEL 3
REMARK VINA RESULT: -8.988197503      4.670      9.023
REMARK  8 active torsions:
REMARK  status: ('A' for Active; 'I' for Inactive)
REMARK    1  A    between atoms: S1_2  and  N1_4 
REMARK    2  A    between atoms: S1_2  and  N2_13 
REMARK    3  A    between atoms: N1_4  and  C1_6 
REMARK    4  A    between atoms: C1_6  and  C2_7 
REMARK    5  A    between atoms: C2_7  and  C3_9 
REMARK    6  A    between atoms: C9_19  and  N3_20 
REMARK    7  A    between atoms: N3_20  and  C10_22 
REMARK    8  A    between atoms: N6_29  and  C13_31 
ROOT
HETATM    1  N2  UNL     1       4.786  62.024   1.961  1.00  0.00    -0.193 NA
HETATM    2  C4  UNL     1       5.141  62.103   3.337  1.00  0.00     0.110 C 
HETATM    3  C5  UNL     1       6.643  61.783   3.385  1.00  0.00     0.026 C 
HETATM    4  C6  UNL     1       7.104  62.559   2.160  1.00  0.00    -0.025 C 
HETATM    5  C7  UNL     1       7.269  63.991   2.551  1.00  0.00     0.013 C 
HETATM    6  C8  UNL     1       8.796  64.177   2.527  1.00  0.00     0.026 C 
HETATM    7  C9  UNL     1       9.157  63.339   1.348  1.00  0.00     0.100 C 
HETATM    8  C19 UNL     1       8.428  62.050   1.637  1.00  0.00     0.036 C 
HETATM    9  C20 UNL     1       5.981  62.360   1.198  1.00  0.00     0.118 C 
ENDROOT
BRANCH   7  10
HETATM   10  N3  UNL     1      10.515  63.216   1.026  1.00  0.00    -0.221 N 
ATOM     11  H3  UNL     1      10.735  62.479   0.356  1.00  0.00     0.178 HD
BRANCH  10  12
HETATM   12  C10 UNL     1      11.527  63.889   1.444  1.00  0.00     0.693 A 
HETATM   13  N4  UNL     1      12.314  64.617   0.649  1.00  0.00    -0.187 N 
HETATM   14  C11 UNL     1      13.341  65.280   1.183  1.00  0.00     0.215 A 
ATOM     15  H4  UNL     1      12.133  64.665  -0.354  1.00  0.00     0.185 HD
HETATM   16  N5  UNL     1      13.638  65.259   2.508  1.00  0.00    -0.187 N 
HETATM   17  C12 UNL     1      12.840  64.525   3.296  1.00  0.00     0.693 A 
ATOM     18  H5  UNL     1      14.431  65.777   2.885  1.00  0.00     0.185 HD
HETATM   19  N6  UNL     1      13.059  64.457   4.555  1.00  0.00    -0.221 N 
HETATM   20  N7  UNL     1      11.786  63.843   2.750  1.00  0.00    -0.022 N 
ATOM     21  H6  UNL     1      12.437  63.891   5.132  1.00  0.00     0.178 HD
ATOM     22  H7  UNL     1      11.184  63.287   3.357  1.00  0.00     0.203 HD
BRANCH  19  23
HETATM   23  C13 UNL     1      14.139  65.142   5.180  1.00  0.00     0.099 C 
HETATM   24  C14 UNL     1      15.388  64.329   5.143  1.00  0.00     0.026 C 
HETATM   25  C15 UNL     1      15.587  63.392   6.287  1.00  0.00     0.002 C 
HETATM   26  C16 UNL     1      15.285  63.970   7.641  1.00  0.00     0.000 C 
HETATM   27  C17 UNL     1      13.822  64.428   7.577  1.00  0.00     0.002 C 
HETATM   28  C18 UNL     1      13.792  65.567   6.600  1.00  0.00     0.026 C 
ENDBRANCH  19  23
ENDBRANCH  10  12
ENDBRANCH   7  10
BRANCH   1  29
HETATM   29  S1  UNL     1       4.211  60.527   1.408  1.00  0.00     0.298 S 
HETATM   30  O1  UNL     1       2.733  60.654   1.151  1.00  0.00    -0.188 OA
HETATM   31  O2  UNL     1       4.880  60.266   0.062  1.00  0.00    -0.188 OA
BRANCH  29  32
HETATM   32  N1  UNL     1       4.463  59.204   2.437  1.00  0.00    -0.304 N 
ATOM     33  H1  UNL     1       3.803  58.949   3.172  1.00  0.00     0.173 HD
BRANCH  32  34
HETATM   34  C1  UNL     1       5.668  58.470   2.203  1.00  0.00     0.179 C 
BRANCH  34  35
HETATM   35  C2  UNL     1       5.818  57.304   3.179  1.00  0.00     0.295 C 
HETATM   36  F1  UNL     1       6.239  56.188   2.475  1.00  0.00    -0.238 F 
BRANCH  35  37
HETATM   37  C3  UNL     1       6.969  57.708   4.111  1.00  0.00     0.419 C 
HETATM   38  F2  UNL     1       7.328  56.604   4.851  1.00  0.00    -0.168 F 
HETATM   39  F3  UNL     1       6.555  58.766   4.884  1.00  0.00    -0.168 F 
HETATM   40  F4  UNL     1       8.064  58.128   3.363  1.00  0.00    -0.168 F 
ENDBRANCH  35  37
ENDBRANCH  34  35
ENDBRANCH  32  34
ENDBRANCH  29  32
ENDBRANCH   1  29
TORSDOF 8
ENDMDL
MODEL 4
REMARK VINA RESULT: -8.944504504      3.644      6.021
REMARK  8 active torsions:
REMARK  status: ('A' for Active; 'I' for Inactive)
REMARK    1  A    between atoms: S1_2  and  N1_4 
REMARK    2  A    between atoms: S1_2  and  N2_13 
REMARK    3  A    between atoms: N1_4  and  C1_6 
REMARK    4  A    between atoms: C1_6  and  C2_7 
REMARK    5  A    between atoms: C2_7  and  C3_9 
REMARK    6  A    between atoms: C9_19  and  N3_20 
REMARK    7  A    between atoms: N3_20  and  C10_22 
REMARK    8  A    between atoms: N6_29  and  C13_31 
ROOT
HETATM    1  N2  UNL     1       8.398  63.186   2.750  1.00  0.00    -0.193 NA
HETATM    2  C4  UNL     1       7.061  63.457   3.155  1.00  0.00     0.110 C 
HETATM    3  C5  UNL     1       6.239  62.255   2.664  1.00  0.00     0.026 C 
HETATM    4  C6  UNL     1       7.207  61.133   3.007  1.00  0.00    -0.025 C 
HETATM    5  C7  UNL     1       7.050  60.807   4.456  1.00  0.00     0.013 C 
HETATM    6  C8  UNL     1       6.369  59.429   4.425  1.00  0.00     0.026 C 
HETATM    7  C9  UNL     1       7.055  58.809   3.255  1.00  0.00     0.100 C 
HETATM    8  C19 UNL     1       6.926  59.883   2.204  1.00  0.00     0.036 C 
HETATM    9  C20 UNL     1       8.538  61.736   2.702  1.00  0.00     0.118 C 
ENDROOT
BRANCH   7  10
HETATM   10  N3  UNL     1       6.655  57.522   2.870  1.00  0.00    -0.221 N 
ATOM     11  H3  UNL     1       6.428  57.419   1.881  1.00  0.00     0.178 HD
BRANCH  10  12
HETATM   12  C10 UNL     1       6.530  56.453   3.571  1.00  0.00     0.693 A 
HETATM   13  N4  UNL     1       7.486  55.972   4.367  1.00  0.00    -0.187 N 
HETATM   14  C11 UNL     1       7.257  54.851   5.054  1.00  0.00     0.215 A 
ATOM     15  H4  UNL     1       8.381  56.454   4.450  1.00  0.00     0.185 HD
HETATM   16  N5  UNL     1       6.089  54.161   4.990  1.00  0.00    -0.187 N 
HETATM   17  C12 UNL     1       5.136  54.653   4.187  1.00  0.00     0.693 A 
ATOM     18  H5  UNL     1       5.945  53.306   5.528  1.00  0.00     0.185 HD
HETATM   19  N6  UNL     1       4.011  54.056   4.076  1.00  0.00    -0.221 N 
HETATM   20  N7  UNL     1       5.371  55.803   3.481  1.00  0.00    -0.022 N 
ATOM     21  H6  UNL     1       3.303  54.452   3.457  1.00  0.00     0.178 HD
ATOM     22  H7  UNL     1       4.640  56.171   2.872  1.00  0.00     0.203 HD
BRANCH  19  23
HETATM   23  C13 UNL     1       3.709  52.858   4.783  1.00  0.00     0.099 C 
HETATM   24  C14 UNL     1       3.290  51.772   3.851  1.00  0.00     0.026 C 
HETATM   25  C15 UNL     1       1.832  51.713   3.537  1.00  0.00     0.002 C 
HETATM   26  C16 UNL     1       0.921  51.876   4.721  1.00  0.00     0.000 C 
HETATM   27  C17 UNL     1       1.278  53.238   5.332  1.00  0.00     0.002 C 
HETATM   28  C18 UNL     1       2.671  53.091   5.871  1.00  0.00     0.026 C 
ENDBRANCH  19  23
ENDBRANCH  10  12
ENDBRANCH   7  10
BRANCH   1  29
HETATM   29  S1  UNL     1       8.881  63.811   1.248  1.00  0.00     0.298 S 
HETATM   30  O1  UNL     1       9.064  62.661   0.295  1.00  0.00    -0.188 OA
HETATM   31  O2  UNL     1       7.719  64.648   0.725  1.00  0.00    -0.188 OA
BRANCH  29  32
HETATM   32  N1  UNL     1      10.300  64.737   1.247  1.00  0.00    -0.304 N 
ATOM     33  H1  UNL     1      10.745  65.056   0.386  1.00  0.00     0.173 HD
BRANCH  32  34
HETATM   34  C1  UNL     1      10.831  65.042   2.540  1.00  0.00     0.179 C 
BRANCH  34  35
HETATM   35  C2  UNL     1      12.020  64.149   2.887  1.00  0.00     0.295 C 
HETATM   36  F1  UNL     1      12.264  63.301   1.819  1.00  0.00    -0.238 F 
BRANCH  35  37
HETATM   37  C3  UNL     1      13.220  65.101   2.988  1.00  0.00     0.419 C 
HETATM   38  F2  UNL     1      14.308  64.374   3.416  1.00  0.00    -0.168 F 
HETATM   39  F3  UNL     1      12.890  66.131   3.835  1.00  0.00    -0.168 F 
HETATM   40  F4  UNL     1      13.502  65.647   1.740  1.00  0.00    -0.168 F 
ENDBRANCH  35  37
ENDBRANCH  34  35
ENDBRANCH  32  34
ENDBRANCH  29  32
ENDBRANCH   1  29
TORSDOF 8
ENDMDL
MODEL 5
REMARK VINA RESULT: -8.768457654      4.775      9.245
REMARK  8 active torsions:
REMARK  status: ('A' for Active; 'I' for Inactive)
REMARK    1  A    between atoms: S1_2  and  N1_4 
REMARK    2  A    between atoms: S1_2  and  N2_13 
REMARK    3  A    between atoms: N1_4  and  C1_6 
REMARK    4  A    between atoms: C1_6  and  C2_7 
REMARK    5  A    between atoms: C2_7  and  C3_9 
REMARK    6  A    between atoms: C9_19  and  N3_20 
REMARK    7  A    between atoms: N3_20  and  C10_22 
REMARK    8  A    between atoms: N6_29  and  C13_31 
ROOT
HETATM    1  N2  UNL     1       6.096  61.260   1.599  1.00  0.00    -0.193 NA
HETATM    2  C4  UNL     1       5.733  62.554   1.131  1.00  0.00     0.110 C 
HETATM    3  C5  UNL     1       6.744  63.515   1.776  1.00  0.00     0.026 C 
HETATM    4  C6  UNL     1       8.010  62.686   1.622  1.00  0.00    -0.025 C 
HETATM    5  C7  UNL     1       8.526  62.877   0.233  1.00  0.00     0.013 C 
HETATM    6  C8  UNL     1       9.796  63.717   0.453  1.00  0.00     0.026 C 
HETATM    7  C9  UNL     1      10.311  63.112   1.715  1.00  0.00     0.100 C 
HETATM    8  C19 UNL     1       9.085  63.115   2.594  1.00  0.00     0.036 C 
HETATM    9  C20 UNL     1       7.529  61.294   1.861  1.00  0.00     0.118 C 
ENDROOT
BRANCH   7  10
HETATM   10  N3  UNL     1      11.471  63.664   2.277  1.00  0.00    -0.221 N 
ATOM     11  H3  UNL     1      12.334  63.166   2.057  1.00  0.00     0.178 HD
BRANCH  10  12
HETATM   12  C10 UNL     1      11.614  64.698   3.025  1.00  0.00     0.693 A 
HETATM   13  N4  UNL     1      12.504  64.779   4.016  1.00  0.00    -0.187 N 
HETATM   14  C11 UNL     1      12.574  65.900   4.736  1.00  0.00     0.215 A 
ATOM     15  H4  UNL     1      13.122  63.994   4.221  1.00  0.00     0.185 HD
HETATM   16  N5  UNL     1      11.781  66.981   4.516  1.00  0.00    -0.187 N 
HETATM   17  C12 UNL     1      10.891  66.887   3.518  1.00  0.00     0.693 A 
ATOM     18  H5  UNL     1      11.859  67.823   5.085  1.00  0.00     0.185 HD
HETATM   19  N6  UNL     1      10.110  67.865   3.254  1.00  0.00    -0.221 N 
HETATM   20  N7  UNL     1      10.819  65.737   2.779  1.00  0.00    -0.022 N 
ATOM     21  H6  UNL     1       9.442  67.768   2.489  1.00  0.00     0.178 HD
ATOM     22  H7  UNL     1      10.139  65.675   2.021  1.00  0.00     0.203 HD
BRANCH  19  23
HETATM   23  C13 UNL     1      10.139  69.085   3.987  1.00  0.00     0.099 C 
HETATM   24  C14 UNL     1       8.869  69.292   4.741  1.00  0.00     0.026 C 
HETATM   25  C15 UNL     1       7.782  69.998   4.000  1.00  0.00     0.002 C 
HETATM   26  C16 UNL     1       8.225  71.206   3.224  1.00  0.00     0.000 C 
HETATM   27  C17 UNL     1       9.292  70.700   2.245  1.00  0.00     0.002 C 
HETATM   28  C18 UNL     1      10.456  70.275   3.093  1.00  0.00     0.026 C 
ENDBRANCH  19  23
ENDBRANCH  10  12
ENDBRANCH   7  10
BRANCH   1  29
HETATM   29  S1  UNL     1       5.316  60.711   3.001  1.00  0.00     0.298 S 
HETATM   30  O1  UNL     1       6.277  60.830   4.154  1.00  0.00    -0.188 OA
HETATM   31  O2  UNL     1       4.166  61.675   3.274  1.00  0.00    -0.188 OA
BRANCH  29  32
HETATM   32  N1  UNL     1       4.730  59.121   2.955  1.00  0.00    -0.304 N 
ATOM     33  H1  UNL     1       3.831  58.858   3.360  1.00  0.00     0.173 HD
BRANCH  32  34
HETATM   34  C1  UNL     1       5.586  58.174   2.309  1.00  0.00     0.179 C 
BRANCH  34  35
HETATM   35  C2  UNL     1       5.872  56.970   3.203  1.00  0.00     0.295 C 
HETATM   36  F1  UNL     1       6.156  55.878   2.400  1.00  0.00    -0.238 F 
BRANCH  35  37
HETATM   37  C3  UNL     1       7.164  57.325   3.952  1.00  0.00     0.419 C 
HETATM   38  F2  UNL     1       7.888  56.168   4.128  1.00  0.00    -0.168 F 
HETATM   39  F3  UNL     1       6.830  57.940   5.134  1.00  0.00    -0.168 F 
HETATM   40  F4  UNL     1       7.918  58.222   3.203  1.00  0.00    -0.168 F 
ENDBRANCH  35  37
ENDBRANCH  34  35
ENDBRANCH  32  34
ENDBRANCH  29  32
ENDBRANCH   1  29
TORSDOF 8
ENDMDL
