MODEL 1
REMARK VINA RESULT: -5.103316629      0.000      0.000
REMARK  3 active torsions:
REMARK  status: ('A' for Active; 'I' for Inactive)
REMARK    1  A    between atoms: N1_1  and  C1_5 
REMARK    2  A    between atoms: C1_5  and  N2_6 
REMARK    3  A    between atoms: C1_5  and  C2_10 
ROOT
HETATM    1  C2  UNL     1      16.884   8.675  52.500  1.00  0.00     0.114 A 
HETATM    2  C3  UNL     1      18.159   8.208  52.718  1.00  0.00     0.145 A 
HETATM    3  N3  UNL     1      18.683   7.713  51.581  1.00  0.00    -0.186 N 
HETATM    4  N4  UNL     1      17.749   7.864  50.639  1.00  0.00    -0.253 N 
ATOM      5  H4  UNL     1      17.857   7.580  49.666  1.00  0.00     0.191 HD
HETATM    6  C4  UNL     1      16.652   8.437  51.144  1.00  0.00     0.274 A 
HETATM    7  O1  UNL     1      15.583   8.722  50.523  1.00  0.00    -0.266 OA
HETATM    8  C5  UNL     1      20.000   7.168  51.554  1.00  0.00     0.344 C 
HETATM    9  O2  UNL     1      20.497   6.703  50.491  1.00  0.00    -0.245 OA
HETATM   10  N5  UNL     1      20.779   7.141  52.743  1.00  0.00    -0.325 N 
ATOM     11  H5  UNL     1      21.569   6.505  52.844  1.00  0.00     0.165 HD
HETATM   12  C6  UNL     1      20.406   8.053  53.805  1.00  0.00     0.249 C 
HETATM   13  N6  UNL     1      18.964   8.170  53.906  1.00  0.00    -0.358 N 
ATOM     14  H6  UNL     1      18.520   8.227  54.823  1.00  0.00     0.162 HD
ENDROOT
BRANCH   1  15
HETATM   15  C1  UNL     1      15.932   9.302  53.462  1.00  0.00     0.420 C 
BRANCH  15  16
HETATM   16  N1  UNL     1      14.679   8.540  53.531  1.00  0.00    -0.046 N 
ATOM     17  H13 UNL     1      13.856   9.129  53.664  1.00  0.00     0.277 HD
ATOM     18  H12 UNL     1      14.405   8.136  52.636  1.00  0.00     0.277 HD
ATOM     19  H11 UNL     1      14.798   7.844  54.268  1.00  0.00     0.277 HD
ENDBRANCH  15  16
BRANCH  15  20
HETATM   20  N2  UNL     1      15.588  10.632  52.997  1.00  0.00    -0.046 N 
ATOM     21  H23 UNL     1      14.749  11.009  53.438  1.00  0.00     0.277 HD
ATOM     22  H22 UNL     1      16.237  11.351  53.319  1.00  0.00     0.277 HD
ATOM     23  H21 UNL     1      15.519  10.579  51.980  1.00  0.00     0.277 HD
ENDBRANCH  15  20
ENDBRANCH   1  15
TORSDOF 3
ENDMDL
MODEL 2
REMARK VINA RESULT: -4.955808821      1.272      4.085
REMARK  3 active torsions:
REMARK  status: ('A' for Active; 'I' for Inactive)
REMARK    1  A    between atoms: N1_1  and  C1_5 
REMARK    2  A    between atoms: C1_5  and  N2_6 
REMARK    3  A    between atoms: C1_5  and  C2_10 
ROOT
HETATM    1  C2  UNL     1      18.849   7.256  52.980  1.00  0.00     0.114 A 
HETATM    2  C3  UNL     1      17.668   7.958  52.927  1.00  0.00     0.145 A 
HETATM    3  N3  UNL     1      17.228   8.051  51.658  1.00  0.00    -0.186 N 
HETATM    4  N4  UNL     1      18.124   7.411  50.902  1.00  0.00    -0.253 N 
ATOM      5  H4  UNL     1      18.060   7.312  49.889  1.00  0.00     0.191 HD
HETATM    6  C4  UNL     1      19.114   6.917  51.652  1.00  0.00     0.274 A 
HETATM    7  O1  UNL     1      20.120   6.257  51.251  1.00  0.00    -0.266 OA
HETATM    8  C5  UNL     1      16.018   8.737  51.347  1.00  0.00     0.344 C 
HETATM    9  O2  UNL     1      15.601   8.828  50.159  1.00  0.00    -0.245 OA
HETATM   10  N5  UNL     1      15.257   9.336  52.387  1.00  0.00    -0.325 N 
ATOM     11  H5  UNL     1      14.581  10.074  52.192  1.00  0.00     0.165 HD
HETATM   12  C6  UNL     1      15.479   8.857  53.737  1.00  0.00     0.249 C 
HETATM   13  N6  UNL     1      16.883   8.571  53.962  1.00  0.00    -0.358 N 
ATOM     14  H6  UNL     1      17.314   8.804  54.856  1.00  0.00     0.162 HD
ENDROOT
BRANCH   1  15
HETATM   15  C1  UNL     1      19.688   6.910  54.164  1.00  0.00     0.420 C 
BRANCH  15  16
HETATM   16  N1  UNL     1      18.873   6.313  55.229  1.00  0.00    -0.046 N 
ATOM     17  H13 UNL     1      18.249   5.578  54.894  1.00  0.00     0.277 HD
ATOM     18  H12 UNL     1      19.414   5.739  55.875  1.00  0.00     0.277 HD
ATOM     19  H11 UNL     1      18.380   7.081  55.687  1.00  0.00     0.277 HD
ENDBRANCH  15  16
BRANCH  15  20
HETATM   20  N2  UNL     1      20.268   8.123  54.710  1.00  0.00    -0.046 N 
ATOM     21  H23 UNL     1      19.823   8.973  54.363  1.00  0.00     0.277 HD
ATOM     22  H22 UNL     1      20.055   8.260  55.698  1.00  0.00     0.277 HD
ATOM     23  H21 UNL     1      21.269   8.084  54.515  1.00  0.00     0.277 HD
ENDBRANCH  15  20
ENDBRANCH   1  15
TORSDOF 3
ENDMDL
MODEL 3
REMARK VINA RESULT: -4.860393127      1.233      4.436
REMARK  3 active torsions:
REMARK  status: ('A' for Active; 'I' for Inactive)
REMARK    1  A    between atoms: N1_1  and  C1_5 
REMARK    2  A    between atoms: C1_5  and  N2_6 
REMARK    3  A    between atoms: C1_5  and  C2_10 
ROOT
HETATM    1  C2  UNL     1      19.561   8.155  52.574  1.00  0.00     0.114 A 
HETATM    2  C3  UNL     1      18.418   8.910  52.691  1.00  0.00     0.145 A 
HETATM    3  N3  UNL     1      17.440   8.413  51.910  1.00  0.00    -0.186 N 
HETATM    4  N4  UNL     1      17.956   7.345  51.296  1.00  0.00    -0.253 N 
ATOM      5  H4  UNL     1      17.448   6.757  50.635  1.00  0.00     0.191 HD
HETATM    6  C4  UNL     1      19.226   7.151  51.664  1.00  0.00     0.274 A 
HETATM    7  O1  UNL     1      20.004   6.230  51.270  1.00  0.00    -0.266 OA
HETATM    8  C5  UNL     1      16.154   9.027  51.860  1.00  0.00     0.344 C 
HETATM    9  O2  UNL     1      15.234   8.566  51.130  1.00  0.00    -0.245 OA
HETATM   10  N5  UNL     1      15.891  10.183  52.645  1.00  0.00    -0.325 N 
ATOM     11  H5  UNL     1      15.125  10.815  52.416  1.00  0.00     0.165 HD
HETATM   12  C6  UNL     1      16.756  10.428  53.782  1.00  0.00     0.249 C 
HETATM   13  N6  UNL     1      18.130  10.078  53.475  1.00  0.00    -0.358 N 
ATOM     14  H6  UNL     1      18.892  10.662  53.817  1.00  0.00     0.162 HD
ENDROOT
BRANCH   1  15
HETATM   15  C1  UNL     1      20.880   8.331  53.248  1.00  0.00     0.420 C 
BRANCH  15  16
HETATM   16  N1  UNL     1      21.981   8.211  52.284  1.00  0.00    -0.046 N 
ATOM     17  H13 UNL     1      22.515   9.074  52.173  1.00  0.00     0.277 HD
ATOM     18  H12 UNL     1      22.748   7.629  52.621  1.00  0.00     0.277 HD
ATOM     19  H11 UNL     1      21.573   7.876  51.412  1.00  0.00     0.277 HD
ENDBRANCH  15  16
BRANCH  15  20
HETATM   20  N2  UNL     1      21.063   7.275  54.226  1.00  0.00    -0.046 N 
ATOM     21  H23 UNL     1      21.685   7.538  54.990  1.00  0.00     0.277 HD
ATOM     22  H22 UNL     1      20.231   7.102  54.791  1.00  0.00     0.277 HD
ATOM     23  H21 UNL     1      21.380   6.452  53.714  1.00  0.00     0.277 HD
ENDBRANCH  15  20
ENDBRANCH   1  15
TORSDOF 3
ENDMDL
MODEL 4
REMARK VINA RESULT: -4.419048779      1.994      3.070
REMARK  3 active torsions:
REMARK  status: ('A' for Active; 'I' for Inactive)
REMARK    1  A    between atoms: N1_1  and  C1_5 
REMARK    2  A    between atoms: C1_5  and  N2_6 
REMARK    3  A    between atoms: C1_5  and  C2_10 
ROOT
HETATM    1  C2  UNL     1      16.328   8.895  54.062  1.00  0.00     0.114 A 
HETATM    2  C3  UNL     1      16.942   8.310  52.980  1.00  0.00     0.145 A 
HETATM    3  N3  UNL     1      16.239   8.537  51.854  1.00  0.00    -0.186 N 
HETATM    4  N4  UNL     1      15.179   9.264  52.215  1.00  0.00    -0.253 N 
ATOM      5  H4  UNL     1      14.457   9.593  51.573  1.00  0.00     0.191 HD
HETATM    6  C4  UNL     1      15.190   9.504  53.530  1.00  0.00     0.274 A 
HETATM    7  O1  UNL     1      14.333  10.162  54.194  1.00  0.00    -0.266 OA
HETATM    8  C5  UNL     1      16.677   8.029  50.597  1.00  0.00     0.344 C 
HETATM    9  O2  UNL     1      16.021   8.238  49.539  1.00  0.00    -0.245 OA
HETATM   10  N5  UNL     1      17.875   7.268  50.520  1.00  0.00    -0.325 N 
ATOM     11  H5  UNL     1      18.057   6.643  49.735  1.00  0.00     0.165 HD
HETATM   12  C6  UNL     1      18.828   7.413  51.603  1.00  0.00     0.249 C 
HETATM   13  N6  UNL     1      18.149   7.539  52.879  1.00  0.00    -0.358 N 
ATOM     14  H6  UNL     1      18.531   7.080  53.705  1.00  0.00     0.162 HD
ENDROOT
BRANCH   1  15
HETATM   15  C1  UNL     1      16.746   8.904  55.493  1.00  0.00     0.420 C 
BRANCH  15  16
HETATM   16  N1  UNL     1      15.694   8.343  56.350  1.00  0.00    -0.046 N 
ATOM     17  H13 UNL     1      15.730   7.325  56.417  1.00  0.00     0.277 HD
ATOM     18  H12 UNL     1      15.834   8.542  57.341  1.00  0.00     0.277 HD
ATOM     19  H11 UNL     1      14.805   8.692  55.991  1.00  0.00     0.277 HD
ENDBRANCH  15  16
BRANCH  15  20
HETATM   20  N2  UNL     1      16.950  10.274  55.924  1.00  0.00    -0.046 N 
ATOM     21  H23 UNL     1      17.194  10.354  56.911  1.00  0.00     0.277 HD
ATOM     22  H22 UNL     1      17.802  10.691  55.547  1.00  0.00     0.277 HD
ATOM     23  H21 UNL     1      16.106  10.789  55.675  1.00  0.00     0.277 HD
ENDBRANCH  15  20
ENDBRANCH   1  15
TORSDOF 3
ENDMDL
MODEL 5
REMARK VINA RESULT: -4.396684457      2.319      3.761
REMARK  3 active torsions:
REMARK  status: ('A' for Active; 'I' for Inactive)
REMARK    1  A    between atoms: N1_1  and  C1_5 
REMARK    2  A    between atoms: C1_5  and  N2_6 
REMARK    3  A    between atoms: C1_5  and  C2_10 
ROOT
HETATM    1  C2  UNL     1      17.305   7.826  54.620  1.00  0.00     0.114 A 
HETATM    2  C3  UNL     1      17.507   7.659  53.270  1.00  0.00     0.145 A 
HETATM    3  N3  UNL     1      16.590   8.347  52.564  1.00  0.00    -0.186 N 
HETATM    4  N4  UNL     1      15.805   8.952  53.459  1.00  0.00    -0.253 N 
ATOM      5  H4  UNL     1      15.013   9.550  53.222  1.00  0.00     0.191 HD
HETATM    6  C4  UNL     1      16.196   8.669  54.705  1.00  0.00     0.274 A 
HETATM    7  O1  UNL     1      15.669   9.080  55.784  1.00  0.00    -0.266 OA
HETATM    8  C5  UNL     1      16.593   8.330  51.139  1.00  0.00     0.344 C 
HETATM    9  O2  UNL     1      15.736   8.973  50.473  1.00  0.00    -0.245 OA
HETATM   10  N5  UNL     1      17.577   7.575  50.443  1.00  0.00    -0.325 N 
ATOM     11  H5  UNL     1      17.437   7.289  49.474  1.00  0.00     0.165 HD
HETATM   12  C6  UNL     1      18.785   7.230  51.163  1.00  0.00     0.249 C 
HETATM   13  N6  UNL     1      18.491   6.904  52.546  1.00  0.00    -0.358 N 
ATOM     14  H6  UNL     1      18.984   6.139  53.005  1.00  0.00     0.162 HD
ENDROOT
BRANCH   1  15
HETATM   15  C1  UNL     1      18.072   7.257  55.766  1.00  0.00     0.420 C 
BRANCH  15  16
HETATM   16  N1  UNL     1      17.180   6.555  56.697  1.00  0.00    -0.046 N 
ATOM     17  H13 UNL     1      17.370   5.555  56.758  1.00  0.00     0.277 HD
ATOM     18  H12 UNL     1      17.362   6.781  57.675  1.00  0.00     0.277 HD
ATOM     19  H11 UNL     1      16.226   6.767  56.405  1.00  0.00     0.277 HD
ENDBRANCH  15  16
BRANCH  15  20
HETATM   20  N2  UNL     1      18.689   8.338  56.512  1.00  0.00    -0.046 N 
ATOM     21  H23 UNL     1      19.648   8.135  56.795  1.00  0.00     0.277 HD
ATOM     22  H22 UNL     1      18.895   9.157  55.938  1.00  0.00     0.277 HD
ATOM     23  H21 UNL     1      18.072   8.542  57.298  1.00  0.00     0.277 HD
ENDBRANCH  15  20
ENDBRANCH   1  15
TORSDOF 3
ENDMDL
