MODEL 1
REMARK VINA RESULT: -5.035572041      0.000      0.000
REMARK  3 active torsions:
REMARK  status: ('A' for Active; 'I' for Inactive)
REMARK    1  A    between atoms: N1_1  and  C1_4 
REMARK    2  A    between atoms: C2_7  and  S1_8 
REMARK    3  A    between atoms: S1_8  and  N3_9 
ROOT
HETATM    1  C1  UNL     1      17.168   7.441  55.120  1.00  0.00     0.679 A 
HETATM    2  N2  UNL     1      16.669   7.925  53.970  1.00  0.00    -0.177 N 
ATOM      3  H2  UNL     1      15.699   8.239  53.953  1.00  0.00     0.185 HD
HETATM    4  C2  UNL     1      17.391   8.015  52.840  1.00  0.00     0.193 A 
HETATM    5  C3  UNL     1      18.707   7.574  52.917  1.00  0.00     0.155 A 
HETATM    6  N4  UNL     1      19.494   7.657  51.743  1.00  0.00    -0.093 NA
HETATM    7  C4  UNL     1      19.204   7.080  54.109  1.00  0.00     0.286 A 
HETATM    8  O3  UNL     1      20.410   6.684  54.155  1.00  0.00    -0.265 OA
HETATM    9  N5  UNL     1      18.443   7.015  55.192  1.00  0.00    -0.155 N 
ATOM     10  H5  UNL     1      18.819   6.649  56.067  1.00  0.00     0.187 HD
ENDROOT
BRANCH   4  11
HETATM   11  S1  UNL     1      16.776   8.636  51.338  1.00  0.00     0.275 S 
HETATM   12  O1  UNL     1      17.217  10.039  51.061  1.00  0.00    -0.199 OA
HETATM   13  O2  UNL     1      15.260   8.671  51.406  1.00  0.00    -0.199 OA
BRANCH  11  14
HETATM   14  N3  UNL     1      17.180   7.625  49.999  1.00  0.00    -0.323 N 
ATOM     15  H32 UNL     1      18.125   7.552  49.623  1.00  0.00     0.169 HD
ATOM     16  H31 UNL     1      16.370   7.120  49.637  1.00  0.00     0.169 HD
ENDBRANCH  11  14
ENDBRANCH   4  11
BRANCH   1  17
HETATM   17  N1  UNL     1      16.473   7.355  56.206  1.00  0.00    -0.234 N 
ATOM     18  H12 UNL     1      16.328   6.416  56.576  1.00  0.00     0.174 HD
ATOM     19  H11 UNL     1      16.084   8.169  56.682  1.00  0.00     0.174 HD
ENDBRANCH   1  17
TORSDOF 3
ENDMDL
MODEL 2
REMARK VINA RESULT: -4.989856508      2.200      4.026
REMARK  3 active torsions:
REMARK  status: ('A' for Active; 'I' for Inactive)
REMARK    1  A    between atoms: N1_1  and  C1_4 
REMARK    2  A    between atoms: C2_7  and  S1_8 
REMARK    3  A    between atoms: S1_8  and  N3_9 
ROOT
HETATM    1  C1  UNL     1      15.790   9.397  52.868  1.00  0.00     0.679 A 
HETATM    2  N2  UNL     1      16.865   8.917  53.516  1.00  0.00    -0.177 N 
ATOM      3  H2  UNL     1      16.999   9.173  54.494  1.00  0.00     0.185 HD
HETATM    4  C2  UNL     1      17.772   8.114  52.935  1.00  0.00     0.193 A 
HETATM    5  C3  UNL     1      17.543   7.795  51.601  1.00  0.00     0.155 A 
HETATM    6  N4  UNL     1      18.480   6.950  50.960  1.00  0.00    -0.093 NA
HETATM    7  C4  UNL     1      16.431   8.298  50.950  1.00  0.00     0.286 A 
HETATM    8  O3  UNL     1      16.242   7.992  49.731  1.00  0.00    -0.265 OA
HETATM    9  N5  UNL     1      15.570   9.086  51.576  1.00  0.00    -0.155 N 
ATOM     10  H5  UNL     1      14.753   9.451  51.087  1.00  0.00     0.187 HD
ENDROOT
BRANCH   4  11
HETATM   11  S1  UNL     1      19.171   7.477  53.745  1.00  0.00     0.275 S 
HETATM   12  O1  UNL     1      19.056   6.016  54.048  1.00  0.00    -0.199 OA
HETATM   13  O2  UNL     1      19.324   8.178  55.082  1.00  0.00    -0.199 OA
BRANCH  11  14
HETATM   14  N3  UNL     1      20.627   7.777  52.869  1.00  0.00    -0.323 N 
ATOM     15  H32 UNL     1      20.648   8.274  51.979  1.00  0.00     0.169 HD
ATOM     16  H31 UNL     1      21.448   7.400  53.343  1.00  0.00     0.169 HD
ENDBRANCH  11  14
ENDBRANCH   4  11
BRANCH   1  17
HETATM   17  N1  UNL     1      14.918  10.169  53.427  1.00  0.00    -0.234 N 
ATOM     18  H12 UNL     1      14.009   9.753  53.627  1.00  0.00     0.174 HD
ATOM     19  H11 UNL     1      15.109  11.142  53.664  1.00  0.00     0.174 HD
ENDBRANCH   1  17
TORSDOF 3
ENDMDL
MODEL 3
REMARK VINA RESULT: -4.660074903      2.312      4.548
REMARK  3 active torsions:
REMARK  status: ('A' for Active; 'I' for Inactive)
REMARK    1  A    between atoms: N1_1  and  C1_4 
REMARK    2  A    between atoms: C2_7  and  S1_8 
REMARK    3  A    between atoms: S1_8  and  N3_9 
ROOT
HETATM    1  C1  UNL     1      18.387   7.324  51.443  1.00  0.00     0.679 A 
HETATM    2  N2  UNL     1      18.108   7.319  52.759  1.00  0.00    -0.177 N 
ATOM      3  H2  UNL     1      18.781   6.896  53.398  1.00  0.00     0.185 HD
HETATM    4  C2  UNL     1      16.983   7.846  53.270  1.00  0.00     0.193 A 
HETATM    5  C3  UNL     1      16.100   8.410  52.356  1.00  0.00     0.155 A 
HETATM    6  N4  UNL     1      14.905   8.975  52.864  1.00  0.00    -0.093 NA
HETATM    7  C4  UNL     1      16.403   8.407  51.007  1.00  0.00     0.286 A 
HETATM    8  O3  UNL     1      15.581   8.928  50.191  1.00  0.00    -0.265 OA
HETATM    9  N5  UNL     1      17.530   7.871  50.561  1.00  0.00    -0.155 N 
ATOM     10  H5  UNL     1      17.745   7.874  49.564  1.00  0.00     0.187 HD
ENDROOT
BRANCH   4  11
HETATM   11  S1  UNL     1      16.593   7.856  54.963  1.00  0.00     0.275 S 
HETATM   12  O1  UNL     1      16.839   9.182  55.612  1.00  0.00    -0.199 OA
HETATM   13  O2  UNL     1      17.489   6.860  55.677  1.00  0.00    -0.199 OA
BRANCH  11  14
HETATM   14  N3  UNL     1      14.970   7.354  55.264  1.00  0.00    -0.323 N 
ATOM     15  H32 UNL     1      14.433   6.787  54.607  1.00  0.00     0.169 HD
ATOM     16  H31 UNL     1      14.622   7.689  56.162  1.00  0.00     0.169 HD
ENDBRANCH  11  14
ENDBRANCH   4  11
BRANCH   1  17
HETATM   17  N1  UNL     1      19.469   6.817  50.953  1.00  0.00    -0.234 N 
ATOM     18  H12 UNL     1      19.890   6.053  51.481  1.00  0.00     0.174 HD
ATOM     19  H11 UNL     1      19.893   7.148  50.087  1.00  0.00     0.174 HD
ENDBRANCH   1  17
TORSDOF 3
ENDMDL
MODEL 4
REMARK VINA RESULT: -4.597369829      1.610      1.892
REMARK  3 active torsions:
REMARK  status: ('A' for Active; 'I' for Inactive)
REMARK    1  A    between atoms: N1_1  and  C1_4 
REMARK    2  A    between atoms: C2_7  and  S1_8 
REMARK    3  A    between atoms: S1_8  and  N3_9 
ROOT
HETATM    1  C1  UNL     1      14.961   8.245  54.637  1.00  0.00     0.679 A 
HETATM    2  N2  UNL     1      15.256   8.547  53.360  1.00  0.00    -0.177 N 
ATOM      3  H2  UNL     1      14.518   8.922  52.766  1.00  0.00     0.185 HD
HETATM    4  C2  UNL     1      16.480   8.376  52.833  1.00  0.00     0.193 A 
HETATM    5  C3  UNL     1      17.449   7.861  53.686  1.00  0.00     0.155 A 
HETATM    6  N4  UNL     1      18.749   7.670  53.159  1.00  0.00    -0.093 NA
HETATM    7  C4  UNL     1      17.128   7.557  54.996  1.00  0.00     0.286 A 
HETATM    8  O3  UNL     1      18.031   7.088  55.757  1.00  0.00    -0.265 OA
HETATM    9  N5  UNL     1      15.902   7.747  55.461  1.00  0.00    -0.155 N 
ATOM     10  H5  UNL     1      15.675   7.520  56.429  1.00  0.00     0.187 HD
ENDROOT
BRANCH   4  11
HETATM   11  S1  UNL     1      16.893   8.756  51.188  1.00  0.00     0.275 S 
HETATM   12  O1  UNL     1      17.639  10.047  51.056  1.00  0.00    -0.199 OA
HETATM   13  O2  UNL     1      15.614   8.918  50.387  1.00  0.00    -0.199 OA
BRANCH  11  14
HETATM   14  N3  UNL     1      17.786   7.489  50.429  1.00  0.00    -0.323 N 
ATOM     15  H32 UNL     1      17.501   7.058  49.549  1.00  0.00     0.169 HD
ATOM     16  H31 UNL     1      18.617   7.230  50.960  1.00  0.00     0.169 HD
ENDBRANCH  11  14
ENDBRANCH   4  11
BRANCH   1  17
HETATM   17  N1  UNL     1      13.785   8.409  55.144  1.00  0.00    -0.234 N 
ATOM     18  H12 UNL     1      13.504   9.372  55.331  1.00  0.00     0.174 HD
ATOM     19  H11 UNL     1      13.157   7.634  55.352  1.00  0.00     0.174 HD
ENDBRANCH   1  17
TORSDOF 3
ENDMDL
MODEL 5
REMARK VINA RESULT: -4.546060184      1.820      3.804
REMARK  3 active torsions:
REMARK  status: ('A' for Active; 'I' for Inactive)
REMARK    1  A    between atoms: N1_1  and  C1_4 
REMARK    2  A    between atoms: C2_7  and  S1_8 
REMARK    3  A    between atoms: S1_8  and  N3_9 
ROOT
HETATM    1  C1  UNL     1      15.727   8.545  53.931  1.00  0.00     0.679 A 
HETATM    2  N2  UNL     1      16.911   7.912  54.014  1.00  0.00    -0.177 N 
ATOM      3  H2  UNL     1      17.247   7.626  54.934  1.00  0.00     0.185 HD
HETATM    4  C2  UNL     1      17.670   7.638  52.940  1.00  0.00     0.193 A 
HETATM    5  C3  UNL     1      17.166   8.048  51.711  1.00  0.00     0.155 A 
HETATM    6  N4  UNL     1      17.943   7.774  50.561  1.00  0.00    -0.093 NA
HETATM    7  C4  UNL     1      15.947   8.698  51.645  1.00  0.00     0.286 A 
HETATM    8  O3  UNL     1      15.506   9.062  50.511  1.00  0.00    -0.265 OA
HETATM    9  N5  UNL     1      15.241   8.940  52.740  1.00  0.00    -0.155 N 
ATOM     10  H5  UNL     1      14.343   9.420  52.680  1.00  0.00     0.187 HD
ENDROOT
BRANCH   4  11
HETATM   11  S1  UNL     1      19.203   6.822  53.014  1.00  0.00     0.275 S 
HETATM   12  O1  UNL     1      19.302   5.678  52.055  1.00  0.00    -0.199 OA
HETATM   13  O2  UNL     1      19.378   6.233  54.402  1.00  0.00    -0.199 OA
BRANCH  11  14
HETATM   14  N3  UNL     1      20.530   7.900  52.772  1.00  0.00    -0.323 N 
ATOM     15  H32 UNL     1      20.653   8.758  53.308  1.00  0.00     0.169 HD
ATOM     16  H31 UNL     1      21.161   7.576  52.039  1.00  0.00     0.169 HD
ENDBRANCH  11  14
ENDBRANCH   4  11
BRANCH   1  17
HETATM   17  N1  UNL     1      14.997   8.808  54.964  1.00  0.00    -0.234 N 
ATOM     18  H12 UNL     1      15.418   8.621  55.874  1.00  0.00     0.174 HD
ATOM     19  H11 UNL     1      14.051   9.181  54.894  1.00  0.00     0.174 HD
ENDBRANCH   1  17
TORSDOF 3
ENDMDL
