MODEL 1
REMARK VINA RESULT: -5.690955584      0.000      0.000
REMARK  9 active torsions:
REMARK  status: ('A' for Active; 'I' for Inactive)
REMARK       I    between atoms: N1_1  and  C1_4 
REMARK       I    between atoms: C1_4  and  N3_6 
REMARK    1  A    between atoms: N3_6  and  C2_8 
REMARK    2  A    between atoms: C6_18  and  N7_19 
REMARK    3  A    between atoms: N7_19  and  C7_21 
REMARK    4  A    between atoms: C7_21  and  C8_22 
REMARK    5  A    between atoms: C8_22  and  O1_23 
REMARK    6  A    between atoms: C9_25  and  N8_26 
REMARK    7  A    between atoms: N8_26  and  O2_28 
REMARK    8  A    between atoms: O2_28  and  C10_29 
REMARK    9  A    between atoms: N10_34  and  N11_35 
ROOT
HETATM    1  C2  UNL     1       0.524  14.619   7.639  1.00  0.00     0.139 A 
HETATM    2  N4  UNL     1       0.551  14.588   8.984  1.00  0.00    -0.337 N 
ATOM      3  H4  UNL     1       0.370  15.444   9.507  1.00  0.00     0.168 HD
HETATM    4  C3  UNL     1       0.813  13.446   9.654  1.00  0.00     0.183 A 
HETATM    5  N5  UNL     1       1.052  12.309   8.997  1.00  0.00    -0.335 N 
ATOM      6  H5  UNL     1       1.247  11.461   9.528  1.00  0.00     0.168 HD
HETATM    7  C4  UNL     1       1.043  12.255   7.661  1.00  0.00     0.162 A 
HETATM    8  C5  UNL     1       0.773  13.435   6.976  1.00  0.00     0.125 A 
HETATM    9  N6  UNL     1       0.714  13.611   5.623  1.00  0.00    -0.335 N 
ATOM     10  H6  UNL     1       0.125  14.374   5.291  1.00  0.00     0.168 HD
HETATM   11  C6  UNL     1       1.346  12.890   4.679  1.00  0.00     0.136 C 
HETATM   12  C9  UNL     1       1.535  11.504   4.782  1.00  0.00     0.168 C 
HETATM   13  C11 UNL     1       1.446  10.695   5.895  1.00  0.00     0.300 C 
HETATM   14  O4  UNL     1       1.502   9.455   5.670  1.00  0.00    -0.263 OA
HETATM   15  N10 UNL     1       1.310  11.008   7.181  1.00  0.00    -0.206 N 
ENDROOT
BRANCH   1  16
HETATM   16  N3  UNL     1       0.276  15.697   6.974  1.00  0.00    -0.315 N 
HETATM   17  C1  UNL     1       0.857  16.925   7.450  1.00  0.00     0.187 C 
HETATM   18  N1  UNL     1       0.156  17.993   7.618  1.00  0.00    -0.373 N 
HETATM   19  N2  UNL     1       2.233  17.001   7.754  1.00  0.00    -0.064 NA
ATOM     20  H12 UNL     1       0.567  18.862   7.956  1.00  0.00     0.158 HD
ATOM     21  H11 UNL     1      -0.839  17.938   7.399  1.00  0.00     0.158 HD
ATOM     22  H3  UNL     1      -0.310  15.679   6.140  1.00  0.00     0.170 HD
ENDBRANCH   1  16
BRANCH  15  23
HETATM   23  N11 UNL     1       1.440  10.024   8.161  1.00  0.00    -0.334 N 
ATOM     24 2H11 UNL     1       2.077  10.162   8.945  1.00  0.00     0.177 HD
ATOM     25 1H11 UNL     1       0.859   9.199   8.014  1.00  0.00     0.177 HD
ENDBRANCH  15  23
BRANCH  11  26
HETATM   26  N7  UNL     1       1.862  13.495   3.530  1.00  0.00    -0.372 N 
ATOM     27  H7  UNL     1       2.866  13.445   3.363  1.00  0.00     0.161 HD
BRANCH  26  28
HETATM   28  C7  UNL     1       1.039  14.183   2.575  1.00  0.00     0.147 C 
BRANCH  28  29
HETATM   29  C8  UNL     1       0.188  13.279   1.740  1.00  0.00     0.183 C 
BRANCH  29  30
HETATM   30  O1  UNL     1       0.927  12.197   1.238  1.00  0.00    -0.399 OA
ATOM     31  H1  UNL     1       1.097  12.295   0.308  1.00  0.00     0.209 HD
ENDBRANCH  29  30
ENDBRANCH  28  29
ENDBRANCH  26  28
ENDBRANCH  11  26
BRANCH  12  32
HETATM   32  N8  UNL     1       1.832  10.951   3.651  1.00  0.00    -0.247 N 
ATOM     33  H8  UNL     1       1.117  10.468   3.107  1.00  0.00     0.195 HD
BRANCH  32  34
HETATM   34  O2  UNL     1       3.127  11.025   3.193  1.00  0.00    -0.183 OA
BRANCH  34  35
HETATM   35  C10 UNL     1       3.539  10.133   2.202  1.00  0.00     0.394 C 
HETATM   36  N9  UNL     1       2.760   9.881   1.050  1.00  0.00    -0.031 NA
HETATM   37  O3  UNL     1       4.649   9.544   2.363  1.00  0.00    -0.240 OA
ENDBRANCH  34  35
ENDBRANCH  32  34
ENDBRANCH  12  32
TORSDOF 9
ENDMDL
MODEL 2
REMARK VINA RESULT: -5.557565638      6.182      8.934
REMARK  9 active torsions:
REMARK  status: ('A' for Active; 'I' for Inactive)
REMARK       I    between atoms: N1_1  and  C1_4 
REMARK       I    between atoms: C1_4  and  N3_6 
REMARK    1  A    between atoms: N3_6  and  C2_8 
REMARK    2  A    between atoms: C6_18  and  N7_19 
REMARK    3  A    between atoms: N7_19  and  C7_21 
REMARK    4  A    between atoms: C7_21  and  C8_22 
REMARK    5  A    between atoms: C8_22  and  O1_23 
REMARK    6  A    between atoms: C9_25  and  N8_26 
REMARK    7  A    between atoms: N8_26  and  O2_28 
REMARK    8  A    between atoms: O2_28  and  C10_29 
REMARK    9  A    between atoms: N10_34  and  N11_35 
ROOT
HETATM    1  C2  UNL     1       0.167  15.410   9.415  1.00  0.00     0.139 A 
HETATM    2  N4  UNL     1       1.227  14.702   9.843  1.00  0.00    -0.337 N 
ATOM      3  H4  UNL     1       1.988  14.501   9.195  1.00  0.00     0.168 HD
HETATM    4  C3  UNL     1       1.303  14.252  11.113  1.00  0.00     0.183 A 
HETATM    5  N5  UNL     1       0.323  14.499  11.984  1.00  0.00    -0.335 N 
ATOM      6  H5  UNL     1       0.406  14.148  12.938  1.00  0.00     0.168 HD
HETATM    7  C4  UNL     1      -0.765  15.197  11.638  1.00  0.00     0.162 A 
HETATM    8  C5  UNL     1      -0.837  15.658  10.328  1.00  0.00     0.125 A 
HETATM    9  N6  UNL     1      -1.846  16.384   9.762  1.00  0.00    -0.335 N 
ATOM     10  H6  UNL     1      -1.589  16.979   8.974  1.00  0.00     0.168 HD
HETATM   11  C6  UNL     1      -3.140  16.402  10.126  1.00  0.00     0.136 C 
HETATM   12  C9  UNL     1      -3.554  16.329  11.465  1.00  0.00     0.168 C 
HETATM   13  C11 UNL     1      -2.844  15.917  12.572  1.00  0.00     0.300 C 
HETATM   14  O4  UNL     1      -3.410  16.110  13.683  1.00  0.00    -0.263 OA
HETATM   15  N10 UNL     1      -1.648  15.342  12.666  1.00  0.00    -0.206 N 
ENDROOT
BRANCH   1  16
HETATM   16  N3  UNL     1       0.069  15.853   8.206  1.00  0.00    -0.315 N 
HETATM   17  C1  UNL     1       1.018  16.848   7.780  1.00  0.00     0.187 C 
HETATM   18  N1  UNL     1       0.650  17.942   7.207  1.00  0.00    -0.373 N 
HETATM   19  N2  UNL     1       2.401  16.655   7.979  1.00  0.00    -0.064 NA
ATOM     20  H12 UNL     1       1.323  18.647   6.905  1.00  0.00     0.158 HD
ATOM     21  H11 UNL     1      -0.350  18.082   7.063  1.00  0.00     0.158 HD
ATOM     22  H3  UNL     1      -0.656  15.510   7.575  1.00  0.00     0.170 HD
ENDBRANCH   1  16
BRANCH  15  23
HETATM   23  N11 UNL     1      -1.208  14.830  13.886  1.00  0.00    -0.334 N 
ATOM     24 2H11 UNL     1      -0.210  14.723  14.069  1.00  0.00     0.177 HD
ATOM     25 1H11 UNL     1      -1.954  14.587  14.538  1.00  0.00     0.177 HD
ENDBRANCH  15  23
BRANCH  11  26
HETATM   26  N7  UNL     1      -4.160  16.488   9.174  1.00  0.00    -0.372 N 
ATOM     27  H7  UNL     1      -4.948  17.108   9.360  1.00  0.00     0.161 HD
BRANCH  26  28
HETATM   28  C7  UNL     1      -4.146  15.743   7.946  1.00  0.00     0.147 C 
BRANCH  28  29
HETATM   29  C8  UNL     1      -3.798  16.559   6.741  1.00  0.00     0.183 C 
BRANCH  29  30
HETATM   30  O1  UNL     1      -2.434  16.891   6.724  1.00  0.00    -0.399 OA
ATOM     31  H1  UNL     1      -2.106  16.965   5.835  1.00  0.00     0.209 HD
ENDBRANCH  29  30
ENDBRANCH  28  29
ENDBRANCH  26  28
ENDBRANCH  11  26
BRANCH  12  32
HETATM   32  N8  UNL     1      -4.778  16.711  11.635  1.00  0.00    -0.247 N 
ATOM     33  H8  UNL     1      -5.518  16.027  11.792  1.00  0.00     0.195 HD
BRANCH  32  34
HETATM   34  O2  UNL     1      -5.066  18.056  11.600  1.00  0.00    -0.183 OA
BRANCH  34  35
HETATM   35  C10 UNL     1      -5.648  18.646  12.723  1.00  0.00     0.394 C 
HETATM   36  N9  UNL     1      -6.382  17.893  13.668  1.00  0.00    -0.031 NA
HETATM   37  O3  UNL     1      -5.501  19.894  12.878  1.00  0.00    -0.240 OA
ENDBRANCH  34  35
ENDBRANCH  32  34
ENDBRANCH  12  32
TORSDOF 9
ENDMDL
MODEL 3
REMARK VINA RESULT: -5.490215674      2.170      4.155
REMARK  9 active torsions:
REMARK  status: ('A' for Active; 'I' for Inactive)
REMARK       I    between atoms: N1_1  and  C1_4 
REMARK       I    between atoms: C1_4  and  N3_6 
REMARK    1  A    between atoms: N3_6  and  C2_8 
REMARK    2  A    between atoms: C6_18  and  N7_19 
REMARK    3  A    between atoms: N7_19  and  C7_21 
REMARK    4  A    between atoms: C7_21  and  C8_22 
REMARK    5  A    between atoms: C8_22  and  O1_23 
REMARK    6  A    between atoms: C9_25  and  N8_26 
REMARK    7  A    between atoms: N8_26  and  O2_28 
REMARK    8  A    between atoms: O2_28  and  C10_29 
REMARK    9  A    between atoms: N10_34  and  N11_35 
ROOT
HETATM    1  C2  UNL     1       0.763  11.563   8.837  1.00  0.00     0.139 A 
HETATM    2  N4  UNL     1       1.287  10.471   9.421  1.00  0.00    -0.337 N 
ATOM      3  H4  UNL     1       1.088  10.287  10.405  1.00  0.00     0.168 HD
HETATM    4  C3  UNL     1       2.069   9.614   8.733  1.00  0.00     0.183 A 
HETATM    5  N5  UNL     1       2.347   9.827   7.445  1.00  0.00    -0.335 N 
ATOM      6  H5  UNL     1       2.942   9.164   6.949  1.00  0.00     0.168 HD
HETATM    7  C4  UNL     1       1.865  10.889   6.790  1.00  0.00     0.162 A 
HETATM    8  C5  UNL     1       1.058  11.769   7.504  1.00  0.00     0.125 A 
HETATM    9  N6  UNL     1       0.464  12.908   7.042  1.00  0.00    -0.335 N 
ATOM     10  H6  UNL     1      -0.386  13.202   7.522  1.00  0.00     0.168 HD
HETATM   11  C6  UNL     1       0.875  13.685   6.024  1.00  0.00     0.136 C 
HETATM   12  C9  UNL     1       1.452  13.165   4.856  1.00  0.00     0.168 C 
HETATM   13  C11 UNL     1       1.996  11.918   4.636  1.00  0.00     0.300 C 
HETATM   14  O4  UNL     1       2.295  11.659   3.438  1.00  0.00    -0.263 OA
HETATM   15  N10 UNL     1       2.261  10.930   5.486  1.00  0.00    -0.206 N 
ENDROOT
BRANCH   1  16
HETATM   16  N3  UNL     1       0.010  12.398   9.471  1.00  0.00    -0.315 N 
HETATM   17  C1  UNL     1       0.648  13.314  10.381  1.00  0.00     0.187 C 
HETATM   18  N1  UNL     1       0.234  13.474  11.591  1.00  0.00    -0.373 N 
HETATM   19  N2  UNL     1       1.763  14.076   9.973  1.00  0.00    -0.064 NA
ATOM     20  H12 UNL     1       0.686  14.122  12.235  1.00  0.00     0.158 HD
ATOM     21  H11 UNL     1      -0.572  12.923  11.887  1.00  0.00     0.158 HD
ATOM     22  H3  UNL     1      -1.000  12.409   9.332  1.00  0.00     0.170 HD
ENDBRANCH   1  16
BRANCH  15  23
HETATM   23  N11 UNL     1       2.997   9.822   5.069  1.00  0.00    -0.334 N 
ATOM     24 2H11 UNL     1       2.624   8.881   5.194  1.00  0.00     0.177 HD
ATOM     25 1H11 UNL     1       3.899  10.045   4.649  1.00  0.00     0.177 HD
ENDBRANCH  15  23
BRANCH  11  26
HETATM   26  N7  UNL     1       0.754  15.076   6.080  1.00  0.00    -0.372 N 
ATOM     27  H7  UNL     1       1.013  15.621   5.259  1.00  0.00     0.161 HD
BRANCH  26  28
HETATM   28  C7  UNL     1       0.280  15.771   7.245  1.00  0.00     0.147 C 
BRANCH  28  29
HETATM   29  C8  UNL     1       1.188  16.863   7.715  1.00  0.00     0.183 C 
BRANCH  29  30
HETATM   30  O1  UNL     1       2.494  16.391   7.920  1.00  0.00    -0.399 OA
ATOM     31  H1  UNL     1       2.554  15.456   7.758  1.00  0.00     0.209 HD
ENDBRANCH  29  30
ENDBRANCH  28  29
ENDBRANCH  26  28
ENDBRANCH  11  26
BRANCH  12  32
HETATM   32  N8  UNL     1       1.450  14.009   3.875  1.00  0.00    -0.247 N 
ATOM     33  H8  UNL     1       2.282  14.562   3.666  1.00  0.00     0.195 HD
BRANCH  32  34
HETATM   34  O2  UNL     1       0.310  14.149   3.119  1.00  0.00    -0.183 OA
BRANCH  34  35
HETATM   35  C10 UNL     1       0.384  13.916   1.745  1.00  0.00     0.394 C 
HETATM   36  N9  UNL     1      -0.335  12.869   1.124  1.00  0.00    -0.031 NA
HETATM   37  O3  UNL     1       1.123  14.678   1.055  1.00  0.00    -0.240 OA
ENDBRANCH  34  35
ENDBRANCH  32  34
ENDBRANCH  12  32
TORSDOF 9
ENDMDL
MODEL 4
REMARK VINA RESULT: -5.475085484      2.314      3.930
REMARK  9 active torsions:
REMARK  status: ('A' for Active; 'I' for Inactive)
REMARK       I    between atoms: N1_1  and  C1_4 
REMARK       I    between atoms: C1_4  and  N3_6 
REMARK    1  A    between atoms: N3_6  and  C2_8 
REMARK    2  A    between atoms: C6_18  and  N7_19 
REMARK    3  A    between atoms: N7_19  and  C7_21 
REMARK    4  A    between atoms: C7_21  and  C8_22 
REMARK    5  A    between atoms: C8_22  and  O1_23 
REMARK    6  A    between atoms: C9_25  and  N8_26 
REMARK    7  A    between atoms: N8_26  and  O2_28 
REMARK    8  A    between atoms: O2_28  and  C10_29 
REMARK    9  A    between atoms: N10_34  and  N11_35 
ROOT
HETATM    1  C2  UNL     1       1.295  12.674  10.096  1.00  0.00     0.139 A 
HETATM    2  N4  UNL     1       1.849  11.691  10.829  1.00  0.00    -0.337 N 
ATOM      3  H4  UNL     1       2.029  11.848  11.820  1.00  0.00     0.168 HD
HETATM    4  C3  UNL     1       2.172  10.503  10.278  1.00  0.00     0.183 A 
HETATM    5  N5  UNL     1       1.949  10.268   8.983  1.00  0.00    -0.335 N 
ATOM      6  H5  UNL     1       2.202   9.361   8.592  1.00  0.00     0.168 HD
HETATM    7  C4  UNL     1       1.400  11.191   8.186  1.00  0.00     0.162 A 
HETATM    8  C5  UNL     1       1.069  12.414   8.760  1.00  0.00     0.125 A 
HETATM    9  N6  UNL     1       0.505  13.493   8.140  1.00  0.00    -0.335 N 
ATOM     10  H6  UNL     1      -0.039  14.121   8.731  1.00  0.00     0.168 HD
HETATM   11  C6  UNL     1       0.587  13.819   6.838  1.00  0.00     0.136 C 
HETATM   12  C9  UNL     1       0.581  12.861   5.813  1.00  0.00     0.168 C 
HETATM   13  C11 UNL     1       0.816  11.505   5.890  1.00  0.00     0.300 C 
HETATM   14  O4  UNL     1       0.582  10.853   4.835  1.00  0.00    -0.263 OA
HETATM   15  N10 UNL     1       1.254  10.761   6.902  1.00  0.00    -0.206 N 
ENDROOT
BRANCH   1  16
HETATM   16  N3  UNL     1       0.976  13.820  10.598  1.00  0.00    -0.315 N 
HETATM   17  C1  UNL     1       1.963  14.498  11.398  1.00  0.00     0.187 C 
HETATM   18  N1  UNL     1       1.690  14.969  12.565  1.00  0.00    -0.373 N 
HETATM   19  N2  UNL     1       3.280  14.670  10.923  1.00  0.00    -0.064 NA
ATOM     20  H12 UNL     1       2.389  15.449  13.132  1.00  0.00     0.158 HD
ATOM     21  H11 UNL     1       0.738  14.845  12.909  1.00  0.00     0.158 HD
ATOM     22  H3  UNL     1       0.057  14.231  10.433  1.00  0.00     0.170 HD
ENDBRANCH   1  16
BRANCH  15  23
HETATM   23  N11 UNL     1       1.606   9.428   6.693  1.00  0.00    -0.334 N 
ATOM     24 2H11 UNL     1       0.980   8.679   6.988  1.00  0.00     0.177 HD
ATOM     25 1H11 UNL     1       2.509   9.293   6.238  1.00  0.00     0.177 HD
ENDBRANCH  15  23
BRANCH  11  26
HETATM   26  N7  UNL     1       0.692  15.151   6.430  1.00  0.00    -0.372 N 
ATOM     27  H7  UNL     1       1.072  15.349   5.505  1.00  0.00     0.161 HD
BRANCH  26  28
HETATM   28  C7  UNL     1       0.288  16.254   7.257  1.00  0.00     0.147 C 
BRANCH  28  29
HETATM   29  C8  UNL     1       1.427  17.056   7.804  1.00  0.00     0.183 C 
BRANCH  29  30
HETATM   30  O1  UNL     1       2.453  16.227   8.284  1.00  0.00    -0.399 OA
ATOM     31  H1  UNL     1       3.298  16.658   8.235  1.00  0.00     0.209 HD
ENDBRANCH  29  30
ENDBRANCH  28  29
ENDBRANCH  26  28
ENDBRANCH  11  26
BRANCH  12  32
HETATM   32  N8  UNL     1       0.312  13.367   4.653  1.00  0.00    -0.247 N 
ATOM     33  H8  UNL     1      -0.654  13.448   4.335  1.00  0.00     0.195 HD
BRANCH  32  34
HETATM   34  O2  UNL     1       1.349  13.795   3.857  1.00  0.00    -0.183 OA
BRANCH  34  35
HETATM   35  C10 UNL     1       1.291  13.539   2.486  1.00  0.00     0.394 C 
HETATM   36  N9  UNL     1       0.903  14.530   1.555  1.00  0.00    -0.031 NA
HETATM   37  O3  UNL     1       1.600  12.377   2.089  1.00  0.00    -0.240 OA
ENDBRANCH  34  35
ENDBRANCH  32  34
ENDBRANCH  12  32
TORSDOF 9
ENDMDL
MODEL 5
REMARK VINA RESULT: -5.460679381      3.249      6.017
REMARK  9 active torsions:
REMARK  status: ('A' for Active; 'I' for Inactive)
REMARK       I    between atoms: N1_1  and  C1_4 
REMARK       I    between atoms: C1_4  and  N3_6 
REMARK    1  A    between atoms: N3_6  and  C2_8 
REMARK    2  A    between atoms: C6_18  and  N7_19 
REMARK    3  A    between atoms: N7_19  and  C7_21 
REMARK    4  A    between atoms: C7_21  and  C8_22 
REMARK    5  A    between atoms: C8_22  and  O1_23 
REMARK    6  A    between atoms: C9_25  and  N8_26 
REMARK    7  A    between atoms: N8_26  and  O2_28 
REMARK    8  A    between atoms: O2_28  and  C10_29 
REMARK    9  A    between atoms: N10_34  and  N11_35 
ROOT
HETATM    1  C2  UNL     1       1.206  12.734   4.530  1.00  0.00     0.139 A 
HETATM    2  N4  UNL     1       1.281  11.601   3.807  1.00  0.00    -0.337 N 
ATOM      3  H4  UNL     1       1.413  11.661   2.798  1.00  0.00     0.168 HD
HETATM    4  C3  UNL     1       1.184  10.389   4.391  1.00  0.00     0.183 A 
HETATM    5  N5  UNL     1       1.011  10.278   5.710  1.00  0.00    -0.335 N 
ATOM      6  H5  UNL     1       0.941   9.350   6.125  1.00  0.00     0.168 HD
HETATM    7  C4  UNL     1       0.928  11.355   6.499  1.00  0.00     0.162 A 
HETATM    8  C5  UNL     1       1.029  12.602   5.892  1.00  0.00     0.125 A 
HETATM    9  N6  UNL     1       0.971  13.824   6.498  1.00  0.00    -0.335 N 
ATOM     10  H6  UNL     1       1.455  14.587   6.025  1.00  0.00     0.168 HD
HETATM   11  C6  UNL     1       0.347  14.134   7.648  1.00  0.00     0.136 C 
HETATM   12  C9  UNL     1       0.305  13.264   8.749  1.00  0.00     0.168 C 
HETATM   13  C11 UNL     1       0.555  11.909   8.795  1.00  0.00     0.300 C 
HETATM   14  O4  UNL     1       0.607  11.406   9.950  1.00  0.00    -0.263 OA
HETATM   15  N10 UNL     1       0.753  11.034   7.813  1.00  0.00    -0.206 N 
ENDROOT
BRANCH   1  16
HETATM   16  N3  UNL     1       1.296  13.906   3.997  1.00  0.00    -0.315 N 
HETATM   17  C1  UNL     1       0.569  14.143   2.777  1.00  0.00     0.187 C 
HETATM   18  N1  UNL     1       1.128  14.663   1.739  1.00  0.00    -0.373 N 
HETATM   19  N2  UNL     1      -0.797  13.808   2.676  1.00  0.00    -0.064 NA
ATOM     20  H12 UNL     1       0.614  14.831   0.875  1.00  0.00     0.158 HD
ATOM     21  H11 UNL     1       2.117  14.905   1.811  1.00  0.00     0.158 HD
ATOM     22  H3  UNL     1       1.862  14.638   4.426  1.00  0.00     0.170 HD
ENDBRANCH   1  16
BRANCH  15  23
HETATM   23  N11 UNL     1       0.794   9.668   8.087  1.00  0.00    -0.334 N 
ATOM     24 2H11 UNL     1       1.584   9.269   8.594  1.00  0.00     0.177 HD
ATOM     25 1H11 UNL     1      -0.009   9.141   7.742  1.00  0.00     0.177 HD
ENDBRANCH  15  23
BRANCH  11  26
HETATM   26  N7  UNL     1      -0.309  15.357   7.810  1.00  0.00    -0.372 N 
ATOM     27  H7  UNL     1      -1.166  15.381   8.362  1.00  0.00     0.161 HD
BRANCH  26  28
HETATM   28  C7  UNL     1       0.171  16.582   7.233  1.00  0.00     0.147 C 
BRANCH  28  29
HETATM   29  C8  UNL     1       1.323  17.192   7.966  1.00  0.00     0.183 C 
BRANCH  29  30
HETATM   30  O1  UNL     1       2.457  16.366   7.918  1.00  0.00    -0.399 OA
ATOM     31  H1  UNL     1       3.103  16.699   7.306  1.00  0.00     0.209 HD
ENDBRANCH  29  30
ENDBRANCH  28  29
ENDBRANCH  26  28
ENDBRANCH  11  26
BRANCH  12  32
HETATM   32  N8  UNL     1      -0.017  13.861   9.850  1.00  0.00    -0.247 N 
ATOM     33  H8  UNL     1      -0.866  13.600  10.352  1.00  0.00     0.195 HD
BRANCH  32  34
HETATM   34  O2  UNL     1       0.804  14.854  10.334  1.00  0.00    -0.183 OA
BRANCH  34  35
HETATM   35  C10 UNL     1       1.960  14.489  11.026  1.00  0.00     0.394 C 
HETATM   36  N9  UNL     1       1.911  13.738  12.222  1.00  0.00    -0.031 NA
HETATM   37  O3  UNL     1       3.074  14.853  10.547  1.00  0.00    -0.240 OA
ENDBRANCH  34  35
ENDBRANCH  32  34
ENDBRANCH  12  32
TORSDOF 9
ENDMDL
