MODEL 1
REMARK VINA RESULT: -7.558759109      0.000      0.000
REMARK  5 active torsions:
REMARK  status: ('A' for Active; 'I' for Inactive)
REMARK    1  A    between atoms: C2_5  and  C3_6 
REMARK    2  A    between atoms: C3_6  and  N4_9 
REMARK    3  A    between atoms: C5_11  and  C6_12 
REMARK    4  A    between atoms: C7_17  and  N7_18 
REMARK    5  A    between atoms: C9_25  and  N9_26 
ROOT
HETATM    1  C3  UNL     1      -8.954 -14.036   8.014  1.00  0.00     0.245 C 
HETATM    2  C4  UNL     1      -9.796 -13.626   6.925  1.00  0.00     0.091 C 
HETATM    3  N3  UNL     1     -10.458 -13.281   6.041  1.00  0.00    -0.195 NA
ENDROOT
BRANCH   1   4
HETATM    4  C2  UNL     1      -9.639 -14.955   8.937  1.00  0.00     0.108 A 
HETATM    5  N2  UNL     1     -10.958 -14.828   9.214  1.00  0.00    -0.282 N 
HETATM    6  N1  UNL     1     -11.328 -15.768  10.063  1.00  0.00    -0.237 N 
ATOM      7  H2  UNL     1     -11.573 -14.113   8.826  1.00  0.00     0.188 HD
HETATM    8  C1  UNL     1     -12.669 -15.974  10.610  1.00  0.00     0.200 C 
HETATM    9  N10 UNL     1     -10.267 -16.505  10.340  1.00  0.00    -0.268 N 
HETATM   10  C9  UNL     1      -9.204 -16.029   9.659  1.00  0.00     0.142 A 
ATOM     11  H10 UNL     1     -10.254 -17.308  10.969  1.00  0.00     0.190 HD
BRANCH  10  12
HETATM   12  N9  UNL     1      -7.991 -16.465   9.656  1.00  0.00    -0.383 N 
ATOM     13  H92 UNL     1      -7.445 -16.822   8.871  1.00  0.00     0.157 HD
ATOM     14  H91 UNL     1      -7.392 -16.511  10.480  1.00  0.00     0.157 HD
ENDBRANCH  10  12
ENDBRANCH   1   4
BRANCH   1  15
HETATM   15  N4  UNL     1      -8.453 -12.924   8.778  1.00  0.00    -0.375 N 
HETATM   16  C5  UNL     1      -9.278 -12.137   9.369  1.00  0.00     0.121 C 
ATOM     17  H4  UNL     1      -7.449 -12.762   8.850  1.00  0.00     0.160 HD
BRANCH  16  18
HETATM   18  C6  UNL     1      -8.801 -11.006  10.149  1.00  0.00     0.132 A 
HETATM   19  N5  UNL     1      -8.950 -11.059  11.499  1.00  0.00    -0.280 N 
HETATM   20  N6  UNL     1      -8.524 -10.045  12.213  1.00  0.00    -0.132 N 
ATOM     21  H5  UNL     1      -9.384 -11.867  11.946  1.00  0.00     0.188 HD
HETATM   22  C7  UNL     1      -7.945  -8.961  11.628  1.00  0.00     0.693 A 
ATOM     23  H6  UNL     1      -8.628 -10.070  13.227  1.00  0.00     0.205 HD
HETATM   24  N8  UNL     1      -7.784  -8.881  10.298  1.00  0.00    -0.153 N 
HETATM   25  C8  UNL     1      -8.215  -9.910   9.560  1.00  0.00     0.289 A 
ATOM     26  H8  UNL     1      -7.349  -8.066   9.866  1.00  0.00     0.187 HD
HETATM   27  O1  UNL     1      -8.098  -9.903   8.310  1.00  0.00    -0.265 OA
BRANCH  22  28
HETATM   28  N7  UNL     1      -7.565  -8.028  12.427  1.00  0.00    -0.233 N 
ATOM     29  H72 UNL     1      -7.794  -8.031  13.422  1.00  0.00     0.174 HD
ATOM     30  H71 UNL     1      -7.017  -7.277  12.007  1.00  0.00     0.174 HD
ENDBRANCH  22  28
ENDBRANCH  16  18
ENDBRANCH   1  15
TORSDOF 5
ENDMDL
MODEL 2
REMARK VINA RESULT: -7.482104850      2.257      6.572
REMARK  5 active torsions:
REMARK  status: ('A' for Active; 'I' for Inactive)
REMARK    1  A    between atoms: C2_5  and  C3_6 
REMARK    2  A    between atoms: C3_6  and  N4_9 
REMARK    3  A    between atoms: C5_11  and  C6_12 
REMARK    4  A    between atoms: C7_17  and  N7_18 
REMARK    5  A    between atoms: C9_25  and  N9_26 
ROOT
HETATM    1  C3  UNL     1      -9.266 -11.068  10.268  1.00  0.00     0.245 C 
HETATM    2  C4  UNL     1      -9.374 -10.648   8.898  1.00  0.00     0.091 C 
HETATM    3  N3  UNL     1      -9.478 -10.324   7.793  1.00  0.00    -0.195 NA
ENDROOT
BRANCH   1   4
HETATM    4  C2  UNL     1      -8.107 -10.466  10.948  1.00  0.00     0.108 A 
HETATM    5  N2  UNL     1      -6.911 -11.098  11.004  1.00  0.00    -0.282 N 
HETATM    6  N1  UNL     1      -6.045 -10.355  11.664  1.00  0.00    -0.237 N 
ATOM      7  H2  UNL     1      -6.711 -12.011  10.596  1.00  0.00     0.188 HD
HETATM    8  C1  UNL     1      -4.645 -10.681  11.943  1.00  0.00     0.200 C 
HETATM    9  N10 UNL     1      -6.661  -9.248  12.039  1.00  0.00    -0.268 N 
HETATM   10  C9  UNL     1      -7.941  -9.284  11.611  1.00  0.00     0.142 A 
ATOM     11  H10 UNL     1      -6.237  -8.486  12.567  1.00  0.00     0.190 HD
BRANCH  10  12
HETATM   12  N9  UNL     1      -8.867  -8.402  11.772  1.00  0.00    -0.383 N 
ATOM     13  H92 UNL     1      -9.879  -8.527  11.728  1.00  0.00     0.157 HD
ATOM     14  H91 UNL     1      -8.696  -7.417  11.972  1.00  0.00     0.157 HD
ENDBRANCH  10  12
ENDBRANCH   1   4
BRANCH   1  15
HETATM   15  N4  UNL     1      -9.174 -12.497  10.405  1.00  0.00    -0.375 N 
HETATM   16  C5  UNL     1      -9.707 -13.256   9.516  1.00  0.00     0.121 C 
ATOM     17  H4  UNL     1      -8.689 -12.905  11.203  1.00  0.00     0.160 HD
BRANCH  16  18
HETATM   18  C6  UNL     1      -9.631 -14.703   9.628  1.00  0.00     0.132 A 
HETATM   19  N5  UNL     1      -8.906 -15.223  10.653  1.00  0.00    -0.280 N 
HETATM   20  N6  UNL     1      -8.830 -16.527  10.764  1.00  0.00    -0.132 N 
ATOM     21  H5  UNL     1      -8.432 -14.613  11.319  1.00  0.00     0.188 HD
HETATM   22  C7  UNL     1      -9.457 -17.350   9.881  1.00  0.00     0.693 A 
ATOM     23  H6  UNL     1      -8.289 -16.932  11.528  1.00  0.00     0.205 HD
HETATM   24  N8  UNL     1     -10.181 -16.867   8.859  1.00  0.00    -0.153 N 
HETATM   25  C8  UNL     1     -10.265 -15.537   8.736  1.00  0.00     0.289 A 
ATOM     26  H8  UNL     1     -10.648 -17.490   8.201  1.00  0.00     0.187 HD
HETATM   27  O1  UNL     1     -10.924 -15.014   7.804  1.00  0.00    -0.265 OA
BRANCH  22  28
HETATM   28  N7  UNL     1      -9.313 -18.612  10.089  1.00  0.00    -0.233 N 
ATOM     29  H72 UNL     1      -9.703 -19.080  10.907  1.00  0.00     0.174 HD
ATOM     30  H71 UNL     1      -8.781 -19.121   9.383  1.00  0.00     0.174 HD
ENDBRANCH  22  28
ENDBRANCH  16  18
ENDBRANCH   1  15
TORSDOF 5
ENDMDL
MODEL 3
REMARK VINA RESULT: -7.319300414      2.038      6.551
REMARK  5 active torsions:
REMARK  status: ('A' for Active; 'I' for Inactive)
REMARK    1  A    between atoms: C2_5  and  C3_6 
REMARK    2  A    between atoms: C3_6  and  N4_9 
REMARK    3  A    between atoms: C5_11  and  C6_12 
REMARK    4  A    between atoms: C7_17  and  N7_18 
REMARK    5  A    between atoms: C9_25  and  N9_26 
ROOT
HETATM    1  C3  UNL     1      -9.304 -11.038  10.298  1.00  0.00     0.245 C 
HETATM    2  C4  UNL     1      -9.431 -10.617   8.931  1.00  0.00     0.091 C 
HETATM    3  N3  UNL     1      -9.550 -10.292   7.827  1.00  0.00    -0.195 NA
ENDROOT
BRANCH   1   4
HETATM    4  C2  UNL     1      -8.137 -10.435  10.964  1.00  0.00     0.108 A 
HETATM    5  N2  UNL     1      -6.946 -11.074  11.023  1.00  0.00    -0.282 N 
HETATM    6  N1  UNL     1      -6.071 -10.328  11.668  1.00  0.00    -0.237 N 
ATOM      7  H2  UNL     1      -6.754 -11.995  10.627  1.00  0.00     0.188 HD
HETATM    8  C1  UNL     1      -4.672 -10.659  11.944  1.00  0.00     0.200 C 
HETATM    9  N10 UNL     1      -6.677  -9.211  12.029  1.00  0.00    -0.268 N 
HETATM   10  C9  UNL     1      -7.959  -9.244  11.609  1.00  0.00     0.142 A 
ATOM     11  H10 UNL     1      -6.244  -8.444  12.545  1.00  0.00     0.190 HD
BRANCH  10  12
HETATM   12  N9  UNL     1      -8.878  -8.353  11.761  1.00  0.00    -0.383 N 
ATOM     13  H92 UNL     1      -9.748  -8.242  11.239  1.00  0.00     0.157 HD
ATOM     14  H91 UNL     1      -8.850  -7.610  12.458  1.00  0.00     0.157 HD
ENDBRANCH  10  12
ENDBRANCH   1   4
BRANCH   1  15
HETATM   15  N4  UNL     1      -9.208 -12.467  10.433  1.00  0.00    -0.375 N 
HETATM   16  C5  UNL     1      -9.737 -13.226   9.542  1.00  0.00     0.121 C 
ATOM     17  H4  UNL     1      -8.722 -12.875  11.231  1.00  0.00     0.160 HD
BRANCH  16  18
HETATM   18  C6  UNL     1      -9.656 -14.673   9.651  1.00  0.00     0.132 A 
HETATM   19  N5  UNL     1     -10.818 -15.366   9.773  1.00  0.00    -0.280 N 
HETATM   20  N6  UNL     1     -10.758 -16.672   9.871  1.00  0.00    -0.132 N 
ATOM     21  H5  UNL     1     -11.716 -14.882   9.788  1.00  0.00     0.188 HD
HETATM   22  C7  UNL     1      -9.566 -17.329   9.853  1.00  0.00     0.693 A 
ATOM     23  H6  UNL     1     -11.622 -17.207   9.963  1.00  0.00     0.205 HD
HETATM   24  N8  UNL     1      -8.401 -16.672   9.733  1.00  0.00    -0.153 N 
HETATM   25  C8  UNL     1      -8.452 -15.339   9.632  1.00  0.00     0.289 A 
ATOM     26  H8  UNL     1      -7.512 -17.170   9.720  1.00  0.00     0.187 HD
HETATM   27  O1  UNL     1      -7.403 -14.659   9.518  1.00  0.00    -0.265 OA
BRANCH  22  28
HETATM   28  N7  UNL     1      -9.629 -18.610   9.956  1.00  0.00    -0.233 N 
ATOM     29  H72 UNL     1     -10.498 -19.128   9.825  1.00  0.00     0.174 HD
ATOM     30  H71 UNL     1      -8.752 -19.082  10.179  1.00  0.00     0.174 HD
ENDBRANCH  22  28
ENDBRANCH  16  18
ENDBRANCH   1  15
TORSDOF 5
ENDMDL
MODEL 4
REMARK VINA RESULT: -7.264856421      1.460      2.749
REMARK  5 active torsions:
REMARK  status: ('A' for Active; 'I' for Inactive)
REMARK    1  A    between atoms: C2_5  and  C3_6 
REMARK    2  A    between atoms: C3_6  and  N4_9 
REMARK    3  A    between atoms: C5_11  and  C6_12 
REMARK    4  A    between atoms: C7_17  and  N7_18 
REMARK    5  A    between atoms: C9_25  and  N9_26 
ROOT
HETATM    1  C3  UNL     1      -8.337 -14.152   9.430  1.00  0.00     0.245 C 
HETATM    2  C4  UNL     1      -7.181 -14.912   9.044  1.00  0.00     0.091 C 
HETATM    3  N3  UNL     1      -6.240 -15.518   8.753  1.00  0.00    -0.195 NA
ENDROOT
BRANCH   1   4
HETATM    4  C2  UNL     1      -9.353 -14.098   8.365  1.00  0.00     0.108 A 
HETATM    5  N2  UNL     1      -9.477 -13.018   7.559  1.00  0.00    -0.282 N 
HETATM    6  N1  UNL     1     -10.453 -13.218   6.694  1.00  0.00    -0.237 N 
ATOM      7  H2  UNL     1      -8.902 -12.177   7.612  1.00  0.00     0.188 HD
HETATM    8  C1  UNL     1     -10.904 -12.292   5.654  1.00  0.00     0.200 C 
HETATM    9  N10 UNL     1     -10.965 -14.413   6.928  1.00  0.00    -0.268 N 
HETATM   10  C9  UNL     1     -10.306 -14.986   7.957  1.00  0.00     0.142 A 
ATOM     11  H10 UNL     1     -11.736 -14.837   6.411  1.00  0.00     0.190 HD
BRANCH  10  12
HETATM   12  N9  UNL     1     -10.499 -16.144   8.490  1.00  0.00    -0.383 N 
ATOM     13  H92 UNL     1      -9.893 -16.964   8.466  1.00  0.00     0.157 HD
ATOM     14  H91 UNL     1     -11.325 -16.398   9.031  1.00  0.00     0.157 HD
ENDBRANCH  10  12
ENDBRANCH   1   4
BRANCH   1  15
HETATM   15  N4  UNL     1      -8.013 -12.803   9.809  1.00  0.00    -0.375 N 
HETATM   16  C5  UNL     1      -8.902 -12.074  10.382  1.00  0.00     0.121 C 
ATOM     17  H4  UNL     1      -7.083 -12.427   9.625  1.00  0.00     0.160 HD
BRANCH  16  18
HETATM   18  C6  UNL     1      -8.604 -10.707  10.778  1.00  0.00     0.132 A 
HETATM   19  N5  UNL     1      -8.718 -10.389  12.095  1.00  0.00    -0.280 N 
HETATM   20  N6  UNL     1      -8.451  -9.160  12.464  1.00  0.00    -0.132 N 
ATOM     21  H5  UNL     1      -9.004 -11.090  12.779  1.00  0.00     0.188 HD
HETATM   22  C7  UNL     1      -8.069  -8.216  11.561  1.00  0.00     0.693 A 
ATOM     23  H6  UNL     1      -8.531  -8.905  13.449  1.00  0.00     0.205 HD
HETATM   24  N8  UNL     1      -7.948  -8.500  10.255  1.00  0.00    -0.153 N 
HETATM   25  C8  UNL     1      -8.218  -9.751   9.866  1.00  0.00     0.289 A 
ATOM     26  H8  UNL     1      -7.662  -7.788   9.583  1.00  0.00     0.187 HD
HETATM   27  O1  UNL     1      -8.126 -10.089   8.661  1.00  0.00    -0.265 OA
BRANCH  22  28
HETATM   28  N7  UNL     1      -7.833  -7.045  12.038  1.00  0.00    -0.233 N 
ATOM     29  H72 UNL     1      -6.912  -6.767  12.379  1.00  0.00     0.174 HD
ATOM     30  H71 UNL     1      -8.627  -6.404  12.057  1.00  0.00     0.174 HD
ENDBRANCH  22  28
ENDBRANCH  16  18
ENDBRANCH   1  15
TORSDOF 5
ENDMDL
MODEL 5
REMARK VINA RESULT: -7.207459974      1.530      2.589
REMARK  5 active torsions:
REMARK  status: ('A' for Active; 'I' for Inactive)
REMARK    1  A    between atoms: C2_5  and  C3_6 
REMARK    2  A    between atoms: C3_6  and  N4_9 
REMARK    3  A    between atoms: C5_11  and  C6_12 
REMARK    4  A    between atoms: C7_17  and  N7_18 
REMARK    5  A    between atoms: C9_25  and  N9_26 
ROOT
HETATM    1  C3  UNL     1     -10.049 -14.410   9.806  1.00  0.00     0.245 C 
HETATM    2  C4  UNL     1     -11.193 -14.935  10.499  1.00  0.00     0.091 C 
HETATM    3  N3  UNL     1     -12.122 -15.337  11.058  1.00  0.00    -0.195 NA
ENDROOT
BRANCH   1   4
HETATM    4  C2  UNL     1      -8.971 -15.403   9.671  1.00  0.00     0.108 A 
HETATM    5  N2  UNL     1      -9.000 -16.577  10.345  1.00  0.00    -0.282 N 
HETATM    6  N1  UNL     1      -7.926 -17.285  10.054  1.00  0.00    -0.237 N 
ATOM      7  H2  UNL     1      -9.742 -16.870  10.981  1.00  0.00     0.188 HD
HETATM    8  C1  UNL     1      -7.584 -18.610  10.573  1.00  0.00     0.200 C 
HETATM    9  N10 UNL     1      -7.199 -16.587   9.199  1.00  0.00    -0.268 N 
HETATM   10  C9  UNL     1      -7.817 -15.416   8.941  1.00  0.00     0.142 A 
ATOM     11  H10 UNL     1      -6.310 -16.887   8.798  1.00  0.00     0.190 HD
BRANCH  10  12
HETATM   12  N9  UNL     1      -7.436 -14.460   8.165  1.00  0.00    -0.383 N 
ATOM     13  H92 UNL     1      -7.848 -14.155   7.282  1.00  0.00     0.157 HD
ATOM     14  H91 UNL     1      -6.633 -13.857   8.344  1.00  0.00     0.157 HD
ENDBRANCH  10  12
ENDBRANCH   1   4
BRANCH   1  15
HETATM   15  N4  UNL     1      -9.504 -13.239  10.440  1.00  0.00    -0.375 N 
HETATM   16  C5  UNL     1      -9.462 -12.129   9.795  1.00  0.00     0.121 C 
ATOM     17  H4  UNL     1      -9.153 -13.290  11.396  1.00  0.00     0.160 HD
BRANCH  16  18
HETATM   18  C6  UNL     1      -8.917 -10.929  10.410  1.00  0.00     0.132 A 
HETATM   19  N5  UNL     1      -9.022 -10.804  11.759  1.00  0.00    -0.280 N 
HETATM   20  N6  UNL     1      -8.534  -9.727  12.324  1.00  0.00    -0.132 N 
ATOM     21  H5  UNL     1      -9.469 -11.531  12.318  1.00  0.00     0.188 HD
HETATM   22  C7  UNL     1      -7.935  -8.751  11.589  1.00  0.00     0.693 A 
ATOM     23  H6  UNL     1      -8.605  -9.618  13.336  1.00  0.00     0.205 HD
HETATM   24  N8  UNL     1      -7.817  -8.846  10.256  1.00  0.00    -0.153 N 
HETATM   25  C8  UNL     1      -8.311  -9.941   9.668  1.00  0.00     0.289 A 
ATOM     26  H8  UNL     1      -7.367  -8.110   9.711  1.00  0.00     0.187 HD
HETATM   27  O1  UNL     1      -8.236 -10.098   8.425  1.00  0.00    -0.265 OA
BRANCH  22  28
HETATM   28  N7  UNL     1      -7.494  -7.740  12.251  1.00  0.00    -0.233 N 
ATOM     29  H72 UNL     1      -6.946  -7.842  13.106  1.00  0.00     0.174 HD
ATOM     30  H71 UNL     1      -7.725  -6.822  11.870  1.00  0.00     0.174 HD
ENDBRANCH  22  28
ENDBRANCH  16  18
ENDBRANCH   1  15
TORSDOF 5
ENDMDL
