MODEL 1
REMARK VINA RESULT: -8.132476282      0.000      0.000
REMARK  4 active torsions:
REMARK  status: ('A' for Active; 'I' for Inactive)
REMARK    1  A    between atoms: C1_4  and  C2_6 
REMARK    2  A    between atoms: C3_7  and  C4_8 
REMARK    3  A    between atoms: C4_8  and  O1_9 
REMARK    4  A    between atoms: C4_8  and  N3_11 
REMARK       I    between atoms: N3_11  and  C5_13 
ROOT
HETATM    1  C2  UNL     1       6.118 -12.480   2.649  1.00  0.00     0.104 A 
HETATM    2  C3  UNL     1       7.085 -12.724   3.553  1.00  0.00     0.106 A 
HETATM    3  N6  UNL     1       7.310 -14.041   3.963  1.00  0.00    -0.304 N 
ATOM      4  H6  UNL     1       8.049 -14.219   4.644  1.00  0.00     0.171 HD
HETATM    5  C6  UNL     1       6.610 -15.069   3.508  1.00  0.00     0.327 A 
HETATM    6  O2  UNL     1       6.867 -16.254   3.926  1.00  0.00    -0.247 OA
HETATM    7  N7  UNL     1       5.639 -14.863   2.616  1.00  0.00    -0.275 N 
ATOM      8  H7  UNL     1       5.094 -15.649   2.263  1.00  0.00     0.173 HD
HETATM    9  C7  UNL     1       5.384 -13.627   2.189  1.00  0.00     0.265 A 
HETATM   10  O3  UNL     1       4.478 -13.402   1.352  1.00  0.00    -0.267 OA
ENDROOT
BRANCH   2  11
HETATM   11  C4  UNL     1       7.868 -11.739   4.205  1.00  0.00     0.170 C 
BRANCH  11  12
HETATM   12  O1  UNL     1       8.726 -11.116   3.437  1.00  0.00    -0.344 OA
ATOM     13  H1  UNL     1       8.349 -10.461   2.861  1.00  0.00     0.219 HD
ENDBRANCH  11  12
BRANCH  11  14
HETATM   14  N3  UNL     1       7.944 -11.281   5.494  1.00  0.00    -0.312 N 
HETATM   15  C5  UNL     1       7.061 -10.517   6.077  1.00  0.00     0.203 C 
HETATM   16  N4  UNL     1       7.315 -10.146   7.421  1.00  0.00    -0.066 NA
HETATM   17  N5  UNL     1       5.889 -10.062   5.426  1.00  0.00    -0.066 NA
ATOM     18  H3  UNL     1       8.757 -11.560   6.044  1.00  0.00     0.170 HD
ENDBRANCH  11  14
ENDBRANCH   2  11
BRANCH   1  19
HETATM   19  C1  UNL     1       5.857 -11.251   1.963  1.00  0.00     0.128 C 
HETATM   20  N1  UNL     1       4.562 -10.868   1.884  1.00  0.00    -0.387 N 
ATOM     21  H12 UNL     1       4.376  -9.992   1.395  1.00  0.00     0.157 HD
ATOM     22  H11 UNL     1       3.963 -11.502   2.413  1.00  0.00     0.157 HD
HETATM   23  N2  UNL     1       6.672 -10.388   1.245  1.00  0.00    -0.082 NA
ENDBRANCH   1  19
TORSDOF 4
ENDMDL
MODEL 2
REMARK VINA RESULT: -7.942521207      1.211      1.534
REMARK  4 active torsions:
REMARK  status: ('A' for Active; 'I' for Inactive)
REMARK    1  A    between atoms: C1_4  and  C2_6 
REMARK    2  A    between atoms: C3_7  and  C4_8 
REMARK    3  A    between atoms: C4_8  and  O1_9 
REMARK    4  A    between atoms: C4_8  and  N3_11 
REMARK       I    between atoms: N3_11  and  C5_13 
ROOT
HETATM    1  C2  UNL     1       5.755 -13.656   2.303  1.00  0.00     0.104 A 
HETATM    2  C3  UNL     1       6.724 -13.693   3.238  1.00  0.00     0.106 A 
HETATM    3  N6  UNL     1       7.222 -14.933   3.647  1.00  0.00    -0.304 N 
ATOM      4  H6  UNL     1       7.960 -14.952   4.352  1.00  0.00     0.171 HD
HETATM    5  C6  UNL     1       6.781 -16.084   3.163  1.00  0.00     0.327 A 
HETATM    6  O2  UNL     1       7.281 -17.189   3.582  1.00  0.00    -0.247 OA
HETATM    7  N7  UNL     1       5.817 -16.086   2.241  1.00  0.00    -0.275 N 
ATOM      8  H7  UNL     1       5.471 -16.969   1.864  1.00  0.00     0.173 HD
HETATM    9  C7  UNL     1       5.308 -14.932   1.813  1.00  0.00     0.265 A 
HETATM   10  O3  UNL     1       4.401 -14.902   0.947  1.00  0.00    -0.267 OA
ENDROOT
BRANCH   2  11
HETATM   11  C4  UNL     1       7.248 -12.568   3.921  1.00  0.00     0.170 C 
BRANCH  11  12
HETATM   12  O1  UNL     1       8.379 -12.110   3.448  1.00  0.00    -0.344 OA
ATOM     13  H1  UNL     1       9.156 -12.394   3.915  1.00  0.00     0.219 HD
ENDBRANCH  11  12
BRANCH  11  14
HETATM   14  N3  UNL     1       6.838 -11.833   5.003  1.00  0.00    -0.312 N 
HETATM   15  C5  UNL     1       6.330 -10.632   4.951  1.00  0.00     0.203 C 
HETATM   16  N4  UNL     1       5.965 -10.031   6.181  1.00  0.00    -0.066 NA
HETATM   17  N5  UNL     1       6.139  -9.931   3.735  1.00  0.00    -0.066 NA
ATOM     18  H3  UNL     1       6.937 -12.259   5.925  1.00  0.00     0.170 HD
ENDBRANCH  11  14
ENDBRANCH   2  11
BRANCH   1  19
HETATM   19  C1  UNL     1       5.250 -12.507   1.617  1.00  0.00     0.128 C 
HETATM   20  N1  UNL     1       6.152 -11.772   0.927  1.00  0.00    -0.387 N 
ATOM     21  H12 UNL     1       5.792 -10.952   0.438  1.00  0.00     0.157 HD
ATOM     22  H11 UNL     1       7.070 -12.216   0.944  1.00  0.00     0.157 HD
HETATM   23  N2  UNL     1       4.001 -11.904   1.594  1.00  0.00    -0.082 NA
ENDBRANCH   1  19
TORSDOF 4
ENDMDL
MODEL 3
REMARK VINA RESULT: -7.688585524      1.537      3.271
REMARK  4 active torsions:
REMARK  status: ('A' for Active; 'I' for Inactive)
REMARK    1  A    between atoms: C1_4  and  C2_6 
REMARK    2  A    between atoms: C3_7  and  C4_8 
REMARK    3  A    between atoms: C4_8  and  O1_9 
REMARK    4  A    between atoms: C4_8  and  N3_11 
REMARK       I    between atoms: N3_11  and  C5_13 
ROOT
HETATM    1  C2  UNL     1       6.181 -14.004   2.457  1.00  0.00     0.104 A 
HETATM    2  C3  UNL     1       6.333 -12.720   2.835  1.00  0.00     0.106 A 
HETATM    3  N6  UNL     1       5.403 -11.773   2.401  1.00  0.00    -0.304 N 
ATOM      4  H6  UNL     1       5.522 -10.804   2.697  1.00  0.00     0.171 HD
HETATM    5  C6  UNL     1       4.374 -12.074   1.623  1.00  0.00     0.327 A 
HETATM    6  O2  UNL     1       3.555 -11.156   1.260  1.00  0.00    -0.247 OA
HETATM    7  N7  UNL     1       4.196 -13.335   1.223  1.00  0.00    -0.275 N 
ATOM      8  H7  UNL     1       3.407 -13.574   0.623  1.00  0.00     0.173 HD
HETATM    9  C7  UNL     1       5.052 -14.279   1.611  1.00  0.00     0.265 A 
HETATM   10  O3  UNL     1       4.912 -15.472   1.250  1.00  0.00    -0.267 OA
ENDROOT
BRANCH   2  11
HETATM   11  C4  UNL     1       7.418 -12.210   3.590  1.00  0.00     0.170 C 
BRANCH  11  12
HETATM   12  O1  UNL     1       8.533 -12.052   2.921  1.00  0.00    -0.344 OA
ATOM     13  H1  UNL     1       9.064 -12.835   2.834  1.00  0.00     0.219 HD
ENDBRANCH  11  12
BRANCH  11  14
HETATM   14  N3  UNL     1       7.579 -11.843   4.901  1.00  0.00    -0.312 N 
HETATM   15  C5  UNL     1       6.959 -10.857   5.489  1.00  0.00     0.203 C 
HETATM   16  N4  UNL     1       7.259 -10.630   6.855  1.00  0.00    -0.066 NA
HETATM   17  N5  UNL     1       6.022 -10.031   4.823  1.00  0.00    -0.066 NA
ATOM     18  H3  UNL     1       8.237 -12.384   5.462  1.00  0.00     0.170 HD
ENDBRANCH  11  14
ENDBRANCH   2  11
BRANCH   1  19
HETATM   19  C1  UNL     1       6.899 -15.144   2.939  1.00  0.00     0.128 C 
HETATM   20  N1  UNL     1       7.882 -15.620   2.139  1.00  0.00    -0.387 N 
ATOM     21  H12 UNL     1       8.393 -16.433   2.483  1.00  0.00     0.157 HD
ATOM     22  H11 UNL     1       8.010 -15.019   1.325  1.00  0.00     0.157 HD
HETATM   23  N2  UNL     1       6.725 -15.961   4.046  1.00  0.00    -0.082 NA
ENDBRANCH   1  19
TORSDOF 4
ENDMDL
MODEL 4
REMARK VINA RESULT: -7.546736024      2.361      6.042
REMARK  4 active torsions:
REMARK  status: ('A' for Active; 'I' for Inactive)
REMARK    1  A    between atoms: C1_4  and  C2_6 
REMARK    2  A    between atoms: C3_7  and  C4_8 
REMARK    3  A    between atoms: C4_8  and  O1_9 
REMARK    4  A    between atoms: C4_8  and  N3_11 
REMARK       I    between atoms: N3_11  and  C5_13 
ROOT
HETATM    1  C2  UNL     1       6.405 -13.778   2.720  1.00  0.00     0.104 A 
HETATM    2  C3  UNL     1       5.888 -13.456   1.519  1.00  0.00     0.106 A 
HETATM    3  N6  UNL     1       5.982 -12.135   1.074  1.00  0.00    -0.304 N 
ATOM      4  H6  UNL     1       5.593 -11.901   0.160  1.00  0.00     0.171 HD
HETATM    5  C6  UNL     1       6.551 -11.173   1.784  1.00  0.00     0.327 A 
HETATM    6  O2  UNL     1       6.604  -9.979   1.317  1.00  0.00    -0.247 OA
HETATM    7  N7  UNL     1       7.068 -11.453   2.982  1.00  0.00    -0.275 N 
ATOM      8  H7  UNL     1       7.507 -10.717   3.534  1.00  0.00     0.173 HD
HETATM    9  C7  UNL     1       7.009 -12.698   3.453  1.00  0.00     0.265 A 
HETATM   10  O3  UNL     1       7.484 -12.992   4.575  1.00  0.00    -0.267 OA
ENDROOT
BRANCH   2  11
HETATM   11  C4  UNL     1       5.172 -14.337   0.671  1.00  0.00     0.170 C 
BRANCH  11  12
HETATM   12  O1  UNL     1       3.904 -14.479   0.964  1.00  0.00    -0.344 OA
ATOM     13  H1  UNL     1       3.402 -14.994   0.343  1.00  0.00     0.219 HD
ENDBRANCH  11  12
BRANCH  11  14
HETATM   14  N3  UNL     1       5.512 -15.107  -0.410  1.00  0.00    -0.312 N 
HETATM   15  C5  UNL     1       5.615 -16.408  -0.408  1.00  0.00     0.203 C 
HETATM   16  N4  UNL     1       5.980 -17.028  -1.628  1.00  0.00    -0.066 NA
HETATM   17  N5  UNL     1       5.382 -17.195   0.746  1.00  0.00    -0.066 NA
ATOM     18  H3  UNL     1       5.698 -14.624  -1.289  1.00  0.00     0.170 HD
ENDBRANCH  11  14
ENDBRANCH   2  11
BRANCH   1  19
HETATM   19  C1  UNL     1       6.583 -15.087   3.269  1.00  0.00     0.128 C 
HETATM   20  N1  UNL     1       7.682 -15.766   2.866  1.00  0.00    -0.387 N 
ATOM     21  H12 UNL     1       7.809 -16.699   3.258  1.00  0.00     0.157 HD
ATOM     22  H11 UNL     1       8.270 -15.183   2.271  1.00  0.00     0.157 HD
HETATM   23  N2  UNL     1       5.783 -15.880   4.079  1.00  0.00    -0.082 NA
ENDBRANCH   1  19
TORSDOF 4
ENDMDL
MODEL 5
REMARK VINA RESULT: -7.374027972      2.016      4.882
REMARK  4 active torsions:
REMARK  status: ('A' for Active; 'I' for Inactive)
REMARK    1  A    between atoms: C1_4  and  C2_6 
REMARK    2  A    between atoms: C3_7  and  C4_8 
REMARK    3  A    between atoms: C4_8  and  O1_9 
REMARK    4  A    between atoms: C4_8  and  N3_11 
REMARK       I    between atoms: N3_11  and  C5_13 
ROOT
HETATM    1  C2  UNL     1       5.818 -13.054   2.542  1.00  0.00     0.104 A 
HETATM    2  C3  UNL     1       6.534 -13.771   3.428  1.00  0.00     0.106 A 
HETATM    3  N6  UNL     1       7.151 -13.109   4.492  1.00  0.00    -0.304 N 
ATOM      4  H6  UNL     1       7.687 -13.660   5.163  1.00  0.00     0.171 HD
HETATM    5  C6  UNL     1       7.072 -11.799   4.671  1.00  0.00     0.327 A 
HETATM    6  O2  UNL     1       7.663 -11.252   5.670  1.00  0.00    -0.247 OA
HETATM    7  N7  UNL     1       6.376 -11.056   3.809  1.00  0.00    -0.275 N 
ATOM      8  H7  UNL     1       6.312 -10.046   3.939  1.00  0.00     0.173 HD
HETATM    9  C7  UNL     1       5.766 -11.637   2.777  1.00  0.00     0.265 A 
HETATM   10  O3  UNL     1       5.105 -10.965   1.949  1.00  0.00    -0.267 OA
ENDROOT
BRANCH   2  11
HETATM   11  C4  UNL     1       6.793 -15.162   3.341  1.00  0.00     0.170 C 
BRANCH  11  12
HETATM   12  O1  UNL     1       6.206 -15.893   4.254  1.00  0.00    -0.344 OA
ATOM     13  H1  UNL     1       5.958 -16.766   3.972  1.00  0.00     0.219 HD
ENDBRANCH  11  12
BRANCH  11  14
HETATM   14  N3  UNL     1       7.548 -15.940   2.503  1.00  0.00    -0.312 N 
HETATM   15  C5  UNL     1       7.076 -16.749   1.594  1.00  0.00     0.203 C 
HETATM   16  N4  UNL     1       8.018 -17.473   0.822  1.00  0.00    -0.066 NA
HETATM   17  N5  UNL     1       5.689 -16.918   1.363  1.00  0.00    -0.066 NA
ATOM     18  H3  UNL     1       8.563 -15.883   2.597  1.00  0.00     0.170 HD
ENDBRANCH  11  14
ENDBRANCH   2  11
BRANCH   1  19
HETATM   19  C1  UNL     1       4.963 -13.552   1.508  1.00  0.00     0.128 C 
HETATM   20  N1  UNL     1       5.523 -13.711   0.287  1.00  0.00    -0.387 N 
ATOM     21  H12 UNL     1       4.913 -14.066  -0.451  1.00  0.00     0.157 HD
ATOM     22  H11 UNL     1       6.524 -13.517   0.319  1.00  0.00     0.157 HD
HETATM   23  N2  UNL     1       3.602 -13.817   1.464  1.00  0.00    -0.082 NA
ENDBRANCH   1  19
TORSDOF 4
ENDMDL
