MODEL 1
REMARK VINA RESULT: -7.453995941      0.000      0.000
REMARK  5 active torsions:
REMARK  status: ('A' for Active; 'I' for Inactive)
REMARK    1  A    between atoms: N2_4  and  C1_6 
REMARK    2  A    between atoms: C2_9  and  N4_10 
REMARK    3  A    between atoms: C4_17  and  C5_18 
REMARK    4  A    between atoms: C5_18  and  N7_22 
REMARK    5  A    between atoms: C6_24  and  C7_25 
ROOT
HETATM    1  C1  UNL     1       6.123 -13.185   3.606  1.00  0.00     0.154 A 
HETATM    2  N3  UNL     1       6.520 -12.477   4.705  1.00  0.00    -0.174 N 
ATOM      3  H3  UNL     1       6.839 -12.971   5.539  1.00  0.00     0.186 HD
HETATM    4  C2  UNL     1       6.492 -11.142   4.694  1.00  0.00     0.680 A 
HETATM    5  N5  UNL     1       6.083 -10.439   3.623  1.00  0.00    -0.155 N 
ATOM      6  H5  UNL     1       6.074  -9.419   3.646  1.00  0.00     0.187 HD
HETATM    7  C3  UNL     1       5.687 -11.100   2.525  1.00  0.00     0.277 A 
HETATM    8  O1  UNL     1       5.287 -10.515   1.475  1.00  0.00    -0.266 OA
HETATM    9  C4  UNL     1       5.707 -12.489   2.513  1.00  0.00     0.122 A 
ENDROOT
BRANCH   9  10
HETATM   10  C5  UNL     1       5.271 -13.216   1.306  1.00  0.00     0.118 C 
HETATM   11  N6  UNL     1       4.026 -13.484   1.152  1.00  0.00    -0.385 N 
ATOM     12  H62 UNL     1       3.372 -13.184   1.875  1.00  0.00     0.157 HD
ATOM     13  H61 UNL     1       3.725 -13.987   0.317  1.00  0.00     0.157 HD
BRANCH  10  14
HETATM   14  N7  UNL     1       6.175 -13.632   0.306  1.00  0.00    -0.347 N 
HETATM   15  C6  UNL     1       6.161 -14.852  -0.092  1.00  0.00     0.160 C 
ATOM     16  H7  UNL     1       6.835 -12.968  -0.097  1.00  0.00     0.167 HD
BRANCH  15  17
HETATM   17  C7  UNL     1       7.081 -15.327  -1.127  1.00  0.00     0.270 C 
HETATM   18  N8  UNL     1       8.054 -16.297  -0.775  1.00  0.00    -0.057 NA
HETATM   19  O2  UNL     1       6.982 -14.868  -2.287  1.00  0.00    -0.270 OA
ENDBRANCH  15  17
ENDBRANCH  10  14
ENDBRANCH   9  10
BRANCH   1  20
HETATM   20  N2  UNL     1       6.165 -14.608   3.649  1.00  0.00    -0.291 N 
HETATM   21  N1  UNL     1       7.251 -15.245   3.643  1.00  0.00    -0.344 N 
ATOM     22  H12 UNL     1       8.119 -14.710   3.606  1.00  0.00     0.176 HD
ATOM     23  H11 UNL     1       7.281 -16.264   3.674  1.00  0.00     0.176 HD
ATOM     24  H2  UNL     1       5.288 -15.127   3.685  1.00  0.00     0.188 HD
ENDBRANCH   1  20
BRANCH   4  25
HETATM   25  N4  UNL     1       6.869 -10.452   5.743  1.00  0.00    -0.234 N 
ATOM     26  H42 UNL     1       7.760 -10.712   6.166  1.00  0.00     0.174 HD
ATOM     27  H41 UNL     1       6.290  -9.695   6.107  1.00  0.00     0.174 HD
ENDBRANCH   4  25
TORSDOF 5
ENDMDL
MODEL 2
REMARK VINA RESULT: -7.111674962      2.001      2.752
REMARK  5 active torsions:
REMARK  status: ('A' for Active; 'I' for Inactive)
REMARK    1  A    between atoms: N2_4  and  C1_6 
REMARK    2  A    between atoms: C2_9  and  N4_10 
REMARK    3  A    between atoms: C4_17  and  C5_18 
REMARK    4  A    between atoms: C5_18  and  N7_22 
REMARK    5  A    between atoms: C6_24  and  C7_25 
ROOT
HETATM    1  C1  UNL     1       6.752 -11.896   2.202  1.00  0.00     0.154 A 
HETATM    2  N3  UNL     1       7.446 -11.535   3.323  1.00  0.00    -0.174 N 
ATOM      3  H3  UNL     1       7.794 -10.581   3.419  1.00  0.00     0.186 HD
HETATM    4  C2  UNL     1       7.671 -12.426   4.292  1.00  0.00     0.680 A 
HETATM    5  N5  UNL     1       7.235 -13.697   4.219  1.00  0.00    -0.155 N 
ATOM      6  H5  UNL     1       7.423 -14.353   4.977  1.00  0.00     0.187 HD
HETATM    7  C3  UNL     1       6.549 -14.086   3.134  1.00  0.00     0.277 A 
HETATM    8  O1  UNL     1       6.104 -15.262   2.986  1.00  0.00    -0.266 OA
HETATM    9  C4  UNL     1       6.303 -13.177   2.112  1.00  0.00     0.122 A 
ENDROOT
BRANCH   9  10
HETATM   10  C5  UNL     1       5.549 -13.606   0.919  1.00  0.00     0.118 C 
HETATM   11  N6  UNL     1       4.267 -13.564   0.941  1.00  0.00    -0.385 N 
ATOM     12  H62 UNL     1       3.807 -13.235   1.790  1.00  0.00     0.157 HD
ATOM     13  H61 UNL     1       3.746 -13.861   0.116  1.00  0.00     0.157 HD
BRANCH  10  14
HETATM   14  N7  UNL     1       6.185 -14.061  -0.255  1.00  0.00    -0.347 N 
HETATM   15  C6  UNL     1       5.850 -15.194  -0.757  1.00  0.00     0.160 C 
ATOM     16  H7  UNL     1       6.906 -13.495  -0.701  1.00  0.00     0.167 HD
BRANCH  15  17
HETATM   17  C7  UNL     1       6.483 -15.707  -1.973  1.00  0.00     0.270 C 
HETATM   18  N8  UNL     1       6.113 -16.994  -2.439  1.00  0.00    -0.057 NA
HETATM   19  O2  UNL     1       7.328 -14.998  -2.564  1.00  0.00    -0.270 OA
ENDBRANCH  15  17
ENDBRANCH  10  14
ENDBRANCH   9  10
BRANCH   1  20
HETATM   20  N2  UNL     1       6.529 -10.923   1.186  1.00  0.00    -0.291 N 
HETATM   21  N1  UNL     1       7.438 -10.143   0.797  1.00  0.00    -0.344 N 
ATOM     22  H12 UNL     1       8.356 -10.223   1.233  1.00  0.00     0.176 HD
ATOM     23  H11 UNL     1       7.278  -9.447   0.069  1.00  0.00     0.176 HD
ATOM     24  H2  UNL     1       5.604 -10.856   0.761  1.00  0.00     0.188 HD
ENDBRANCH   1  20
BRANCH   4  25
HETATM   25  N4  UNL     1       8.336 -12.093   5.371  1.00  0.00    -0.234 N 
ATOM     26  H42 UNL     1       8.499 -12.832   6.056  1.00  0.00     0.174 HD
ATOM     27  H41 UNL     1       8.669 -11.138   5.507  1.00  0.00     0.174 HD
ENDBRANCH   4  25
TORSDOF 5
ENDMDL
MODEL 3
REMARK VINA RESULT: -7.103980398      2.088      5.737
REMARK  5 active torsions:
REMARK  status: ('A' for Active; 'I' for Inactive)
REMARK    1  A    between atoms: N2_4  and  C1_6 
REMARK    2  A    between atoms: C2_9  and  N4_10 
REMARK    3  A    between atoms: C4_17  and  C5_18 
REMARK    4  A    between atoms: C5_18  and  N7_22 
REMARK    5  A    between atoms: C6_24  and  C7_25 
ROOT
HETATM    1  C1  UNL     1       6.668 -14.041   2.816  1.00  0.00     0.154 A 
HETATM    2  N3  UNL     1       6.008 -14.753   1.854  1.00  0.00    -0.174 N 
ATOM      3  H3  UNL     1       5.922 -15.766   1.942  1.00  0.00     0.186 HD
HETATM    4  C2  UNL     1       5.475 -14.129   0.800  1.00  0.00     0.680 A 
HETATM    5  N5  UNL     1       5.556 -12.797   0.634  1.00  0.00    -0.155 N 
ATOM      6  H5  UNL     1       5.138 -12.351  -0.182  1.00  0.00     0.187 HD
HETATM    7  C3  UNL     1       6.196 -12.066   1.559  1.00  0.00     0.277 A 
HETATM    8  O1  UNL     1       6.317 -10.807   1.479  1.00  0.00    -0.266 OA
HETATM    9  C4  UNL     1       6.759 -12.692   2.664  1.00  0.00     0.122 A 
ENDROOT
BRANCH   9  10
HETATM   10  C5  UNL     1       7.462 -11.887   3.681  1.00  0.00     0.118 C 
HETATM   11  N6  UNL     1       8.744 -11.859   3.679  1.00  0.00    -0.385 N 
ATOM     12  H62 UNL     1       9.240 -12.399   2.969  1.00  0.00     0.157 HD
ATOM     13  H61 UNL     1       9.230 -11.303   4.382  1.00  0.00     0.157 HD
BRANCH  10  14
HETATM   14  N7  UNL     1       6.776 -11.142   4.663  1.00  0.00    -0.347 N 
HETATM   15  C6  UNL     1       7.387 -10.803   5.740  1.00  0.00     0.160 C 
ATOM     16  H7  UNL     1       5.803 -10.875   4.518  1.00  0.00     0.167 HD
BRANCH  15  17
HETATM   17  C7  UNL     1       6.714 -10.029   6.785  1.00  0.00     0.270 C 
HETATM   18  N8  UNL     1       7.468  -9.616   7.913  1.00  0.00    -0.057 NA
HETATM   19  O2  UNL     1       5.500  -9.756   6.655  1.00  0.00    -0.270 OA
ENDBRANCH  15  17
ENDBRANCH  10  14
ENDBRANCH   9  10
BRANCH   1  20
HETATM   20  N2  UNL     1       7.225 -14.735   3.928  1.00  0.00    -0.291 N 
HETATM   21  N1  UNL     1       7.268 -15.993   3.977  1.00  0.00    -0.344 N 
ATOM     22  H12 UNL     1       6.888 -16.516   3.188  1.00  0.00     0.176 HD
ATOM     23  H11 UNL     1       7.668 -16.490   4.773  1.00  0.00     0.176 HD
ATOM     24  H2  UNL     1       7.600 -14.197   4.708  1.00  0.00     0.188 HD
ENDBRANCH   1  20
BRANCH   4  25
HETATM   25  N4  UNL     1       4.841 -14.801  -0.129  1.00  0.00    -0.234 N 
ATOM     26  H42 UNL     1       4.788 -15.813  -0.008  1.00  0.00     0.174 HD
ATOM     27  H41 UNL     1       4.425 -14.324  -0.929  1.00  0.00     0.174 HD
ENDBRANCH   4  25
TORSDOF 5
ENDMDL
MODEL 4
REMARK VINA RESULT: -7.043255708      2.568      6.212
REMARK  5 active torsions:
REMARK  status: ('A' for Active; 'I' for Inactive)
REMARK    1  A    between atoms: N2_4  and  C1_6 
REMARK    2  A    between atoms: C2_9  and  N4_10 
REMARK    3  A    between atoms: C4_17  and  C5_18 
REMARK    4  A    between atoms: C5_18  and  N7_22 
REMARK    5  A    between atoms: C6_24  and  C7_25 
ROOT
HETATM    1  C1  UNL     1       6.303 -12.211   1.540  1.00  0.00     0.154 A 
HETATM    2  N3  UNL     1       5.681 -12.960   0.582  1.00  0.00    -0.174 N 
ATOM      3  H3  UNL     1       5.352 -12.516  -0.275  1.00  0.00     0.186 HD
HETATM    4  C2  UNL     1       5.502 -14.271   0.762  1.00  0.00     0.680 A 
HETATM    5  N5  UNL     1       5.915 -14.910   1.872  1.00  0.00    -0.155 N 
ATOM      6  H5  UNL     1       5.764 -15.912   1.979  1.00  0.00     0.187 HD
HETATM    7  C3  UNL     1       6.531 -14.206   2.834  1.00  0.00     0.277 A 
HETATM    8  O1  UNL     1       6.951 -14.729   3.908  1.00  0.00    -0.266 OA
HETATM    9  C4  UNL     1       6.728 -12.841   2.669  1.00  0.00     0.122 A 
ENDROOT
BRANCH   9  10
HETATM   10  C5  UNL     1       7.405 -12.067   3.727  1.00  0.00     0.118 C 
HETATM   11  N6  UNL     1       8.680 -11.933   3.685  1.00  0.00    -0.385 N 
ATOM     12  H62 UNL     1       9.189 -12.369   2.916  1.00  0.00     0.157 HD
ATOM     13  H61 UNL     1       9.148 -11.398   4.417  1.00  0.00     0.157 HD
BRANCH  10  14
HETATM   14  N7  UNL     1       6.702 -11.465   4.791  1.00  0.00    -0.347 N 
HETATM   15  C6  UNL     1       7.319 -10.668   5.587  1.00  0.00     0.160 C 
ATOM     16  H7  UNL     1       5.711 -11.661   4.927  1.00  0.00     0.167 HD
BRANCH  15  17
HETATM   17  C7  UNL     1       6.630 -10.021   6.704  1.00  0.00     0.270 C 
HETATM   18  N8  UNL     1       7.382  -9.674   7.854  1.00  0.00    -0.057 NA
HETATM   19  O2  UNL     1       5.402  -9.794   6.613  1.00  0.00    -0.270 OA
ENDBRANCH  15  17
ENDBRANCH  10  14
ENDBRANCH   9  10
BRANCH   1  20
HETATM   20  N2  UNL     1       6.479 -10.815   1.319  1.00  0.00    -0.291 N 
HETATM   21  N1  UNL     1       7.551 -10.343   0.854  1.00  0.00    -0.344 N 
ATOM     22  H12 UNL     1       8.305 -10.994   0.634  1.00  0.00     0.176 HD
ATOM     23  H11 UNL     1       7.677  -9.344   0.695  1.00  0.00     0.176 HD
ATOM     24  H2  UNL     1       5.716 -10.178   1.544  1.00  0.00     0.188 HD
ENDBRANCH   1  20
BRANCH   4  25
HETATM   25  N4  UNL     1       4.906 -15.000  -0.149  1.00  0.00    -0.234 N 
ATOM     26  H42 UNL     1       4.554 -14.509  -0.972  1.00  0.00     0.174 HD
ATOM     27  H41 UNL     1       4.806 -16.009  -0.030  1.00  0.00     0.174 HD
ENDBRANCH   4  25
TORSDOF 5
ENDMDL
MODEL 5
REMARK VINA RESULT: -6.808298831      2.142      5.540
REMARK  5 active torsions:
REMARK  status: ('A' for Active; 'I' for Inactive)
REMARK    1  A    between atoms: N2_4  and  C1_6 
REMARK    2  A    between atoms: C2_9  and  N4_10 
REMARK    3  A    between atoms: C4_17  and  C5_18 
REMARK    4  A    between atoms: C5_18  and  N7_22 
REMARK    5  A    between atoms: C6_24  and  C7_25 
ROOT
HETATM    1  C1  UNL     1       7.384 -15.575   1.178  1.00  0.00     0.154 A 
HETATM    2  N3  UNL     1       7.337 -15.628  -0.186  1.00  0.00    -0.174 N 
ATOM      3  H3  UNL     1       8.122 -16.019  -0.707  1.00  0.00     0.186 HD
HETATM    4  C2  UNL     1       6.267 -15.171  -0.842  1.00  0.00     0.680 A 
HETATM    5  N5  UNL     1       5.203 -14.647  -0.209  1.00  0.00    -0.155 N 
ATOM      6  H5  UNL     1       4.400 -14.307  -0.738  1.00  0.00     0.187 HD
HETATM    7  C3  UNL     1       5.214 -14.579   1.131  1.00  0.00     0.277 A 
HETATM    8  O1  UNL     1       4.254 -14.100   1.805  1.00  0.00    -0.266 OA
HETATM    9  C4  UNL     1       6.316 -15.048   1.836  1.00  0.00     0.122 A 
ENDROOT
BRANCH   9  10
HETATM   10  C5  UNL     1       6.328 -14.973   3.309  1.00  0.00     0.118 C 
HETATM   11  N6  UNL     1       5.814 -15.933   3.988  1.00  0.00    -0.385 N 
ATOM     12  H62 UNL     1       5.410 -16.722   3.483  1.00  0.00     0.157 HD
ATOM     13  H61 UNL     1       5.822 -15.881   5.006  1.00  0.00     0.157 HD
BRANCH  10  14
HETATM   14  N7  UNL     1       6.886 -13.882   4.006  1.00  0.00    -0.347 N 
HETATM   15  C6  UNL     1       6.241 -12.774   4.068  1.00  0.00     0.160 C 
ATOM     16  H7  UNL     1       7.795 -13.973   4.459  1.00  0.00     0.167 HD
BRANCH  15  17
HETATM   17  C7  UNL     1       6.782 -11.615   4.781  1.00  0.00     0.270 C 
HETATM   18  N8  UNL     1       6.093 -10.379   4.686  1.00  0.00    -0.057 NA
HETATM   19  O2  UNL     1       7.831 -11.748   5.451  1.00  0.00    -0.270 OA
ENDBRANCH  15  17
ENDBRANCH  10  14
ENDBRANCH   9  10
BRANCH   1  20
HETATM   20  N2  UNL     1       8.539 -16.070   1.849  1.00  0.00    -0.291 N 
HETATM   21  N1  UNL     1       9.564 -16.451   1.222  1.00  0.00    -0.344 N 
ATOM     22  H12 UNL     1       9.549 -16.395   0.203  1.00  0.00     0.176 HD
ATOM     23  H11 UNL     1      10.391 -16.805   1.702  1.00  0.00     0.176 HD
ATOM     24  H2  UNL     1       8.536 -16.119   2.867  1.00  0.00     0.188 HD
ENDBRANCH   1  20
BRANCH   4  25
HETATM   25  N4  UNL     1       6.210 -15.216  -2.151  1.00  0.00    -0.234 N 
ATOM     26  H42 UNL     1       5.946 -14.354  -2.628  1.00  0.00     0.174 HD
ATOM     27  H41 UNL     1       6.423 -16.077  -2.655  1.00  0.00     0.174 HD
ENDBRANCH   4  25
TORSDOF 5
ENDMDL
