MODEL 1
REMARK VINA RESULT: -7.573950737      0.000      0.000
REMARK  10 active torsions:
REMARK  status: ('A' for Active; 'I' for Inactive)
REMARK    1  A    between atoms: N1_2  and  C2_4 
REMARK    2  A    between atoms: C4_6  and  C5_7 
REMARK    3  A    between atoms: C5_7  and  C6_8 
REMARK       I    between atoms: C6_8  and  N2_10 
REMARK    4  A    between atoms: N2_10  and  C7_11 
REMARK    5  A    between atoms: C7_11  and  C8_12 
REMARK    6  A    between atoms: C8_12  and  N3_13 
REMARK    7  A    between atoms: C8_12  and  N4_17 
REMARK    8  A    between atoms: N4_17  and  O2_19 
REMARK    9  A    between atoms: O2_19  and  C9_20 
REMARK   10  A    between atoms: C10_24  and  S2_25 
ROOT
HETATM    1  C6  UNL     1       7.158  15.861  34.948  1.00  0.00     0.287 C 
HETATM    2  O1  UNL     1       7.985  14.945  35.229  1.00  0.00    -0.258 OA
HETATM    3  N2  UNL     1       6.777  16.897  35.753  1.00  0.00    -0.411 NA
ENDROOT
BRANCH   1   4
HETATM    4  C5  UNL     1       6.573  15.715  33.544  1.00  0.00     0.134 C 
BRANCH   4   5
HETATM    5  C4  UNL     1       7.587  16.198  32.553  1.00  0.00     0.064 C 
HETATM    6  C3  UNL     1       6.981  17.047  31.486  1.00  0.00     0.070 C 
HETATM    7  C2  UNL     1       7.552  16.826  30.150  1.00  0.00     0.006 C 
HETATM    8  C10 UNL     1       8.605  15.831  30.058  1.00  0.00     0.153 C 
HETATM    9  S1  UNL     1       8.339  14.855  31.625  1.00  0.00    -0.142 SA
BRANCH   7  10
HETATM   10  N1  UNL     1       6.596  16.867  29.120  1.00  0.00    -0.399 N 
HETATM   11  C1  UNL     1       5.241  16.590  29.368  1.00  0.00     0.145 C 
ATOM     12  H1  UNL     1       6.893  17.104  28.173  1.00  0.00     0.158 HD
ENDBRANCH   7  10
BRANCH   8  13
HETATM   13  S2  UNL     1       8.751  14.751  28.681  1.00  0.00    -0.152 SA
HETATM   14  C11 UNL     1      10.138  15.008  27.578  1.00  0.00     0.091 C 
ENDBRANCH   8  13
ENDBRANCH   4   5
ENDBRANCH   1   4
BRANCH   3  15
HETATM   15  C7  UNL     1       6.398  17.925  36.553  1.00  0.00     0.277 C 
BRANCH  15  16
HETATM   16  C8  UNL     1       5.098  17.609  37.334  1.00  0.00     0.333 C 
BRANCH  16  17
HETATM   17  N3  UNL     1       5.395  16.781  38.479  1.00  0.00    -0.054 N 
ATOM     18  H33 UNL     1       5.545  15.806  38.216  1.00  0.00     0.277 HD
ATOM     19  H32 UNL     1       6.320  16.976  38.862  1.00  0.00     0.277 HD
ATOM     20  H31 UNL     1       4.663  16.878  39.182  1.00  0.00     0.277 HD
ENDBRANCH  16  17
BRANCH  16  21
HETATM   21  N4  UNL     1       4.196  17.077  36.408  1.00  0.00    -0.259 N 
ATOM     22  H4  UNL     1       3.894  16.105  36.475  1.00  0.00     0.190 HD
BRANCH  21  23
HETATM   23  O2  UNL     1       3.749  17.849  35.460  1.00  0.00    -0.186 OA
BRANCH  23  24
HETATM   24  C9  UNL     1       3.591  17.566  34.136  1.00  0.00     0.394 C 
HETATM   25  N5  UNL     1       4.142  18.462  33.184  1.00  0.00    -0.031 NA
HETATM   26  O3  UNL     1       2.980  16.555  33.717  1.00  0.00    -0.240 OA
ENDBRANCH  23  24
ENDBRANCH  21  23
ENDBRANCH  16  21
ENDBRANCH  15  16
ENDBRANCH   3  15
TORSDOF 10
ENDMDL
MODEL 2
REMARK VINA RESULT: -7.523247162      3.451      6.489
REMARK  10 active torsions:
REMARK  status: ('A' for Active; 'I' for Inactive)
REMARK    1  A    between atoms: N1_2  and  C2_4 
REMARK    2  A    between atoms: C4_6  and  C5_7 
REMARK    3  A    between atoms: C5_7  and  C6_8 
REMARK       I    between atoms: C6_8  and  N2_10 
REMARK    4  A    between atoms: N2_10  and  C7_11 
REMARK    5  A    between atoms: C7_11  and  C8_12 
REMARK    6  A    between atoms: C8_12  and  N3_13 
REMARK    7  A    between atoms: C8_12  and  N4_17 
REMARK    8  A    between atoms: N4_17  and  O2_19 
REMARK    9  A    between atoms: O2_19  and  C9_20 
REMARK   10  A    between atoms: C10_24  and  S2_25 
ROOT
HETATM    1  C6  UNL     1       8.070  15.400  31.746  1.00  0.00     0.287 C 
HETATM    2  O1  UNL     1       8.669  14.300  31.925  1.00  0.00    -0.258 OA
HETATM    3  N2  UNL     1       7.551  15.870  30.573  1.00  0.00    -0.411 NA
ENDROOT
BRANCH   1   4
HETATM    4  C5  UNL     1       7.961  16.225  33.027  1.00  0.00     0.134 C 
BRANCH   4   5
HETATM    5  C4  UNL     1       6.884  15.634  33.884  1.00  0.00     0.064 C 
HETATM    6  C3  UNL     1       5.521  15.843  33.313  1.00  0.00     0.070 C 
HETATM    7  C2  UNL     1       4.490  16.139  34.317  1.00  0.00     0.006 C 
HETATM    8  C10 UNL     1       4.934  16.185  35.699  1.00  0.00     0.153 C 
HETATM    9  S1  UNL     1       6.773  16.422  35.495  1.00  0.00    -0.142 SA
BRANCH   7  10
HETATM   10  N1  UNL     1       3.558  17.102  33.894  1.00  0.00    -0.399 N 
HETATM   11  C1  UNL     1       3.970  18.320  33.329  1.00  0.00     0.145 C 
ATOM     12  H1  UNL     1       2.562  16.911  34.000  1.00  0.00     0.158 HD
ENDBRANCH   7  10
BRANCH   8  13
HETATM   13  S2  UNL     1       4.289  17.347  36.847  1.00  0.00    -0.152 SA
HETATM   14  C11 UNL     1       4.816  19.049  36.676  1.00  0.00     0.091 C 
ENDBRANCH   8  13
ENDBRANCH   4   5
ENDBRANCH   1   4
BRANCH   3  15
HETATM   15  C7  UNL     1       7.036  16.336  29.408  1.00  0.00     0.277 C 
BRANCH  15  16
HETATM   16  C8  UNL     1       5.577  16.834  29.572  1.00  0.00     0.333 C 
BRANCH  16  17
HETATM   17  N3  UNL     1       4.652  15.765  29.277  1.00  0.00    -0.054 N 
ATOM     18  H33 UNL     1       4.773  14.971  29.905  1.00  0.00     0.277 HD
ATOM     19  H32 UNL     1       3.694  16.010  29.528  1.00  0.00     0.277 HD
ATOM     20  H31 UNL     1       4.732  15.493  28.297  1.00  0.00     0.277 HD
ENDBRANCH  16  17
BRANCH  16  21
HETATM   21  N4  UNL     1       5.458  17.985  28.789  1.00  0.00    -0.259 N 
ATOM     22  H4  UNL     1       6.285  18.507  28.501  1.00  0.00     0.190 HD
BRANCH  21  23
HETATM   23  O2  UNL     1       4.267  18.376  28.434  1.00  0.00    -0.186 OA
BRANCH  23  24
HETATM   24  C9  UNL     1       3.918  19.262  27.459  1.00  0.00     0.394 C 
HETATM   25  N5  UNL     1       4.950  19.954  26.775  1.00  0.00    -0.031 NA
HETATM   26  O3  UNL     1       2.729  19.501  27.140  1.00  0.00    -0.240 OA
ENDBRANCH  23  24
ENDBRANCH  21  23
ENDBRANCH  16  21
ENDBRANCH  15  16
ENDBRANCH   3  15
TORSDOF 10
ENDMDL
MODEL 3
REMARK VINA RESULT: -7.430626674      1.875      3.098
REMARK  10 active torsions:
REMARK  status: ('A' for Active; 'I' for Inactive)
REMARK    1  A    between atoms: N1_2  and  C2_4 
REMARK    2  A    between atoms: C4_6  and  C5_7 
REMARK    3  A    between atoms: C5_7  and  C6_8 
REMARK       I    between atoms: C6_8  and  N2_10 
REMARK    4  A    between atoms: N2_10  and  C7_11 
REMARK    5  A    between atoms: C7_11  and  C8_12 
REMARK    6  A    between atoms: C8_12  and  N3_13 
REMARK    7  A    between atoms: C8_12  and  N4_17 
REMARK    8  A    between atoms: N4_17  and  O2_19 
REMARK    9  A    between atoms: O2_19  and  C9_20 
REMARK   10  A    between atoms: C10_24  and  S2_25 
ROOT
HETATM    1  C6  UNL     1       4.228  15.571  34.704  1.00  0.00     0.287 C 
HETATM    2  O1  UNL     1       4.488  14.339  34.838  1.00  0.00    -0.258 OA
HETATM    3  N2  UNL     1       3.998  16.474  35.703  1.00  0.00    -0.411 NA
ENDROOT
BRANCH   1   4
HETATM    4  C5  UNL     1       4.186  16.008  33.241  1.00  0.00     0.134 C 
BRANCH   4   5
HETATM    5  C4  UNL     1       5.476  16.694  32.911  1.00  0.00     0.064 C 
HETATM    6  C3  UNL     1       5.372  17.551  31.694  1.00  0.00     0.070 C 
HETATM    7  C2  UNL     1       6.563  17.517  30.834  1.00  0.00     0.006 C 
HETATM    8  C10 UNL     1       7.653  16.669  31.281  1.00  0.00     0.153 C 
HETATM    9  S1  UNL     1       6.783  15.538  32.481  1.00  0.00    -0.142 SA
BRANCH   7  10
HETATM   10  N1  UNL     1       6.261  17.529  29.461  1.00  0.00    -0.399 N 
HETATM   11  C1  UNL     1       5.087  16.938  28.964  1.00  0.00     0.145 C 
ATOM     12  H1  UNL     1       6.908  17.977  28.813  1.00  0.00     0.158 HD
ENDBRANCH   7  10
BRANCH   8  13
HETATM   13  S2  UNL     1       8.631  15.738  30.158  1.00  0.00    -0.152 SA
HETATM   14  C11 UNL     1       7.897  14.262  29.460  1.00  0.00     0.091 C 
ENDBRANCH   8  13
ENDBRANCH   4   5
ENDBRANCH   1   4
BRANCH   3  15
HETATM   15  C7  UNL     1       3.769  17.370  36.695  1.00  0.00     0.277 C 
BRANCH  15  16
HETATM   16  C8  UNL     1       5.080  17.820  37.389  1.00  0.00     0.333 C 
BRANCH  16  17
HETATM   17  N3  UNL     1       6.025  18.294  36.404  1.00  0.00    -0.054 N 
ATOM     18  H33 UNL     1       6.379  17.536  35.820  1.00  0.00     0.277 HD
ATOM     19  H32 UNL     1       5.572  18.846  35.676  1.00  0.00     0.277 HD
ATOM     20  H31 UNL     1       6.778  18.808  36.860  1.00  0.00     0.277 HD
ENDBRANCH  16  17
BRANCH  16  21
HETATM   21  N4  UNL     1       5.502  16.748  38.179  1.00  0.00    -0.259 N 
ATOM     22  H4  UNL     1       4.888  16.355  38.894  1.00  0.00     0.190 HD
BRANCH  21  23
HETATM   23  O2  UNL     1       6.694  16.263  37.985  1.00  0.00    -0.186 OA
BRANCH  23  24
HETATM   24  C9  UNL     1       7.090  15.309  37.095  1.00  0.00     0.394 C 
HETATM   25  N5  UNL     1       6.881  13.947  37.430  1.00  0.00    -0.031 NA
HETATM   26  O3  UNL     1       7.634  15.576  35.998  1.00  0.00    -0.240 OA
ENDBRANCH  23  24
ENDBRANCH  21  23
ENDBRANCH  16  21
ENDBRANCH  15  16
ENDBRANCH   3  15
TORSDOF 10
ENDMDL
MODEL 4
REMARK VINA RESULT: -7.408479047      3.330      6.605
REMARK  10 active torsions:
REMARK  status: ('A' for Active; 'I' for Inactive)
REMARK    1  A    between atoms: N1_2  and  C2_4 
REMARK    2  A    between atoms: C4_6  and  C5_7 
REMARK    3  A    between atoms: C5_7  and  C6_8 
REMARK       I    between atoms: C6_8  and  N2_10 
REMARK    4  A    between atoms: N2_10  and  C7_11 
REMARK    5  A    between atoms: C7_11  and  C8_12 
REMARK    6  A    between atoms: C8_12  and  N3_13 
REMARK    7  A    between atoms: C8_12  and  N4_17 
REMARK    8  A    between atoms: N4_17  and  O2_19 
REMARK    9  A    between atoms: O2_19  and  C9_20 
REMARK   10  A    between atoms: C10_24  and  S2_25 
ROOT
HETATM    1  C6  UNL     1       8.708  14.946  32.175  1.00  0.00     0.287 C 
HETATM    2  O1  UNL     1       9.570  14.572  33.023  1.00  0.00    -0.258 OA
HETATM    3  N2  UNL     1       8.506  14.427  30.927  1.00  0.00    -0.411 NA
ENDROOT
BRANCH   1   4
HETATM    4  C5  UNL     1       7.847  16.102  32.682  1.00  0.00     0.134 C 
BRANCH   4   5
HETATM    5  C4  UNL     1       6.767  15.543  33.556  1.00  0.00     0.064 C 
HETATM    6  C3  UNL     1       5.402  15.942  33.101  1.00  0.00     0.070 C 
HETATM    7  C2  UNL     1       4.471  16.243  34.197  1.00  0.00     0.006 C 
HETATM    8  C10 UNL     1       4.999  16.112  35.543  1.00  0.00     0.153 C 
HETATM    9  S1  UNL     1       6.837  16.181  35.234  1.00  0.00    -0.142 SA
BRANCH   7  10
HETATM   10  N1  UNL     1       3.624  17.331  33.927  1.00  0.00    -0.399 N 
HETATM   11  C1  UNL     1       4.120  18.529  33.386  1.00  0.00     0.145 C 
ATOM     12  H1  UNL     1       2.627  17.249  34.127  1.00  0.00     0.158 HD
ENDBRANCH   7  10
BRANCH   8  13
HETATM   13  S2  UNL     1       4.552  17.219  36.832  1.00  0.00    -0.152 SA
HETATM   14  C11 UNL     1       5.331  16.981  38.426  1.00  0.00     0.091 C 
ENDBRANCH   8  13
ENDBRANCH   4   5
ENDBRANCH   1   4
BRANCH   3  15
HETATM   15  C7  UNL     1       8.306  13.913  29.688  1.00  0.00     0.277 C 
BRANCH  15  16
HETATM   16  C8  UNL     1       8.267  15.014  28.598  1.00  0.00     0.333 C 
BRANCH  16  17
HETATM   17  N3  UNL     1       9.610  15.385  28.218  1.00  0.00    -0.054 N 
ATOM     18  H33 UNL     1      10.312  14.885  28.763  1.00  0.00     0.277 HD
ATOM     19  H32 UNL     1       9.857  15.030  27.294  1.00  0.00     0.277 HD
ATOM     20  H31 UNL     1       9.726  16.396  28.282  1.00  0.00     0.277 HD
ENDBRANCH  16  17
BRANCH  16  21
HETATM   21  N4  UNL     1       7.463  16.042  29.098  1.00  0.00    -0.259 N 
ATOM     22  H4  UNL     1       7.881  16.860  29.542  1.00  0.00     0.190 HD
BRANCH  21  23
HETATM   23  O2  UNL     1       6.171  15.933  28.986  1.00  0.00    -0.186 OA
BRANCH  23  24
HETATM   24  C9  UNL     1       5.237  16.923  28.900  1.00  0.00     0.394 C 
HETATM   25  N5  UNL     1       5.141  17.853  29.966  1.00  0.00    -0.031 NA
HETATM   26  O3  UNL     1       4.456  17.049  27.928  1.00  0.00    -0.240 OA
ENDBRANCH  23  24
ENDBRANCH  21  23
ENDBRANCH  16  21
ENDBRANCH  15  16
ENDBRANCH   3  15
TORSDOF 10
ENDMDL
MODEL 5
REMARK VINA RESULT: -7.218948274      3.354      7.345
REMARK  10 active torsions:
REMARK  status: ('A' for Active; 'I' for Inactive)
REMARK    1  A    between atoms: N1_2  and  C2_4 
REMARK    2  A    between atoms: C4_6  and  C5_7 
REMARK    3  A    between atoms: C5_7  and  C6_8 
REMARK       I    between atoms: C6_8  and  N2_10 
REMARK    4  A    between atoms: N2_10  and  C7_11 
REMARK    5  A    between atoms: C7_11  and  C8_12 
REMARK    6  A    between atoms: C8_12  and  N3_13 
REMARK    7  A    between atoms: C8_12  and  N4_17 
REMARK    8  A    between atoms: N4_17  and  O2_19 
REMARK    9  A    between atoms: O2_19  and  C9_20 
REMARK   10  A    between atoms: C10_24  and  S2_25 
ROOT
HETATM    1  C6  UNL     1       5.726  16.978  29.924  1.00  0.00     0.287 C 
HETATM    2  O1  UNL     1       5.096  17.900  29.327  1.00  0.00    -0.258 OA
HETATM    3  N2  UNL     1       6.947  16.467  29.587  1.00  0.00    -0.411 NA
ENDROOT
BRANCH   1   4
HETATM    4  C5  UNL     1       4.968  16.437  31.135  1.00  0.00     0.134 C 
BRANCH   4   5
HETATM    5  C4  UNL     1       5.516  17.087  32.369  1.00  0.00     0.064 C 
HETATM    6  C3  UNL     1       6.275  16.131  33.228  1.00  0.00     0.070 C 
HETATM    7  C2  UNL     1       6.070  16.331  34.670  1.00  0.00     0.006 C 
HETATM    8  C10 UNL     1       5.176  17.410  35.048  1.00  0.00     0.153 C 
HETATM    9  S1  UNL     1       4.224  17.682  33.468  1.00  0.00    -0.142 SA
BRANCH   7  10
HETATM   10  N1  UNL     1       5.993  15.129  35.395  1.00  0.00    -0.399 N 
HETATM   11  C1  UNL     1       6.989  14.765  36.317  1.00  0.00     0.145 C 
ATOM     12  H1  UNL     1       5.197  14.509  35.248  1.00  0.00     0.158 HD
ENDBRANCH   7  10
BRANCH   8  13
HETATM   13  S2  UNL     1       4.077  17.276  36.411  1.00  0.00    -0.152 SA
HETATM   14  C11 UNL     1       3.882  18.717  37.455  1.00  0.00     0.091 C 
ENDBRANCH   8  13
ENDBRANCH   4   5
ENDBRANCH   1   4
BRANCH   3  15
HETATM   15  C7  UNL     1       8.160  15.961  29.251  1.00  0.00     0.277 C 
BRANCH  15  16
HETATM   16  C8  UNL     1       8.082  14.457  28.884  1.00  0.00     0.333 C 
BRANCH  16  17
HETATM   17  N3  UNL     1       6.761  13.945  29.163  1.00  0.00    -0.054 N 
ATOM     18  H33 UNL     1       6.413  14.260  30.069  1.00  0.00     0.277 HD
ATOM     19  H32 UNL     1       6.051  14.377  28.571  1.00  0.00     0.277 HD
ATOM     20  H31 UNL     1       6.755  12.928  29.086  1.00  0.00     0.277 HD
ENDBRANCH  16  17
BRANCH  16  21
HETATM   21  N4  UNL     1       9.138  13.829  29.549  1.00  0.00    -0.259 N 
ATOM     22  H4  UNL     1      10.027  13.664  29.077  1.00  0.00     0.190 HD
BRANCH  21  23
HETATM   23  O2  UNL     1       8.963  13.457  30.785  1.00  0.00    -0.186 OA
BRANCH  23  24
HETATM   24  C9  UNL     1       9.727  13.744  31.876  1.00  0.00     0.394 C 
HETATM   25  N5  UNL     1       9.437  14.922  32.611  1.00  0.00    -0.031 NA
HETATM   26  O3  UNL     1      10.677  13.022  32.260  1.00  0.00    -0.240 OA
ENDBRANCH  23  24
ENDBRANCH  21  23
ENDBRANCH  16  21
ENDBRANCH  15  16
ENDBRANCH   3  15
TORSDOF 10
ENDMDL
