MODEL 1
REMARK VINA RESULT: -8.005194577      0.000      0.000
REMARK  9 active torsions:
REMARK  status: ('A' for Active; 'I' for Inactive)
REMARK    1  A    between atoms: N4_10  and  C3_12 
REMARK    2  A    between atoms: C4_16  and  N6_17 
REMARK    3  A    between atoms: C5_21  and  C6_22 
REMARK    4  A    between atoms: C6_22  and  C7_23 
REMARK    5  A    between atoms: C7_23  and  C8_24 
REMARK    6  A    between atoms: C8_24  and  C9_25 
REMARK    7  A    between atoms: C9_25  and  C10_26 
REMARK    8  A    between atoms: C10_26  and  C11_27 
REMARK    9  A    between atoms: C11_27  and  N7_28 
ROOT
HETATM    1  C3  UNL     1      32.003  15.692  12.196  1.00  0.00     0.491 C 
HETATM    2  N5  UNL     1      30.731  15.846  11.534  1.00  0.00     0.003 N 
ATOM      3  H51 UNL     1      30.250  16.710  11.781  1.00  0.00     0.284 HD
ATOM      4  H52 UNL     1      30.017  15.201  11.875  1.00  0.00     0.284 HD
HETATM    5  C4  UNL     1      30.993  15.716  10.088  1.00  0.00     0.418 C 
HETATM    6  C5  UNL     1      32.298  15.063  10.072  1.00  0.00     0.271 C 
HETATM    7  N10 UNL     1      33.007  15.694  11.179  1.00  0.00    -0.017 N 
ATOM      8 1H10 UNL     1      33.890  15.254  11.437  1.00  0.00     0.282 HD
ATOM      9 2H10 UNL     1      33.416  16.605  10.971  1.00  0.00     0.282 HD
ENDROOT
BRANCH   6  10
HETATM   10  C6  UNL     1      33.111  14.943   8.857  1.00  0.00     0.009 C 
BRANCH  10  11
HETATM   11  C7  UNL     1      34.218  14.031   8.730  1.00  0.00    -0.006 C 
BRANCH  11  12
HETATM   12  C8  UNL     1      35.291  14.027   7.759  1.00  0.00    -0.027 C 
BRANCH  12  13
HETATM   13  C9  UNL     1      35.207  13.301   6.471  1.00  0.00     0.029 C 
BRANCH  13  14
HETATM   14  C10 UNL     1      33.995  12.546   6.109  1.00  0.00     0.025 C 
BRANCH  14  15
HETATM   15  C11 UNL     1      33.111  13.305   5.112  1.00  0.00     0.150 C 
BRANCH  15  16
HETATM   16  N7  UNL     1      31.729  12.960   5.273  1.00  0.00    -0.287 N 
HETATM   17  C12 UNL     1      30.959  13.342   6.299  1.00  0.00     0.201 A 
HETATM   18  N8  UNL     1      29.725  12.827   6.132  1.00  0.00    -0.346 N 
HETATM   19  C13 UNL     1      29.753  12.125   4.990  1.00  0.00     0.198 A 
ATOM     20  H8  UNL     1      28.925  12.947   6.753  1.00  0.00     0.167 HD
HETATM   21  N9  UNL     1      30.974  12.225   4.496  1.00  0.00    -0.293 N 
ATOM     22  H9  UNL     1      31.287  11.789   3.628  1.00  0.00     0.188 HD
ENDBRANCH  15  16
ENDBRANCH  14  15
ENDBRANCH  13  14
ENDBRANCH  12  13
ENDBRANCH  11  12
ENDBRANCH  10  11
ENDBRANCH   6  10
BRANCH   5  23
HETATM   23  N6  UNL     1      29.913  14.824   9.613  1.00  0.00    -0.048 N 
ATOM     24  H63 UNL     1      29.404  14.346  10.357  1.00  0.00     0.276 HD
ATOM     25  H62 UNL     1      29.106  15.311   9.224  1.00  0.00     0.276 HD
ATOM     26  H61 UNL     1      30.384  14.200   8.957  1.00  0.00     0.276 HD
ENDBRANCH   5  23
BRANCH   1  27
HETATM   27  N4  UNL     1      32.129  16.781  13.136  1.00  0.00    -0.305 N 
HETATM   28  C2  UNL     1      31.398  16.738  14.196  1.00  0.00     0.245 A 
HETATM   29  N3  UNL     1      31.365  17.658  15.199  1.00  0.00    -0.262 N 
HETATM   30  O1  UNL     1      30.539  15.830  14.550  1.00  0.00    -0.244 OA
HETATM   31  N2  UNL     1      30.499  17.276  16.111  1.00  0.00    -0.262 N 
ATOM     32  H3  UNL     1      31.925  18.510  15.237  1.00  0.00     0.190 HD
HETATM   33  C1  UNL     1      29.976  16.112  15.692  1.00  0.00     0.239 A 
ATOM     34  H2  UNL     1      30.267  17.770  16.973  1.00  0.00     0.190 HD
HETATM   35  N1  UNL     1      29.084  15.371  16.271  1.00  0.00    -0.364 N 
ATOM     36  H12 UNL     1      28.644  15.592  17.163  1.00  0.00     0.159 HD
ATOM     37  H11 UNL     1      28.687  14.487  15.953  1.00  0.00     0.159 HD
ATOM     38  H4  UNL     1      32.772  17.555  12.967  1.00  0.00     0.166 HD
ENDBRANCH   1  27
TORSDOF 9
ENDMDL
MODEL 2
REMARK VINA RESULT: -7.909189953      0.917      1.081
REMARK  9 active torsions:
REMARK  status: ('A' for Active; 'I' for Inactive)
REMARK    1  A    between atoms: N4_10  and  C3_12 
REMARK    2  A    between atoms: C4_16  and  N6_17 
REMARK    3  A    between atoms: C5_21  and  C6_22 
REMARK    4  A    between atoms: C6_22  and  C7_23 
REMARK    5  A    between atoms: C7_23  and  C8_24 
REMARK    6  A    between atoms: C8_24  and  C9_25 
REMARK    7  A    between atoms: C9_25  and  C10_26 
REMARK    8  A    between atoms: C10_26  and  C11_27 
REMARK    9  A    between atoms: C11_27  and  N7_28 
ROOT
HETATM    1  C3  UNL     1      31.986  15.653  12.127  1.00  0.00     0.491 C 
HETATM    2  N5  UNL     1      30.711  15.831  11.476  1.00  0.00     0.003 N 
ATOM      3  H51 UNL     1      30.254  16.710  11.715  1.00  0.00     0.284 HD
ATOM      4  H52 UNL     1      29.984  15.209  11.833  1.00  0.00     0.284 HD
HETATM    5  C4  UNL     1      30.953  15.674  10.029  1.00  0.00     0.418 C 
HETATM    6  C5  UNL     1      32.241  14.987  10.009  1.00  0.00     0.271 C 
HETATM    7  N10 UNL     1      32.978  15.615  11.100  1.00  0.00    -0.017 N 
ATOM      8 1H10 UNL     1      33.853  15.156  11.355  1.00  0.00     0.282 HD
ATOM      9 2H10 UNL     1      33.408  16.512  10.875  1.00  0.00     0.282 HD
ENDROOT
BRANCH   6  10
HETATM   10  C6  UNL     1      33.038  14.830   8.787  1.00  0.00     0.009 C 
BRANCH  10  11
HETATM   11  C7  UNL     1      34.229  14.024   8.716  1.00  0.00    -0.006 C 
BRANCH  11  12
HETATM   12  C8  UNL     1      35.339  14.115   7.791  1.00  0.00    -0.027 C 
BRANCH  12  13
HETATM   13  C9  UNL     1      35.406  13.329   6.538  1.00  0.00     0.029 C 
BRANCH  13  14
HETATM   14  C10 UNL     1      34.273  12.490   6.112  1.00  0.00     0.025 C 
BRANCH  14  15
HETATM   15  C11 UNL     1      33.338  13.221   5.141  1.00  0.00     0.150 C 
BRANCH  15  16
HETATM   16  N7  UNL     1      32.361  12.330   4.588  1.00  0.00    -0.287 N 
HETATM   17  C12 UNL     1      32.388  10.996   4.703  1.00  0.00     0.201 A 
HETATM   18  N8  UNL     1      31.325  10.482   4.052  1.00  0.00    -0.346 N 
HETATM   19  C13 UNL     1      30.650  11.520   3.538  1.00  0.00     0.198 A 
ATOM     20  H8  UNL     1      31.082   9.496   3.967  1.00  0.00     0.167 HD
HETATM   21  N9  UNL     1      31.299  12.620   3.878  1.00  0.00    -0.293 N 
ATOM     22  H9  UNL     1      31.013  13.565   3.623  1.00  0.00     0.188 HD
ENDBRANCH  15  16
ENDBRANCH  14  15
ENDBRANCH  13  14
ENDBRANCH  12  13
ENDBRANCH  11  12
ENDBRANCH  10  11
ENDBRANCH   6  10
BRANCH   5  23
HETATM   23  N6  UNL     1      29.846  14.804   9.578  1.00  0.00    -0.048 N 
ATOM     24  H63 UNL     1      29.414  14.254  10.320  1.00  0.00     0.276 HD
ATOM     25  H62 UNL     1      29.001  15.306   9.308  1.00  0.00     0.276 HD
ATOM     26  H61 UNL     1      30.263  14.249   8.830  1.00  0.00     0.276 HD
ENDBRANCH   5  23
BRANCH   1  27
HETATM   27  N4  UNL     1      32.149  16.751  13.050  1.00  0.00    -0.305 N 
HETATM   28  C2  UNL     1      31.417  16.750  14.110  1.00  0.00     0.245 A 
HETATM   29  N3  UNL     1      31.416  17.685  15.099  1.00  0.00    -0.262 N 
HETATM   30  O1  UNL     1      30.527  15.877  14.478  1.00  0.00    -0.244 OA
HETATM   31  N2  UNL     1      30.537  17.348  16.017  1.00  0.00    -0.262 N 
ATOM     32  H3  UNL     1      32.006  18.518  15.125  1.00  0.00     0.190 HD
HETATM   33  C1  UNL     1      29.974  16.197  15.615  1.00  0.00     0.239 A 
ATOM     34  H2  UNL     1      30.323  17.863  16.871  1.00  0.00     0.190 HD
HETATM   35  N1  UNL     1      29.056  15.496  16.204  1.00  0.00    -0.364 N 
ATOM     36  H12 UNL     1      28.624  15.746  17.093  1.00  0.00     0.159 HD
ATOM     37  H11 UNL     1      28.628  14.622  15.899  1.00  0.00     0.159 HD
ATOM     38  H4  UNL     1      32.818  17.499  12.870  1.00  0.00     0.166 HD
ENDBRANCH   1  27
TORSDOF 9
ENDMDL
MODEL 3
REMARK VINA RESULT: -7.878762752      2.399      2.885
REMARK  9 active torsions:
REMARK  status: ('A' for Active; 'I' for Inactive)
REMARK    1  A    between atoms: N4_10  and  C3_12 
REMARK    2  A    between atoms: C4_16  and  N6_17 
REMARK    3  A    between atoms: C5_21  and  C6_22 
REMARK    4  A    between atoms: C6_22  and  C7_23 
REMARK    5  A    between atoms: C7_23  and  C8_24 
REMARK    6  A    between atoms: C8_24  and  C9_25 
REMARK    7  A    between atoms: C9_25  and  C10_26 
REMARK    8  A    between atoms: C10_26  and  C11_27 
REMARK    9  A    between atoms: C11_27  and  N7_28 
ROOT
HETATM    1  C3  UNL     1      32.062  15.627  12.146  1.00  0.00     0.491 C 
HETATM    2  N5  UNL     1      30.878  15.821  11.345  1.00  0.00     0.003 N 
ATOM      3  H51 UNL     1      30.426  16.721  11.505  1.00  0.00     0.284 HD
ATOM      4  H52 UNL     1      30.095  15.233  11.632  1.00  0.00     0.284 HD
HETATM    5  C4  UNL     1      31.282  15.612   9.942  1.00  0.00     0.418 C 
HETATM    6  C5  UNL     1      32.540  14.888  10.092  1.00  0.00     0.271 C 
HETATM    7  N10 UNL     1      33.166  15.528  11.243  1.00  0.00    -0.017 N 
ATOM      8 1H10 UNL     1      33.989  15.052  11.611  1.00  0.00     0.282 HD
ATOM      9 2H10 UNL     1      33.648  16.404  11.045  1.00  0.00     0.282 HD
ENDROOT
BRANCH   6  10
HETATM   10  C6  UNL     1      33.467  14.669   8.976  1.00  0.00     0.009 C 
BRANCH  10  11
HETATM   11  C7  UNL     1      33.426  13.506   8.127  1.00  0.00    -0.006 C 
BRANCH  11  12
HETATM   12  C8  UNL     1      32.578  13.239   6.986  1.00  0.00    -0.027 C 
BRANCH  12  13
HETATM   13  C9  UNL     1      31.455  12.274   7.027  1.00  0.00     0.029 C 
BRANCH  13  14
HETATM   14  C10 UNL     1      31.156  11.517   8.255  1.00  0.00     0.025 C 
BRANCH  14  15
HETATM   15  C11 UNL     1      31.089  10.006   8.007  1.00  0.00     0.150 C 
BRANCH  15  16
HETATM   16  N7  UNL     1      29.763   9.502   8.212  1.00  0.00    -0.287 N 
HETATM   17  C12 UNL     1      29.436   8.205   8.268  1.00  0.00     0.201 A 
HETATM   18  N8  UNL     1      28.106   8.099   8.458  1.00  0.00    -0.346 N 
HETATM   19  C13 UNL     1      27.625   9.349   8.516  1.00  0.00     0.198 A 
ATOM     20  H8  UNL     1      27.569   7.237   8.541  1.00  0.00     0.167 HD
HETATM   21  N9  UNL     1      28.649  10.172   8.365  1.00  0.00    -0.293 N 
ATOM     22  H9  UNL     1      28.580  11.190   8.367  1.00  0.00     0.188 HD
ENDBRANCH  15  16
ENDBRANCH  14  15
ENDBRANCH  13  14
ENDBRANCH  12  13
ENDBRANCH  11  12
ENDBRANCH  10  11
ENDBRANCH   6  10
BRANCH   5  23
HETATM   23  N6  UNL     1      30.206  14.761   9.388  1.00  0.00    -0.048 N 
ATOM     24  H63 UNL     1      29.694  15.182   8.613  1.00  0.00     0.276 HD
ATOM     25  H62 UNL     1      30.538  13.948   8.870  1.00  0.00     0.276 HD
ATOM     26  H61 UNL     1      29.632  14.537  10.201  1.00  0.00     0.276 HD
ENDBRANCH   5  23
BRANCH   1  27
HETATM   27  N4  UNL     1      32.154  16.748  13.051  1.00  0.00    -0.305 N 
HETATM   28  C2  UNL     1      31.420  16.719  14.109  1.00  0.00     0.245 A 
HETATM   29  N3  UNL     1      31.357  17.668  15.083  1.00  0.00    -0.262 N 
HETATM   30  O1  UNL     1      30.586  15.798  14.490  1.00  0.00    -0.244 OA
HETATM   31  N2  UNL     1      30.499  17.291  16.004  1.00  0.00    -0.262 N 
ATOM     32  H3  UNL     1      31.893  18.536  15.095  1.00  0.00     0.190 HD
HETATM   33  C1  UNL     1      30.010  16.100  15.621  1.00  0.00     0.239 A 
ATOM     34  H2  UNL     1      30.250  17.805  16.849  1.00  0.00     0.190 HD
HETATM   35  N1  UNL     1      29.137  15.353  16.220  1.00  0.00    -0.364 N 
ATOM     36  H12 UNL     1      28.687  15.589  17.104  1.00  0.00     0.159 HD
ATOM     37  H11 UNL     1      28.766  14.448  15.928  1.00  0.00     0.159 HD
ATOM     38  H4  UNL     1      32.775  17.534  12.859  1.00  0.00     0.166 HD
ENDBRANCH   1  27
TORSDOF 9
ENDMDL
MODEL 4
REMARK VINA RESULT: -7.769776058      1.049      1.118
REMARK  9 active torsions:
REMARK  status: ('A' for Active; 'I' for Inactive)
REMARK    1  A    between atoms: N4_10  and  C3_12 
REMARK    2  A    between atoms: C4_16  and  N6_17 
REMARK    3  A    between atoms: C5_21  and  C6_22 
REMARK    4  A    between atoms: C6_22  and  C7_23 
REMARK    5  A    between atoms: C7_23  and  C8_24 
REMARK    6  A    between atoms: C8_24  and  C9_25 
REMARK    7  A    between atoms: C9_25  and  C10_26 
REMARK    8  A    between atoms: C10_26  and  C11_27 
REMARK    9  A    between atoms: C11_27  and  N7_28 
ROOT
HETATM    1  C3  UNL     1      31.993  15.699  12.208  1.00  0.00     0.491 C 
HETATM    2  N5  UNL     1      30.721  15.859  11.547  1.00  0.00     0.003 N 
ATOM      3  H51 UNL     1      30.243  16.725  11.796  1.00  0.00     0.284 HD
ATOM      4  H52 UNL     1      30.005  15.217  11.888  1.00  0.00     0.284 HD
HETATM    5  C4  UNL     1      30.981  15.730  10.101  1.00  0.00     0.418 C 
HETATM    6  C5  UNL     1      32.283  15.071  10.083  1.00  0.00     0.271 C 
HETATM    7  N10 UNL     1      32.996  15.698  11.190  1.00  0.00    -0.017 N 
ATOM      8 1H10 UNL     1      33.878  15.254  11.448  1.00  0.00     0.282 HD
ATOM      9 2H10 UNL     1      33.409  16.607  10.984  1.00  0.00     0.282 HD
ENDROOT
BRANCH   6  10
HETATM   10  C6  UNL     1      33.095  14.950   8.867  1.00  0.00     0.009 C 
BRANCH  10  11
HETATM   11  C7  UNL     1      34.228  14.068   8.755  1.00  0.00    -0.006 C 
BRANCH  11  12
HETATM   12  C8  UNL     1      35.037  13.765   7.593  1.00  0.00    -0.027 C 
BRANCH  12  13
HETATM   13  C9  UNL     1      34.728  12.652   6.667  1.00  0.00     0.029 C 
BRANCH  13  14
HETATM   14  C10 UNL     1      33.368  12.475   6.129  1.00  0.00     0.025 C 
BRANCH  14  15
HETATM   15  C11 UNL     1      33.034  11.002   5.860  1.00  0.00     0.150 C 
BRANCH  15  16
HETATM   16  N7  UNL     1      31.618  10.790   5.803  1.00  0.00    -0.287 N 
HETATM   17  C12 UNL     1      30.695  11.665   6.222  1.00  0.00     0.201 A 
HETATM   18  N8  UNL     1      29.472  11.132   6.031  1.00  0.00    -0.346 N 
HETATM   19  C13 UNL     1      29.661   9.920   5.489  1.00  0.00     0.198 A 
ATOM     20  H8  UNL     1      28.577  11.565   6.254  1.00  0.00     0.167 HD
HETATM   21  N9  UNL     1      30.965   9.744   5.364  1.00  0.00    -0.293 N 
ATOM     22  H9  UNL     1      31.403   8.907   4.978  1.00  0.00     0.188 HD
ENDBRANCH  15  16
ENDBRANCH  14  15
ENDBRANCH  13  14
ENDBRANCH  12  13
ENDBRANCH  11  12
ENDBRANCH  10  11
ENDBRANCH   6  10
BRANCH   5  23
HETATM   23  N6  UNL     1      29.897  14.843   9.626  1.00  0.00    -0.048 N 
ATOM     24  H63 UNL     1      29.021  15.323   9.417  1.00  0.00     0.276 HD
ATOM     25  H62 UNL     1      30.041  14.469   8.688  1.00  0.00     0.276 HD
ATOM     26  H61 UNL     1      29.825  14.134  10.355  1.00  0.00     0.276 HD
ENDBRANCH   5  23
BRANCH   1  27
HETATM   27  N4  UNL     1      32.124  16.786  13.150  1.00  0.00    -0.305 N 
HETATM   28  C2  UNL     1      31.394  16.745  14.210  1.00  0.00     0.245 A 
HETATM   29  N3  UNL     1      31.365  17.663  15.215  1.00  0.00    -0.262 N 
HETATM   30  O1  UNL     1      30.531  15.839  14.563  1.00  0.00    -0.244 OA
HETATM   31  N2  UNL     1      30.498  17.284  16.127  1.00  0.00    -0.262 N 
ATOM     32  H3  UNL     1      31.929  18.512  15.253  1.00  0.00     0.190 HD
HETATM   33  C1  UNL     1      29.970  16.122  15.707  1.00  0.00     0.239 A 
ATOM     34  H2  UNL     1      30.269  17.777  16.990  1.00  0.00     0.190 HD
HETATM   35  N1  UNL     1      29.074  15.385  16.284  1.00  0.00    -0.364 N 
ATOM     36  H12 UNL     1      28.636  15.606  17.177  1.00  0.00     0.159 HD
ATOM     37  H11 UNL     1      28.673  14.503  15.965  1.00  0.00     0.159 HD
ATOM     38  H4  UNL     1      32.770  17.557  12.982  1.00  0.00     0.166 HD
ENDBRANCH   1  27
TORSDOF 9
ENDMDL
MODEL 5
REMARK VINA RESULT: -7.644667313      4.405      7.055
REMARK  9 active torsions:
REMARK  status: ('A' for Active; 'I' for Inactive)
REMARK    1  A    between atoms: N4_10  and  C3_12 
REMARK    2  A    between atoms: C4_16  and  N6_17 
REMARK    3  A    between atoms: C5_21  and  C6_22 
REMARK    4  A    between atoms: C6_22  and  C7_23 
REMARK    5  A    between atoms: C7_23  and  C8_24 
REMARK    6  A    between atoms: C8_24  and  C9_25 
REMARK    7  A    between atoms: C9_25  and  C10_26 
REMARK    8  A    between atoms: C10_26  and  C11_27 
REMARK    9  A    between atoms: C11_27  and  N7_28 
ROOT
HETATM    1  C3  UNL     1      29.904  10.244   6.961  1.00  0.00     0.491 C 
HETATM    2  N5  UNL     1      29.262  11.040   5.944  1.00  0.00     0.003 N 
ATOM      3  H51 UNL     1      28.506  11.622   6.304  1.00  0.00     0.284 HD
ATOM      4  H52 UNL     1      28.699  10.489   5.295  1.00  0.00     0.284 HD
HETATM    5  C4  UNL     1      30.329  11.812   5.280  1.00  0.00     0.418 C 
HETATM    6  C5  UNL     1      31.526  11.072   5.665  1.00  0.00     0.271 C 
HETATM    7  N10 UNL     1      31.260  10.690   7.047  1.00  0.00    -0.017 N 
ATOM      8 1H10 UNL     1      31.914  10.019   7.448  1.00  0.00     0.282 HD
ATOM      9 2H10 UNL     1      31.436  11.416   7.741  1.00  0.00     0.282 HD
ENDROOT
BRANCH   6  10
HETATM   10  C6  UNL     1      32.882  11.593   5.460  1.00  0.00     0.009 C 
BRANCH  10  11
HETATM   11  C7  UNL     1      33.695  12.125   6.523  1.00  0.00    -0.006 C 
BRANCH  11  12
HETATM   12  C8  UNL     1      34.667  13.197   6.480  1.00  0.00    -0.027 C 
BRANCH  12  13
HETATM   13  C9  UNL     1      35.088  13.949   7.684  1.00  0.00     0.029 C 
BRANCH  13  14
HETATM   14  C10 UNL     1      34.227  14.003   8.878  1.00  0.00     0.025 C 
BRANCH  14  15
HETATM   15  C11 UNL     1      33.305  15.229   8.877  1.00  0.00     0.150 C 
BRANCH  15  16
HETATM   16  N7  UNL     1      31.971  14.878   8.486  1.00  0.00    -0.287 N 
HETATM   17  C12 UNL     1      31.301  13.806   8.928  1.00  0.00     0.201 A 
HETATM   18  N8  UNL     1      30.086  13.782   8.343  1.00  0.00    -0.346 N 
HETATM   19  C13 UNL     1      30.026  14.852   7.538  1.00  0.00     0.198 A 
ATOM     20  H8  UNL     1      29.356  13.085   8.484  1.00  0.00     0.167 HD
HETATM   21  N9  UNL     1      31.177  15.493   7.647  1.00  0.00    -0.293 N 
ATOM     22  H9  UNL     1      31.414  16.350   7.146  1.00  0.00     0.188 HD
ENDBRANCH  15  16
ENDBRANCH  14  15
ENDBRANCH  13  14
ENDBRANCH  12  13
ENDBRANCH  11  12
ENDBRANCH  10  11
ENDBRANCH   6  10
BRANCH   5  23
HETATM   23  N6  UNL     1      30.022  11.673   3.840  1.00  0.00    -0.048 N 
ATOM     24  H63 UNL     1      29.969  10.708   3.512  1.00  0.00     0.276 HD
ATOM     25  H62 UNL     1      29.066  11.925   3.588  1.00  0.00     0.276 HD
ATOM     26  H61 UNL     1      30.740  12.234   3.383  1.00  0.00     0.276 HD
ENDBRANCH   5  23
BRANCH   1  27
HETATM   27  N4  UNL     1      29.155  10.428   8.182  1.00  0.00    -0.305 N 
HETATM   28  C2  UNL     1      27.909  10.104   8.169  1.00  0.00     0.245 A 
HETATM   29  N3  UNL     1      27.032  10.199   9.206  1.00  0.00    -0.262 N 
HETATM   30  O1  UNL     1      27.209   9.623   7.185  1.00  0.00    -0.244 OA
HETATM   31  N2  UNL     1      25.849   9.777   8.816  1.00  0.00    -0.262 N 
ATOM     32  H3  UNL     1      27.258  10.544  10.139  1.00  0.00     0.190 HD
HETATM   33  C1  UNL     1      25.968   9.412   7.529  1.00  0.00     0.239 A 
ATOM     34  H2  UNL     1      25.003   9.735   9.384  1.00  0.00     0.190 HD
HETATM   35  N1  UNL     1      25.060   8.937   6.736  1.00  0.00    -0.364 N 
ATOM     36  H12 UNL     1      24.090   8.771   7.005  1.00  0.00     0.159 HD
ATOM     37  H11 UNL     1      25.150   8.659   5.758  1.00  0.00     0.159 HD
ATOM     38  H4  UNL     1      29.596  10.799   9.023  1.00  0.00     0.166 HD
ENDBRANCH   1  27
TORSDOF 9
ENDMDL
