MODEL 1
REMARK VINA RESULT: -7.158789496      0.000      0.000
REMARK  8 active torsions:
REMARK  status: ('A' for Active; 'I' for Inactive)
REMARK    1  A    between atoms: N1_1  and  C1_4 
REMARK    2  A    between atoms: N2_8  and  C4_9 
REMARK    3  A    between atoms: C5_10  and  C6_11 
REMARK    4  A    between atoms: C6_11  and  O2_13 
REMARK    5  A    between atoms: O2_13  and  C7_14 
REMARK    6  A    between atoms: C9_16  and  C10_17 
REMARK    7  A    between atoms: C10_17  and  C11_18 
REMARK    8  A    between atoms: C11_18  and  O3_19 
ROOT
HETATM    1  C6  UNL     1      12.705  -3.593  20.600  1.00  0.00     0.286 C 
HETATM    2  O1  UNL     1      12.280  -4.577  21.300  1.00  0.00    -0.260 OA
ENDROOT
BRANCH   1   3
HETATM    3  C5  UNL     1      13.552  -2.620  21.255  1.00  0.00     0.100 C 
HETATM    4  C4  UNL     1      13.071  -1.600  21.913  1.00  0.00     0.104 C 
BRANCH   4   5
HETATM    5  N2  UNL     1      13.891  -0.609  22.583  1.00  0.00    -0.313 N 
HETATM    6  C1  UNL     1      14.051  -0.659  23.912  1.00  0.00     0.148 A 
HETATM    7  S1  UNL     1      15.076   0.662  24.238  1.00  0.00    -0.064 SA
HETATM    8  C2  UNL     1      15.263   1.229  22.643  1.00  0.00     0.071 A 
HETATM    9  C3  UNL     1      14.499   0.338  21.930  1.00  0.00     0.105 A 
BRANCH   6  10
HETATM   10  N1  UNL     1      13.559  -1.497  24.766  1.00  0.00    -0.379 N 
ATOM     11  H12 UNL     1      13.949  -1.823  25.650  1.00  0.00     0.158 HD
ATOM     12  H11 UNL     1      12.669  -1.990  24.702  1.00  0.00     0.158 HD
ENDBRANCH   6  10
ENDBRANCH   4   5
ENDBRANCH   1   3
BRANCH   1  13
HETATM   13  O2  UNL     1      12.298  -3.584  19.293  1.00  0.00    -0.286 OA
BRANCH  13  14
HETATM   14  C7  UNL     1      11.391  -2.641  18.801  1.00  0.00     0.275 C 
HETATM   15  C8  UNL     1      10.466  -3.151  17.752  1.00  0.00     0.070 C 
HETATM   16  C9  UNL     1       9.337  -2.196  17.528  1.00  0.00     0.016 C 
HETATM   17  C12 UNL     1       9.865  -0.810  17.567  1.00  0.00     0.002 C 
HETATM   18  C13 UNL     1      11.086  -0.475  17.920  1.00  0.00     0.134 C 
HETATM   19  O4  UNL     1      12.021  -1.453  18.303  1.00  0.00    -0.332 OA
BRANCH  16  20
HETATM   20  C10 UNL     1       8.614  -2.377  16.209  1.00  0.00     0.034 C 
BRANCH  20  21
HETATM   21  C11 UNL     1       8.747  -1.196  15.318  1.00  0.00     0.164 C 
BRANCH  21  22
HETATM   22  O3  UNL     1       9.315  -1.493  14.115  1.00  0.00    -0.401 OA
ATOM     23  H3  UNL     1       8.762  -2.033  13.564  1.00  0.00     0.209 HD
ENDBRANCH  21  22
ENDBRANCH  20  21
ENDBRANCH  16  20
ENDBRANCH  13  14
ENDBRANCH   1  13
TORSDOF 8
ENDMDL
MODEL 2
REMARK VINA RESULT: -7.072503858      2.180      3.221
REMARK  8 active torsions:
REMARK  status: ('A' for Active; 'I' for Inactive)
REMARK    1  A    between atoms: N1_1  and  C1_4 
REMARK    2  A    between atoms: N2_8  and  C4_9 
REMARK    3  A    between atoms: C5_10  and  C6_11 
REMARK    4  A    between atoms: C6_11  and  O2_13 
REMARK    5  A    between atoms: O2_13  and  C7_14 
REMARK    6  A    between atoms: C9_16  and  C10_17 
REMARK    7  A    between atoms: C10_17  and  C11_18 
REMARK    8  A    between atoms: C11_18  and  O3_19 
ROOT
HETATM    1  C6  UNL     1      11.181  -1.303  18.326  1.00  0.00     0.286 C 
HETATM    2  O1  UNL     1      12.040  -1.293  17.377  1.00  0.00    -0.260 OA
ENDROOT
BRANCH   1   3
HETATM    3  C5  UNL     1      11.644  -0.963  19.654  1.00  0.00     0.100 C 
HETATM    4  C4  UNL     1      12.664  -1.554  20.215  1.00  0.00     0.104 C 
BRANCH   4   5
HETATM    5  N2  UNL     1      13.156  -1.234  21.541  1.00  0.00    -0.313 N 
HETATM    6  C1  UNL     1      12.877  -2.043  22.572  1.00  0.00     0.148 A 
HETATM    7  S1  UNL     1      13.652  -1.288  23.888  1.00  0.00    -0.064 SA
HETATM    8  C2  UNL     1      14.310   0.044  23.057  1.00  0.00     0.071 A 
HETATM    9  C3  UNL     1      13.880  -0.178  21.771  1.00  0.00     0.105 A 
BRANCH   6  10
HETATM   10  N1  UNL     1      12.189  -3.137  22.593  1.00  0.00    -0.379 N 
ATOM     11  H12 UNL     1      12.451  -4.072  22.279  1.00  0.00     0.158 HD
ATOM     12  H11 UNL     1      11.237  -3.261  22.937  1.00  0.00     0.158 HD
ENDBRANCH   6  10
ENDBRANCH   4   5
ENDBRANCH   1   3
BRANCH   1  13
HETATM   13  O2  UNL     1       9.906  -1.641  17.960  1.00  0.00    -0.286 OA
BRANCH  13  14
HETATM   14  C7  UNL     1       9.640  -2.492  16.883  1.00  0.00     0.275 C 
HETATM   15  C8  UNL     1       8.820  -1.888  15.796  1.00  0.00     0.070 C 
HETATM   16  C9  UNL     1       8.866  -2.733  14.564  1.00  0.00     0.016 C 
HETATM   17  C12 UNL     1       8.800  -4.162  14.958  1.00  0.00     0.002 C 
HETATM   18  C13 UNL     1       8.872  -4.612  16.191  1.00  0.00     0.134 C 
HETATM   19  O4  UNL     1       9.025  -3.727  17.274  1.00  0.00    -0.332 OA
BRANCH  16  20
HETATM   20  C10 UNL     1       7.741  -2.474  13.582  1.00  0.00     0.034 C 
BRANCH  20  21
HETATM   21  C11 UNL     1       6.482  -3.166  13.960  1.00  0.00     0.164 C 
BRANCH  21  22
HETATM   22  O3  UNL     1       5.406  -2.763  13.225  1.00  0.00    -0.401 OA
ATOM     23  H3  UNL     1       4.623  -2.639  13.746  1.00  0.00     0.209 HD
ENDBRANCH  21  22
ENDBRANCH  20  21
ENDBRANCH  16  20
ENDBRANCH  13  14
ENDBRANCH   1  13
TORSDOF 8
ENDMDL
MODEL 3
REMARK VINA RESULT: -7.065527353      3.121      4.155
REMARK  8 active torsions:
REMARK  status: ('A' for Active; 'I' for Inactive)
REMARK    1  A    between atoms: N1_1  and  C1_4 
REMARK    2  A    between atoms: N2_8  and  C4_9 
REMARK    3  A    between atoms: C5_10  and  C6_11 
REMARK    4  A    between atoms: C6_11  and  O2_13 
REMARK    5  A    between atoms: O2_13  and  C7_14 
REMARK    6  A    between atoms: C9_16  and  C10_17 
REMARK    7  A    between atoms: C10_17  and  C11_18 
REMARK    8  A    between atoms: C11_18  and  O3_19 
ROOT
HETATM    1  C6  UNL     1      10.235  -5.754  17.923  1.00  0.00     0.286 C 
HETATM    2  O1  UNL     1       9.789  -6.872  18.360  1.00  0.00    -0.260 OA
ENDROOT
BRANCH   1   3
HETATM    3  C5  UNL     1      10.441  -4.693  18.884  1.00  0.00     0.100 C 
HETATM    4  C4  UNL     1      11.580  -4.064  19.002  1.00  0.00     0.104 C 
BRANCH   4   5
HETATM    5  N2  UNL     1      11.818  -2.994  19.952  1.00  0.00    -0.313 N 
HETATM    6  C1  UNL     1      12.295  -3.274  21.171  1.00  0.00     0.148 A 
HETATM    7  S1  UNL     1      12.421  -1.744  21.909  1.00  0.00    -0.064 SA
HETATM    8  C2  UNL     1      11.856  -0.797  20.612  1.00  0.00     0.071 A 
HETATM    9  C3  UNL     1      11.594  -1.747  19.655  1.00  0.00     0.105 A 
BRANCH   6  10
HETATM   10  N1  UNL     1      12.596  -4.420  21.691  1.00  0.00    -0.379 N 
ATOM     11  H12 UNL     1      11.989  -5.106  22.138  1.00  0.00     0.158 HD
ATOM     12  H11 UNL     1      13.519  -4.849  21.745  1.00  0.00     0.158 HD
ENDBRANCH   6  10
ENDBRANCH   4   5
ENDBRANCH   1   3
BRANCH   1  13
HETATM   13  O2  UNL     1      10.465  -5.701  16.575  1.00  0.00    -0.286 OA
BRANCH  13  14
HETATM   14  C7  UNL     1       9.607  -5.032  15.697  1.00  0.00     0.275 C 
HETATM   15  C8  UNL     1       9.747  -3.550  15.694  1.00  0.00     0.070 C 
HETATM   16  C9  UNL     1       9.048  -2.953  14.515  1.00  0.00     0.016 C 
HETATM   17  C12 UNL     1       7.764  -3.666  14.304  1.00  0.00     0.002 C 
HETATM   18  C13 UNL     1       7.391  -4.757  14.937  1.00  0.00     0.134 C 
HETATM   19  O4  UNL     1       8.224  -5.351  15.903  1.00  0.00    -0.332 OA
BRANCH  16  20
HETATM   20  C10 UNL     1       8.738  -1.476  14.650  1.00  0.00     0.034 C 
BRANCH  20  21
HETATM   21  C11 UNL     1       8.718  -1.024  16.065  1.00  0.00     0.164 C 
BRANCH  21  22
HETATM   22  O3  UNL     1       7.466  -1.000  16.603  1.00  0.00    -0.401 OA
ATOM     23  H3  UNL     1       6.905  -0.338  16.217  1.00  0.00     0.209 HD
ENDBRANCH  21  22
ENDBRANCH  20  21
ENDBRANCH  16  20
ENDBRANCH  13  14
ENDBRANCH   1  13
TORSDOF 8
ENDMDL
MODEL 4
REMARK VINA RESULT: -7.023856375      1.438      2.030
REMARK  8 active torsions:
REMARK  status: ('A' for Active; 'I' for Inactive)
REMARK    1  A    between atoms: N1_1  and  C1_4 
REMARK    2  A    between atoms: N2_8  and  C4_9 
REMARK    3  A    between atoms: C5_10  and  C6_11 
REMARK    4  A    between atoms: C6_11  and  O2_13 
REMARK    5  A    between atoms: O2_13  and  C7_14 
REMARK    6  A    between atoms: C9_16  and  C10_17 
REMARK    7  A    between atoms: C10_17  and  C11_18 
REMARK    8  A    between atoms: C11_18  and  O3_19 
ROOT
HETATM    1  C6  UNL     1      10.696  -4.432  20.627  1.00  0.00     0.286 C 
HETATM    2  O1  UNL     1      10.435  -5.610  21.054  1.00  0.00    -0.260 OA
ENDROOT
BRANCH   1   3
HETATM    3  C5  UNL     1      11.246  -3.483  21.569  1.00  0.00     0.100 C 
HETATM    4  C4  UNL     1      12.499  -3.116  21.545  1.00  0.00     0.104 C 
BRANCH   4   5
HETATM    5  N2  UNL     1      13.081  -2.164  22.472  1.00  0.00    -0.313 N 
HETATM    6  C1  UNL     1      13.978  -1.269  22.037  1.00  0.00     0.148 A 
HETATM    7  S1  UNL     1      14.362  -0.380  23.439  1.00  0.00    -0.064 SA
HETATM    8  C2  UNL     1      13.346  -1.196  24.535  1.00  0.00     0.071 A 
HETATM    9  C3  UNL     1      12.752  -2.137  23.730  1.00  0.00     0.105 A 
BRANCH   6  10
HETATM   10  N1  UNL     1      14.456  -1.097  20.848  1.00  0.00    -0.379 N 
ATOM     11  H12 UNL     1      15.183  -0.458  20.529  1.00  0.00     0.158 HD
ATOM     12  H11 UNL     1      14.180  -1.586  19.996  1.00  0.00     0.158 HD
ENDBRANCH   6  10
ENDBRANCH   4   5
ENDBRANCH   1   3
BRANCH   1  13
HETATM   13  O2  UNL     1      10.415  -4.213  19.305  1.00  0.00    -0.286 OA
BRANCH  13  14
HETATM   14  C7  UNL     1      10.398  -2.931  18.748  1.00  0.00     0.275 C 
HETATM   15  C8  UNL     1       9.304  -2.690  17.767  1.00  0.00     0.070 C 
HETATM   16  C9  UNL     1       9.159  -1.229  17.481  1.00  0.00     0.016 C 
HETATM   17  C12 UNL     1      10.510  -0.622  17.385  1.00  0.00     0.002 C 
HETATM   18  C13 UNL     1      11.637  -1.231  17.682  1.00  0.00     0.134 C 
HETATM   19  O4  UNL     1      11.640  -2.564  18.133  1.00  0.00    -0.332 OA
BRANCH  16  20
HETATM   20  C10 UNL     1       8.419  -0.911  16.199  1.00  0.00     0.034 C 
BRANCH  20  21
HETATM   21  C11 UNL     1       8.648  -1.927  15.139  1.00  0.00     0.164 C 
BRANCH  21  22
HETATM   22  O3  UNL     1       9.292  -1.427  14.046  1.00  0.00    -0.401 OA
ATOM     23  H3  UNL     1       8.711  -1.267  13.311  1.00  0.00     0.209 HD
ENDBRANCH  21  22
ENDBRANCH  20  21
ENDBRANCH  16  20
ENDBRANCH  13  14
ENDBRANCH   1  13
TORSDOF 8
ENDMDL
MODEL 5
REMARK VINA RESULT: -7.022816610      3.032      3.720
REMARK  8 active torsions:
REMARK  status: ('A' for Active; 'I' for Inactive)
REMARK    1  A    between atoms: N1_1  and  C1_4 
REMARK    2  A    between atoms: N2_8  and  C4_9 
REMARK    3  A    between atoms: C5_10  and  C6_11 
REMARK    4  A    between atoms: C6_11  and  O2_13 
REMARK    5  A    between atoms: O2_13  and  C7_14 
REMARK    6  A    between atoms: C9_16  and  C10_17 
REMARK    7  A    between atoms: C10_17  and  C11_18 
REMARK    8  A    between atoms: C11_18  and  O3_19 
ROOT
HETATM    1  C6  UNL     1      10.160  -5.860  19.271  1.00  0.00     0.286 C 
HETATM    2  O1  UNL     1      10.234  -6.890  20.028  1.00  0.00    -0.260 OA
ENDROOT
BRANCH   1   3
HETATM    3  C5  UNL     1      10.564  -4.587  19.828  1.00  0.00     0.100 C 
HETATM    4  C4  UNL     1      11.772  -4.112  19.691  1.00  0.00     0.104 C 
BRANCH   4   5
HETATM    5  N2  UNL     1      12.208  -2.839  20.233  1.00  0.00    -0.313 N 
HETATM    6  C1  UNL     1      13.335  -2.769  20.953  1.00  0.00     0.148 A 
HETATM    7  S1  UNL     1      13.444  -1.117  21.356  1.00  0.00    -0.064 SA
HETATM    8  C2  UNL     1      12.030  -0.578  20.576  1.00  0.00     0.071 A 
HETATM    9  C3  UNL     1      11.540  -1.741  20.033  1.00  0.00     0.105 A 
BRANCH   6  10
HETATM   10  N1  UNL     1      14.160  -3.709  21.279  1.00  0.00    -0.379 N 
ATOM     11  H12 UNL     1      15.048  -3.647  21.776  1.00  0.00     0.158 HD
ATOM     12  H11 UNL     1      14.063  -4.707  21.092  1.00  0.00     0.158 HD
ENDBRANCH   6  10
ENDBRANCH   4   5
ENDBRANCH   1   3
BRANCH   1  13
HETATM   13  O2  UNL     1       9.698  -6.095  18.004  1.00  0.00    -0.286 OA
BRANCH  13  14
HETATM   14  C7  UNL     1       9.510  -5.068  17.075  1.00  0.00     0.275 C 
HETATM   15  C8  UNL     1       8.377  -5.276  16.133  1.00  0.00     0.070 C 
HETATM   16  C9  UNL     1       8.045  -4.009  15.412  1.00  0.00     0.016 C 
HETATM   17  C12 UNL     1       9.307  -3.315  15.053  1.00  0.00     0.002 C 
HETATM   18  C13 UNL     1      10.506  -3.666  15.461  1.00  0.00     0.134 C 
HETATM   19  O4  UNL     1      10.685  -4.777  16.306  1.00  0.00    -0.332 OA
BRANCH  16  20
HETATM   20  C10 UNL     1       7.247  -4.201  14.138  1.00  0.00     0.034 C 
BRANCH  20  21
HETATM   21  C11 UNL     1       6.792  -2.915  13.549  1.00  0.00     0.164 C 
BRANCH  21  22
HETATM   22  O3  UNL     1       5.446  -2.871  13.333  1.00  0.00    -0.401 OA
ATOM     23  H3  UNL     1       5.202  -2.301  12.614  1.00  0.00     0.209 HD
ENDBRANCH  21  22
ENDBRANCH  20  21
ENDBRANCH  16  20
ENDBRANCH  13  14
ENDBRANCH   1  13
TORSDOF 8
ENDMDL
