MODEL 1
REMARK VINA RESULT: -7.059169403      0.000      0.000
REMARK  5 active torsions:
REMARK  status: ('A' for Active; 'I' for Inactive)
REMARK    1  A    between atoms: C2_2  and  N1_3 
REMARK    2  A    between atoms: C3_4  and  S1_5 
REMARK    3  A    between atoms: S1_5  and  C4_6 
REMARK    4  A    between atoms: C4_6  and  C5_7 
REMARK       I    between atoms: C5_7  and  N2_9 
REMARK    5  A    between atoms: N2_9  and  N3_11 
ROOT
HETATM    1  N3  UNL     1      12.199  -1.122  20.837  1.00  0.00    -0.292 N 
ATOM      2  H3  UNL     1      11.889  -0.151  20.868  1.00  0.00     0.187 HD
HETATM    3  C6  UNL     1      13.350  -1.087  21.231  1.00  0.00     0.101 C 
HETATM    4  C7  UNL     1      14.196  -2.317  21.349  1.00  0.00     0.082 C 
HETATM    5  C8  UNL     1      13.986   0.158  21.615  1.00  0.00     0.114 C 
HETATM    6  N4  UNL     1      14.479   1.165  21.934  1.00  0.00    -0.190 NA
ENDROOT
BRANCH   1   7
HETATM    7  N2  UNL     1      11.156  -1.784  20.390  1.00  0.00    -0.269 N 
HETATM    8  C5  UNL     1      11.007  -2.296  19.047  1.00  0.00     0.245 C 
HETATM    9  O1  UNL     1      11.955  -2.098  18.248  1.00  0.00    -0.271 OA
ATOM     10  H2  UNL     1      10.391  -1.949  21.044  1.00  0.00     0.190 HD
BRANCH   8  11
HETATM   11  C4  UNL     1       9.793  -3.011  18.652  1.00  0.00     0.186 C 
BRANCH  11  12
HETATM   12  S1  UNL     1       9.929  -4.009  17.173  1.00  0.00    -0.083 SA
BRANCH  12  13
HETATM   13  C3  UNL     1       9.275  -3.128  15.769  1.00  0.00     0.164 A 
HETATM   14  N1  UNL     1       8.204  -3.504  15.011  1.00  0.00    -0.302 N 
HETATM   15  C9  UNL     1       8.085  -2.583  14.071  1.00  0.00     0.195 A 
HETATM   16  N6  UNL     1       9.040  -1.638  14.208  1.00  0.00    -0.274 N 
HETATM   17  S2  UNL     1       6.901  -2.635  12.918  1.00  0.00    -0.039 SA
HETATM   18  N5  UNL     1       9.756  -1.984  15.246  1.00  0.00    -0.277 N 
ATOM     19  H6  UNL     1       9.175  -0.818  13.618  1.00  0.00     0.189 HD
ATOM     20  H5  UNL     1      10.559  -1.465  15.604  1.00  0.00     0.189 HD
BRANCH  14  21
HETATM   21  C2  UNL     1       7.421  -4.673  15.290  1.00  0.00     0.129 C 
HETATM   22  C1  UNL     1       7.835  -5.907  14.573  1.00  0.00     0.027 C 
ENDBRANCH  14  21
ENDBRANCH  12  13
ENDBRANCH  11  12
ENDBRANCH   8  11
ENDBRANCH   1   7
TORSDOF 5
ENDMDL
MODEL 2
REMARK VINA RESULT: -6.970387819      2.357      2.906
REMARK  5 active torsions:
REMARK  status: ('A' for Active; 'I' for Inactive)
REMARK    1  A    between atoms: C2_2  and  N1_3 
REMARK    2  A    between atoms: C3_4  and  S1_5 
REMARK    3  A    between atoms: S1_5  and  C4_6 
REMARK    4  A    between atoms: C4_6  and  C5_7 
REMARK       I    between atoms: C5_7  and  N2_9 
REMARK    5  A    between atoms: N2_9  and  N3_11 
ROOT
HETATM    1  N3  UNL     1      14.469  -1.515  21.114  1.00  0.00    -0.292 N 
ATOM      2  H3  UNL     1      14.952  -1.310  20.239  1.00  0.00     0.187 HD
HETATM    3  C6  UNL     1      14.754  -0.582  21.842  1.00  0.00     0.101 C 
HETATM    4  C7  UNL     1      14.244  -0.475  23.247  1.00  0.00     0.082 C 
HETATM    5  C8  UNL     1      15.614   0.498  21.398  1.00  0.00     0.114 C 
HETATM    6  N4  UNL     1      16.295   1.366  21.021  1.00  0.00    -0.190 NA
ENDROOT
BRANCH   1   7
HETATM    7  N2  UNL     1      13.853  -2.652  20.890  1.00  0.00    -0.269 N 
HETATM    8  C5  UNL     1      12.435  -2.878  21.056  1.00  0.00     0.245 C 
HETATM    9  O1  UNL     1      11.739  -1.905  21.437  1.00  0.00    -0.271 OA
ATOM     10  H2  UNL     1      14.420  -3.439  20.573  1.00  0.00     0.190 HD
BRANCH   8  11
HETATM   11  C4  UNL     1      11.852  -4.194  20.788  1.00  0.00     0.186 C 
BRANCH  11  12
HETATM   12  S1  UNL     1      11.450  -4.529  19.078  1.00  0.00    -0.083 SA
BRANCH  12  13
HETATM   13  C3  UNL     1      10.446  -3.216  18.410  1.00  0.00     0.164 A 
HETATM   14  N1  UNL     1      10.144  -3.026  17.092  1.00  0.00    -0.302 N 
HETATM   15  C9  UNL     1       9.403  -1.932  17.046  1.00  0.00     0.195 A 
HETATM   16  N6  UNL     1       9.226  -1.425  18.284  1.00  0.00    -0.274 N 
HETATM   17  S2  UNL     1       8.801  -1.323  15.631  1.00  0.00    -0.039 SA
HETATM   18  N5  UNL     1       9.866  -2.218  19.104  1.00  0.00    -0.277 N 
ATOM     19  H6  UNL     1       8.696  -0.590  18.532  1.00  0.00     0.189 HD
ATOM     20  H5  UNL     1       9.919  -2.098  20.116  1.00  0.00     0.189 HD
BRANCH  14  21
HETATM   21  C2  UNL     1      10.576  -3.916  16.054  1.00  0.00     0.129 C 
HETATM   22  C1  UNL     1       9.665  -5.053  15.765  1.00  0.00     0.027 C 
ENDBRANCH  14  21
ENDBRANCH  12  13
ENDBRANCH  11  12
ENDBRANCH   8  11
ENDBRANCH   1   7
TORSDOF 5
ENDMDL
MODEL 3
REMARK VINA RESULT: -6.960427345      1.313      1.396
REMARK  5 active torsions:
REMARK  status: ('A' for Active; 'I' for Inactive)
REMARK    1  A    between atoms: C2_2  and  N1_3 
REMARK    2  A    between atoms: C3_4  and  S1_5 
REMARK    3  A    between atoms: S1_5  and  C4_6 
REMARK    4  A    between atoms: C4_6  and  C5_7 
REMARK       I    between atoms: C5_7  and  N2_9 
REMARK    5  A    between atoms: N2_9  and  N3_11 
ROOT
HETATM    1  N3  UNL     1      11.244  -1.865  20.248  1.00  0.00    -0.292 N 
ATOM      2  H3  UNL     1      11.323  -1.102  19.576  1.00  0.00     0.187 HD
HETATM    3  C6  UNL     1      11.883  -1.487  21.212  1.00  0.00     0.101 C 
HETATM    4  C7  UNL     1      12.029  -2.315  22.453  1.00  0.00     0.082 C 
HETATM    5  C8  UNL     1      12.555  -0.202  21.227  1.00  0.00     0.114 C 
HETATM    6  N4  UNL     1      13.076   0.840  21.228  1.00  0.00    -0.190 NA
ENDROOT
BRANCH   1   7
HETATM    7  N2  UNL     1      10.503  -2.762  19.639  1.00  0.00    -0.269 N 
HETATM    8  C5  UNL     1      10.999  -3.968  19.016  1.00  0.00     0.245 C 
HETATM    9  O1  UNL     1      12.237  -4.176  19.070  1.00  0.00    -0.271 OA
ATOM     10  H2  UNL     1       9.498  -2.595  19.603  1.00  0.00     0.190 HD
BRANCH   8  11
HETATM   11  C4  UNL     1      10.083  -4.897  18.352  1.00  0.00     0.186 C 
BRANCH  11  12
HETATM   12  S1  UNL     1      10.446  -5.248  16.636  1.00  0.00    -0.083 SA
BRANCH  12  13
HETATM   13  C3  UNL     1       9.666  -4.042  15.580  1.00  0.00     0.164 A 
HETATM   14  N1  UNL     1       8.466  -4.185  14.946  1.00  0.00    -0.302 N 
HETATM   15  C9  UNL     1       8.287  -3.071  14.257  1.00  0.00     0.195 A 
HETATM   16  N6  UNL     1       9.328  -2.231  14.434  1.00  0.00    -0.274 N 
HETATM   17  S2  UNL     1       6.943  -2.804  13.330  1.00  0.00    -0.039 SA
HETATM   18  N5  UNL     1      10.159  -2.835  15.241  1.00  0.00    -0.277 N 
ATOM     19  H6  UNL     1       9.443  -1.306  14.019  1.00  0.00     0.189 HD
ATOM     20  H5  UNL     1      11.047  -2.451  15.565  1.00  0.00     0.189 HD
BRANCH  14  21
HETATM   21  C2  UNL     1       7.636  -5.346  15.093  1.00  0.00     0.129 C 
HETATM   22  C1  UNL     1       7.832  -6.406  14.071  1.00  0.00     0.027 C 
ENDBRANCH  14  21
ENDBRANCH  12  13
ENDBRANCH  11  12
ENDBRANCH   8  11
ENDBRANCH   1   7
TORSDOF 5
ENDMDL
MODEL 4
REMARK VINA RESULT: -6.949426906      2.807      3.479
REMARK  5 active torsions:
REMARK  status: ('A' for Active; 'I' for Inactive)
REMARK    1  A    between atoms: C2_2  and  N1_3 
REMARK    2  A    between atoms: C3_4  and  S1_5 
REMARK    3  A    between atoms: S1_5  and  C4_6 
REMARK    4  A    between atoms: C4_6  and  C5_7 
REMARK       I    between atoms: C5_7  and  N2_9 
REMARK    5  A    between atoms: N2_9  and  N3_11 
ROOT
HETATM    1  N3  UNL     1      13.365  -2.077  22.852  1.00  0.00    -0.292 N 
ATOM      2  H3  UNL     1      13.278  -2.509  23.772  1.00  0.00     0.187 HD
HETATM    3  C6  UNL     1      13.836  -0.978  23.077  1.00  0.00     0.101 C 
HETATM    4  C7  UNL     1      14.136   0.005  21.986  1.00  0.00     0.082 C 
HETATM    5  C8  UNL     1      14.139  -0.538  24.425  1.00  0.00     0.114 C 
HETATM    6  N4  UNL     1      14.392  -0.206  25.513  1.00  0.00    -0.190 NA
ENDROOT
BRANCH   1   7
HETATM    7  N2  UNL     1      12.912  -2.986  22.020  1.00  0.00    -0.269 N 
HETATM    8  C5  UNL     1      11.596  -3.581  22.070  1.00  0.00     0.245 C 
HETATM    9  O1  UNL     1      10.822  -3.188  22.979  1.00  0.00    -0.271 OA
ATOM     10  H2  UNL     1      13.540  -3.298  21.279  1.00  0.00     0.190 HD
BRANCH   8  11
HETATM   11  C4  UNL     1      11.198  -4.598  21.096  1.00  0.00     0.186 C 
BRANCH  11  12
HETATM   12  S1  UNL     1      11.614  -4.243  19.393  1.00  0.00    -0.083 SA
BRANCH  12  13
HETATM   13  C3  UNL     1      10.755  -2.784  18.836  1.00  0.00     0.164 A 
HETATM   14  N1  UNL     1       9.896  -2.712  17.777  1.00  0.00    -0.302 N 
HETATM   15  C9  UNL     1       9.512  -1.449  17.710  1.00  0.00     0.195 A 
HETATM   16  N6  UNL     1      10.095  -0.722  18.687  1.00  0.00    -0.274 N 
HETATM   17  S2  UNL     1       8.454  -0.900  16.564  1.00  0.00    -0.039 SA
HETATM   18  N5  UNL     1      10.848  -1.549  19.364  1.00  0.00    -0.277 N 
ATOM     19  H6  UNL     1       9.971   0.275  18.862  1.00  0.00     0.189 HD
ATOM     20  H5  UNL     1      11.420  -1.296  20.170  1.00  0.00     0.189 HD
BRANCH  14  21
HETATM   21  C2  UNL     1       9.535  -3.850  16.983  1.00  0.00     0.129 C 
HETATM   22  C1  UNL     1      10.324  -4.039  15.738  1.00  0.00     0.027 C 
ENDBRANCH  14  21
ENDBRANCH  12  13
ENDBRANCH  11  12
ENDBRANCH   8  11
ENDBRANCH   1   7
TORSDOF 5
ENDMDL
MODEL 5
REMARK VINA RESULT: -6.923123495      2.458      3.184
REMARK  5 active torsions:
REMARK  status: ('A' for Active; 'I' for Inactive)
REMARK    1  A    between atoms: C2_2  and  N1_3 
REMARK    2  A    between atoms: C3_4  and  S1_5 
REMARK    3  A    between atoms: S1_5  and  C4_6 
REMARK    4  A    between atoms: C4_6  and  C5_7 
REMARK       I    between atoms: C5_7  and  N2_9 
REMARK    5  A    between atoms: N2_9  and  N3_11 
ROOT
HETATM    1  N3  UNL     1      13.350  -1.772  23.164  1.00  0.00    -0.292 N 
ATOM      2  H3  UNL     1      13.506  -1.165  22.359  1.00  0.00     0.187 HD
HETATM    3  C6  UNL     1      13.851  -1.172  24.097  1.00  0.00     0.101 C 
HETATM    4  C7  UNL     1      13.845  -1.712  25.495  1.00  0.00     0.082 C 
HETATM    5  C8  UNL     1      14.496   0.114  23.920  1.00  0.00     0.114 C 
HETATM    6  N4  UNL     1      14.998   1.155  23.763  1.00  0.00    -0.190 NA
ENDROOT
BRANCH   1   7
HETATM    7  N2  UNL     1      12.709  -2.808  22.674  1.00  0.00    -0.269 N 
HETATM    8  C5  UNL     1      12.679  -3.185  21.280  1.00  0.00     0.245 C 
HETATM    9  O1  UNL     1      13.325  -2.468  20.476  1.00  0.00    -0.271 OA
ATOM     10  H2  UNL     1      12.192  -3.393  23.330  1.00  0.00     0.190 HD
BRANCH   8  11
HETATM   11  C4  UNL     1      11.921  -4.357  20.839  1.00  0.00     0.186 C 
BRANCH  11  12
HETATM   12  S1  UNL     1      11.668  -4.497  19.074  1.00  0.00    -0.083 SA
BRANCH  12  13
HETATM   13  C3  UNL     1      10.670  -3.145  18.483  1.00  0.00     0.164 A 
HETATM   14  N1  UNL     1      10.285  -2.935  17.190  1.00  0.00    -0.302 N 
HETATM   15  C9  UNL     1       9.583  -1.815  17.200  1.00  0.00     0.195 A 
HETATM   16  N6  UNL     1       9.509  -1.311  18.450  1.00  0.00    -0.274 N 
HETATM   17  S2  UNL     1       8.908  -1.175  15.832  1.00  0.00    -0.039 SA
HETATM   18  N5  UNL     1      10.175  -2.132  19.219  1.00  0.00    -0.277 N 
ATOM     19  H6  UNL     1       9.028  -0.459  18.736  1.00  0.00     0.189 HD
ATOM     20  H5  UNL     1      10.301  -2.021  20.226  1.00  0.00     0.189 HD
BRANCH  14  21
HETATM   21  C2  UNL     1      10.613  -3.832  16.120  1.00  0.00     0.129 C 
HETATM   22  C1  UNL     1       9.621  -4.907  15.859  1.00  0.00     0.027 C 
ENDBRANCH  14  21
ENDBRANCH  12  13
ENDBRANCH  11  12
ENDBRANCH   8  11
ENDBRANCH   1   7
TORSDOF 5
ENDMDL
