MODEL 1
REMARK VINA RESULT: -7.682481722      0.000      0.000
REMARK  9 active torsions:
REMARK  status: ('A' for Active; 'I' for Inactive)
REMARK    1  A    between atoms: O1_2  and  C2_3 
REMARK    2  A    between atoms: C2_3  and  C3_5 
REMARK    3  A    between atoms: C3_5  and  N1_6 
REMARK    4  A    between atoms: C3_5  and  C16_27 
REMARK       I    between atoms: N1_6  and  C4_8 
REMARK    5  A    between atoms: C4_8  and  C5_10 
REMARK    6  A    between atoms: C5_10  and  N2_11 
REMARK    7  A    between atoms: C5_10  and  C10_20 
REMARK    8  A    between atoms: N2_11  and  C6_12 
REMARK    9  A    between atoms: C16_27  and  O5_29 
ROOT
HETATM    1  C5  UNL     1      29.680  41.882  18.614  1.00  0.00     0.293 C 
ENDROOT
BRANCH   1   2
HETATM    2  C4  UNL     1      30.293  41.306  19.935  1.00  0.00     0.262 C 
HETATM    3  N1  UNL     1      31.503  41.814  20.379  1.00  0.00    -0.320 N 
ATOM      4  H1  UNL     1      31.944  42.517  19.788  1.00  0.00     0.169 HD
HETATM    5  O3  UNL     1      29.601  40.452  20.480  1.00  0.00    -0.269 OA
BRANCH   3   6
HETATM    6  C3  UNL     1      32.203  41.459  21.580  1.00  0.00     0.116 C 
BRANCH   6   7
HETATM    7  C2  UNL     1      33.628  41.488  21.310  1.00  0.00     0.308 C 
HETATM    8  O2  UNL     1      34.283  41.923  20.370  1.00  0.00    -0.258 OA
BRANCH   7   9
HETATM    9  O1  UNL     1      34.423  40.946  22.436  1.00  0.00    -0.322 OA
HETATM   10  C1  UNL     1      35.796  41.045  22.330  1.00  0.00     0.213 C 
ENDBRANCH   7   9
ENDBRANCH   6   7
BRANCH   6  11
HETATM   11  C16 UNL     1      31.654  42.001  22.837  1.00  0.00     0.170 C 
HETATM   12  C17 UNL     1      31.246  43.487  22.612  1.00  0.00     0.046 C 
BRANCH  11  13
HETATM   13  O5  UNL     1      30.658  41.284  23.392  1.00  0.00    -0.390 OA
ATOM     14  H5  UNL     1      30.067  41.771  23.953  1.00  0.00     0.210 HD
ENDBRANCH  11  13
ENDBRANCH   6  11
ENDBRANCH   3   6
ENDBRANCH   1   2
BRANCH   1  15
HETATM   15  N2  UNL     1      28.459  42.352  18.898  1.00  0.00    -0.409 NA
BRANCH  15  16
HETATM   16  C6  UNL     1      27.446  42.868  19.217  1.00  0.00     0.190 A 
HETATM   17  C7  UNL     1      26.830  43.957  18.573  1.00  0.00     0.091 A 
HETATM   18  C8  UNL     1      25.717  44.337  19.280  1.00  0.00     0.026 A 
HETATM   19  C9  UNL     1      24.791  45.477  18.985  1.00  0.00     0.070 C 
HETATM   20  N3  UNL     1      25.643  43.515  20.306  1.00  0.00    -0.303 N 
HETATM   21  N4  UNL     1      26.651  42.634  20.299  1.00  0.00    -0.274 N 
ATOM     22  H3  UNL     1      24.911  43.546  21.016  1.00  0.00     0.186 HD
ATOM     23  H4  UNL     1      26.801  41.903  20.994  1.00  0.00     0.189 HD
ENDBRANCH  15  16
ENDBRANCH   1  15
BRANCH   1  24
HETATM   24  C10 UNL     1      29.876  40.758  17.629  1.00  0.00     0.018 A 
HETATM   25  C11 UNL     1      30.829  39.768  17.599  1.00  0.00     0.045 A 
HETATM   26  C12 UNL     1      30.659  39.017  16.471  1.00  0.00     0.050 A 
HETATM   27  C13 UNL     1      31.458  37.823  15.991  1.00  0.00     0.076 C 
HETATM   28  O4  UNL     1      29.640  39.538  15.837  1.00  0.00    -0.320 OA
HETATM   29  C14 UNL     1      29.138  40.577  16.487  1.00  0.00     0.059 A 
HETATM   30  C15 UNL     1      27.955  41.369  15.992  1.00  0.00     0.077 C 
ENDBRANCH   1  24
TORSDOF 9
ENDMDL
MODEL 2
REMARK VINA RESULT: -7.652030518      2.284      5.040
REMARK  9 active torsions:
REMARK  status: ('A' for Active; 'I' for Inactive)
REMARK    1  A    between atoms: O1_2  and  C2_3 
REMARK    2  A    between atoms: C2_3  and  C3_5 
REMARK    3  A    between atoms: C3_5  and  N1_6 
REMARK    4  A    between atoms: C3_5  and  C16_27 
REMARK       I    between atoms: N1_6  and  C4_8 
REMARK    5  A    between atoms: C4_8  and  C5_10 
REMARK    6  A    between atoms: C5_10  and  N2_11 
REMARK    7  A    between atoms: C5_10  and  C10_20 
REMARK    8  A    between atoms: N2_11  and  C6_12 
REMARK    9  A    between atoms: C16_27  and  O5_29 
ROOT
HETATM    1  C5  UNL     1      29.731  40.440  19.242  1.00  0.00     0.293 C 
ENDROOT
BRANCH   1   2
HETATM    2  C4  UNL     1      30.578  40.741  20.525  1.00  0.00     0.262 C 
HETATM    3  N1  UNL     1      31.554  41.723  20.457  1.00  0.00    -0.320 N 
ATOM      4  H1  UNL     1      31.687  42.169  19.550  1.00  0.00     0.169 HD
HETATM    5  O3  UNL     1      30.262  40.075  21.505  1.00  0.00    -0.269 OA
BRANCH   3   6
HETATM    6  C3  UNL     1      32.398  42.181  21.523  1.00  0.00     0.116 C 
BRANCH   6   7
HETATM    7  C2  UNL     1      33.760  41.769  21.244  1.00  0.00     0.308 C 
HETATM    8  O2  UNL     1      34.462  41.855  20.242  1.00  0.00    -0.258 OA
BRANCH   7   9
HETATM    9  O1  UNL     1      34.430  41.201  22.436  1.00  0.00    -0.322 OA
HETATM   10  C1  UNL     1      35.801  41.054  22.366  1.00  0.00     0.213 C 
ENDBRANCH   7   9
ENDBRANCH   6   7
BRANCH   6  11
HETATM   11  C16 UNL     1      32.102  43.524  22.055  1.00  0.00     0.170 C 
HETATM   12  C17 UNL     1      30.867  43.434  23.000  1.00  0.00     0.046 C 
BRANCH  11  13
HETATM   13  O5  UNL     1      33.137  44.158  22.638  1.00  0.00    -0.390 OA
ATOM     14  H5  UNL     1      33.310  43.916  23.540  1.00  0.00     0.210 HD
ENDBRANCH  11  13
ENDBRANCH   6  11
ENDBRANCH   3   6
ENDBRANCH   1   2
BRANCH   1  15
HETATM   15  N2  UNL     1      30.582  40.210  18.234  1.00  0.00    -0.409 NA
BRANCH  15  16
HETATM   16  C6  UNL     1      31.273  39.882  17.335  1.00  0.00     0.190 A 
HETATM   17  C7  UNL     1      31.167  38.688  16.597  1.00  0.00     0.091 A 
HETATM   18  C8  UNL     1      32.195  38.616  15.693  1.00  0.00     0.026 A 
HETATM   19  C9  UNL     1      32.498  37.500  14.739  1.00  0.00     0.070 C 
HETATM   20  N3  UNL     1      32.898  39.718  15.855  1.00  0.00    -0.303 N 
HETATM   21  N4  UNL     1      32.379  40.489  16.819  1.00  0.00    -0.274 N 
ATOM     22  H3  UNL     1      33.730  39.954  15.315  1.00  0.00     0.186 HD
ATOM     23  H4  UNL     1      32.753  41.388  17.120  1.00  0.00     0.189 HD
ENDBRANCH  15  16
ENDBRANCH   1  15
BRANCH   1  24
HETATM   24  C10 UNL     1      28.759  41.590  19.199  1.00  0.00     0.018 A 
HETATM   25  C11 UNL     1      27.667  41.853  19.993  1.00  0.00     0.045 A 
HETATM   26  C12 UNL     1      27.035  42.971  19.528  1.00  0.00     0.050 A 
HETATM   27  C13 UNL     1      25.792  43.653  20.060  1.00  0.00     0.076 C 
HETATM   28  O4  UNL     1      27.718  43.368  18.486  1.00  0.00    -0.320 OA
HETATM   29  C14 UNL     1      28.754  42.579  18.249  1.00  0.00     0.059 A 
HETATM   30  C15 UNL     1      29.720  42.801  17.112  1.00  0.00     0.077 C 
ENDBRANCH   1  24
TORSDOF 9
ENDMDL
MODEL 3
REMARK VINA RESULT: -7.473028696      2.738      5.505
REMARK  9 active torsions:
REMARK  status: ('A' for Active; 'I' for Inactive)
REMARK    1  A    between atoms: O1_2  and  C2_3 
REMARK    2  A    between atoms: C2_3  and  C3_5 
REMARK    3  A    between atoms: C3_5  and  N1_6 
REMARK    4  A    between atoms: C3_5  and  C16_27 
REMARK       I    between atoms: N1_6  and  C4_8 
REMARK    5  A    between atoms: C4_8  and  C5_10 
REMARK    6  A    between atoms: C5_10  and  N2_11 
REMARK    7  A    between atoms: C5_10  and  C10_20 
REMARK    8  A    between atoms: N2_11  and  C6_12 
REMARK    9  A    between atoms: C16_27  and  O5_29 
ROOT
HETATM    1  C5  UNL     1      31.044  40.303  19.293  1.00  0.00     0.293 C 
ENDROOT
BRANCH   1   2
HETATM    2  C4  UNL     1      31.966  41.365  19.984  1.00  0.00     0.262 C 
HETATM    3  N1  UNL     1      33.045  40.918  20.730  1.00  0.00    -0.320 N 
ATOM      4  H1  UNL     1      33.151  39.907  20.814  1.00  0.00     0.169 HD
HETATM    5  O3  UNL     1      31.646  42.528  19.764  1.00  0.00    -0.269 OA
BRANCH   3   6
HETATM    6  C3  UNL     1      34.030  41.720  21.397  1.00  0.00     0.116 C 
BRANCH   6   7
HETATM    7  C2  UNL     1      33.347  42.714  22.203  1.00  0.00     0.308 C 
HETATM    8  O2  UNL     1      33.349  43.940  22.181  1.00  0.00    -0.258 OA
BRANCH   7   9
HETATM    9  O1  UNL     1      32.426  42.102  23.186  1.00  0.00    -0.322 OA
HETATM   10  C1  UNL     1      31.169  42.664  23.293  1.00  0.00     0.213 C 
ENDBRANCH   7   9
ENDBRANCH   6   7
BRANCH   6  11
HETATM   11  C16 UNL     1      35.212  41.004  21.910  1.00  0.00     0.170 C 
HETATM   12  C17 UNL     1      36.405  42.000  22.009  1.00  0.00     0.046 C 
BRANCH  11  13
HETATM   13  O5  UNL     1      35.026  40.325  23.058  1.00  0.00    -0.390 OA
ATOM     14  H5  UNL     1      35.649  39.628  23.226  1.00  0.00     0.210 HD
ENDBRANCH  11  13
ENDBRANCH   6  11
ENDBRANCH   3   6
ENDBRANCH   1   2
BRANCH   1  15
HETATM   15  N2  UNL     1      31.423  40.201  18.013  1.00  0.00    -0.409 NA
BRANCH  15  16
HETATM   16  C6  UNL     1      31.721  39.978  16.893  1.00  0.00     0.190 A 
HETATM   17  C7  UNL     1      31.307  38.872  16.128  1.00  0.00     0.091 A 
HETATM   18  C8  UNL     1      31.923  38.905  14.903  1.00  0.00     0.026 A 
HETATM   19  C9  UNL     1      31.812  37.903  13.794  1.00  0.00     0.070 C 
HETATM   20  N3  UNL     1      32.674  39.987  14.906  1.00  0.00    -0.303 N 
HETATM   21  N4  UNL     1      32.578  40.644  16.068  1.00  0.00    -0.274 N 
ATOM     22  H3  UNL     1      33.255  40.285  14.123  1.00  0.00     0.186 HD
ATOM     23  H4  UNL     1      33.068  41.507  16.301  1.00  0.00     0.189 HD
ENDBRANCH  15  16
ENDBRANCH   1  15
BRANCH   1  24
HETATM   24  C10 UNL     1      29.658  40.764  19.664  1.00  0.00     0.018 A 
HETATM   25  C11 UNL     1      28.796  41.598  18.991  1.00  0.00     0.045 A 
HETATM   26  C12 UNL     1      27.679  41.794  19.753  1.00  0.00     0.050 A 
HETATM   27  C13 UNL     1      26.454  42.632  19.449  1.00  0.00     0.076 C 
HETATM   28  O4  UNL     1      27.861  41.108  20.851  1.00  0.00    -0.320 OA
HETATM   29  C14 UNL     1      29.025  40.476  20.845  1.00  0.00     0.059 A 
HETATM   30  C15 UNL     1      29.497  39.604  21.982  1.00  0.00     0.077 C 
ENDBRANCH   1  24
TORSDOF 9
ENDMDL
MODEL 4
REMARK VINA RESULT: -7.467537541      2.547      5.409
REMARK  9 active torsions:
REMARK  status: ('A' for Active; 'I' for Inactive)
REMARK    1  A    between atoms: O1_2  and  C2_3 
REMARK    2  A    between atoms: C2_3  and  C3_5 
REMARK    3  A    between atoms: C3_5  and  N1_6 
REMARK    4  A    between atoms: C3_5  and  C16_27 
REMARK       I    between atoms: N1_6  and  C4_8 
REMARK    5  A    between atoms: C4_8  and  C5_10 
REMARK    6  A    between atoms: C5_10  and  N2_11 
REMARK    7  A    between atoms: C5_10  and  C10_20 
REMARK    8  A    between atoms: N2_11  and  C6_12 
REMARK    9  A    between atoms: C16_27  and  O5_29 
ROOT
HETATM    1  C5  UNL     1      30.336  40.357  19.146  1.00  0.00     0.293 C 
ENDROOT
BRANCH   1   2
HETATM    2  C4  UNL     1      31.318  40.828  20.272  1.00  0.00     0.262 C 
HETATM    3  N1  UNL     1      32.391  41.632  19.921  1.00  0.00    -0.320 N 
ATOM      4  H1  UNL     1      32.496  41.839  18.928  1.00  0.00     0.169 HD
HETATM    5  O3  UNL     1      31.012  40.449  21.398  1.00  0.00    -0.269 OA
BRANCH   3   6
HETATM    6  C3  UNL     1      33.369  42.205  20.800  1.00  0.00     0.116 C 
BRANCH   6   7
HETATM    7  C2  UNL     1      32.769  43.332  21.488  1.00  0.00     0.308 C 
HETATM    8  O2  UNL     1      32.550  44.489  21.147  1.00  0.00    -0.258 OA
BRANCH   7   9
HETATM    9  O1  UNL     1      32.273  42.966  22.834  1.00  0.00    -0.322 OA
HETATM   10  C1  UNL     1      30.987  43.359  23.149  1.00  0.00     0.213 C 
ENDBRANCH   7   9
ENDBRANCH   6   7
BRANCH   6  11
HETATM   11  C16 UNL     1      34.239  41.251  21.513  1.00  0.00     0.170 C 
HETATM   12  C17 UNL     1      35.698  41.794  21.509  1.00  0.00     0.046 C 
BRANCH  11  13
HETATM   13  O5  UNL     1      33.832  40.909  22.751  1.00  0.00    -0.390 OA
ATOM     14  H5  UNL     1      34.509  40.901  23.417  1.00  0.00     0.210 HD
ENDBRANCH  11  13
ENDBRANCH   6  11
ENDBRANCH   3   6
ENDBRANCH   1   2
BRANCH   1  15
HETATM   15  N2  UNL     1      31.062  40.096  18.052  1.00  0.00    -0.409 NA
BRANCH  15  16
HETATM   16  C6  UNL     1      31.628  39.750  17.075  1.00  0.00     0.190 A 
HETATM   17  C7  UNL     1      31.431  38.539  16.386  1.00  0.00     0.091 A 
HETATM   18  C8  UNL     1      32.327  38.450  15.351  1.00  0.00     0.026 A 
HETATM   19  C9  UNL     1      32.506  37.313  14.391  1.00  0.00     0.070 C 
HETATM   20  N3  UNL     1      33.037  39.558  15.391  1.00  0.00    -0.303 N 
HETATM   21  N4  UNL     1      32.649  40.349  16.399  1.00  0.00    -0.274 N 
ATOM     22  H3  UNL     1      33.786  39.785  14.738  1.00  0.00     0.186 HD
ATOM     23  H4  UNL     1      33.054  41.257  16.626  1.00  0.00     0.189 HD
ENDBRANCH  15  16
ENDBRANCH   1  15
BRANCH   1  24
HETATM   24  C10 UNL     1      29.279  41.431  19.146  1.00  0.00     0.018 A 
HETATM   25  C11 UNL     1      28.201  41.608  19.981  1.00  0.00     0.045 A 
HETATM   26  C12 UNL     1      27.470  42.677  19.547  1.00  0.00     0.050 A 
HETATM   27  C13 UNL     1      26.200  43.262  20.129  1.00  0.00     0.076 C 
HETATM   28  O4  UNL     1      28.081  43.128  18.482  1.00  0.00    -0.320 OA
HETATM   29  C14 UNL     1      29.165  42.420  18.203  1.00  0.00     0.059 A 
HETATM   30  C15 UNL     1      30.067  42.717  17.032  1.00  0.00     0.077 C 
ENDBRANCH   1  24
TORSDOF 9
ENDMDL
MODEL 5
REMARK VINA RESULT: -7.364302888      2.331      5.055
REMARK  9 active torsions:
REMARK  status: ('A' for Active; 'I' for Inactive)
REMARK    1  A    between atoms: O1_2  and  C2_3 
REMARK    2  A    between atoms: C2_3  and  C3_5 
REMARK    3  A    between atoms: C3_5  and  N1_6 
REMARK    4  A    between atoms: C3_5  and  C16_27 
REMARK       I    between atoms: N1_6  and  C4_8 
REMARK    5  A    between atoms: C4_8  and  C5_10 
REMARK    6  A    between atoms: C5_10  and  N2_11 
REMARK    7  A    between atoms: C5_10  and  C10_20 
REMARK    8  A    between atoms: N2_11  and  C6_12 
REMARK    9  A    between atoms: C16_27  and  O5_29 
ROOT
HETATM    1  C5  UNL     1      29.317  41.162  18.435  1.00  0.00     0.293 C 
ENDROOT
BRANCH   1   2
HETATM    2  C4  UNL     1      30.152  41.601  19.685  1.00  0.00     0.262 C 
HETATM    3  N1  UNL     1      30.710  40.618  20.486  1.00  0.00    -0.320 N 
ATOM      4  H1  UNL     1      30.507  39.652  20.227  1.00  0.00     0.169 HD
HETATM    5  O3  UNL     1      30.257  42.815  19.820  1.00  0.00    -0.269 OA
BRANCH   3   6
HETATM    6  C3  UNL     1      31.542  40.808  21.640  1.00  0.00     0.116 C 
BRANCH   6   7
HETATM    7  C2  UNL     1      32.904  41.034  21.196  1.00  0.00     0.308 C 
HETATM    8  O2  UNL     1      33.375  41.411  20.128  1.00  0.00    -0.258 OA
BRANCH   7   9
HETATM    9  O1  UNL     1      33.889  40.829  22.282  1.00  0.00    -0.322 OA
HETATM   10  C1  UNL     1      35.186  41.230  22.027  1.00  0.00     0.213 C 
ENDBRANCH   7   9
ENDBRANCH   6   7
BRANCH   6  11
HETATM   11  C16 UNL     1      30.958  41.599  22.739  1.00  0.00     0.170 C 
HETATM   12  C17 UNL     1      29.853  40.754  23.440  1.00  0.00     0.046 C 
BRANCH  11  13
HETATM   13  O5  UNL     1      31.840  42.106  23.621  1.00  0.00    -0.390 OA
ATOM     14  H5  UNL     1      31.812  43.049  23.731  1.00  0.00     0.210 HD
ENDBRANCH  11  13
ENDBRANCH   6  11
ENDBRANCH   3   6
ENDBRANCH   1   2
BRANCH   1  15
HETATM   15  N2  UNL     1      30.132  40.493  17.611  1.00  0.00    -0.409 NA
BRANCH  15  16
HETATM   16  C6  UNL     1      30.954  39.978  16.938  1.00  0.00     0.190 A 
HETATM   17  C7  UNL     1      30.819  38.759  16.247  1.00  0.00     0.091 A 
HETATM   18  C8  UNL     1      32.009  38.439  15.646  1.00  0.00     0.026 A 
HETATM   19  C9  UNL     1      32.331  37.210  14.850  1.00  0.00     0.070 C 
HETATM   20  N3  UNL     1      32.838  39.418  15.941  1.00  0.00    -0.303 N 
HETATM   21  N4  UNL     1      32.246  40.345  16.704  1.00  0.00    -0.274 N 
ATOM     22  H3  UNL     1      33.808  39.465  15.628  1.00  0.00     0.186 HD
ATOM     23  H4  UNL     1      32.691  41.192  17.056  1.00  0.00     0.189 HD
ENDBRANCH  15  16
ENDBRANCH   1  15
BRANCH   1  24
HETATM   24  C10 UNL     1      28.649  42.443  18.006  1.00  0.00     0.018 A 
HETATM   25  C11 UNL     1      29.036  43.367  17.064  1.00  0.00     0.045 A 
HETATM   26  C12 UNL     1      28.157  44.412  17.075  1.00  0.00     0.050 A 
HETATM   27  C13 UNL     1      28.160  45.668  16.229  1.00  0.00     0.076 C 
HETATM   28  O4  UNL     1      27.271  44.133  17.996  1.00  0.00    -0.320 OA
HETATM   29  C14 UNL     1      27.520  42.970  18.578  1.00  0.00     0.059 A 
HETATM   30  C15 UNL     1      26.658  42.392  19.672  1.00  0.00     0.077 C 
ENDBRANCH   1  24
TORSDOF 9
ENDMDL
