MODEL 1
REMARK VINA RESULT: -8.492803432      0.000      0.000
REMARK  9 active torsions:
REMARK  status: ('A' for Active; 'I' for Inactive)
REMARK    1  A    between atoms: N1_2  and  C2_4 
REMARK    2  A    between atoms: C2_4  and  C3_8 
REMARK    3  A    between atoms: C3_8  and  N3_9 
REMARK    4  A    between atoms: C3_8  and  C13_28 
REMARK       I    between atoms: N3_9  and  C4_11 
REMARK    5  A    between atoms: C4_11  and  C5_13 
REMARK    6  A    between atoms: C5_13  and  N4_14 
REMARK    7  A    between atoms: C5_13  and  C6_18 
REMARK    8  A    between atoms: C6_18  and  C7_19 
REMARK    9  A    between atoms: C11_23  and  N5_24 
ROOT
HETATM    1  N3  UNL     1       4.361   4.266   6.917  1.00  0.00    -0.347 N 
ATOM      2  H3  UNL     1       3.945   4.991   6.331  1.00  0.00     0.163 HD
HETATM    3  C4  UNL     1       4.534   4.475   8.308  1.00  0.00     0.249 C 
HETATM    4  O1  UNL     1       5.050   3.574   9.039  1.00  0.00    -0.271 OA
ENDROOT
BRANCH   3   5
HETATM    5  C5  UNL     1       4.126   5.740   8.982  1.00  0.00     0.278 C 
BRANCH   5   6
HETATM    6  N4  UNL     1       4.557   6.887   8.213  1.00  0.00    -0.066 N 
ATOM      7  H43 UNL     1       5.226   6.627   7.487  1.00  0.00     0.275 HD
ATOM      8  H42 UNL     1       3.813   7.243   7.613  1.00  0.00     0.275 HD
ATOM      9  H41 UNL     1       4.928   7.612   8.827  1.00  0.00     0.275 HD
ENDBRANCH   5   6
BRANCH   5  10
HETATM   10  C6  UNL     1       2.603   5.754   8.991  1.00  0.00     0.081 C 
BRANCH  10  11
HETATM   11  C7  UNL     1       2.055   5.991  10.326  1.00  0.00    -0.053 A 
HETATM   12  C8  UNL     1       1.003   6.861  10.490  1.00  0.00     0.007 A 
HETATM   13  C9  UNL     1       0.455   7.112  11.742  1.00  0.00     0.003 A 
HETATM   14  C10 UNL     1       0.972   6.475  12.861  1.00  0.00     0.036 A 
HETATM   15  C11 UNL     1       2.020   5.608  12.695  1.00  0.00     0.103 A 
HETATM   16  C12 UNL     1       2.562   5.363  11.442  1.00  0.00     0.043 A 
BRANCH  15  17
HETATM   17  N5  UNL     1       2.562   4.947  13.836  1.00  0.00    -0.116 N 
HETATM   18  O2  UNL     1       2.547   5.494  14.961  1.00  0.00    -0.532 OA
HETATM   19  O3  UNL     1       3.110   3.710  13.741  1.00  0.00    -0.532 OA
ENDBRANCH  15  17
ENDBRANCH  10  11
ENDBRANCH   5  10
ENDBRANCH   3   5
BRANCH   1  20
HETATM   20  C3  UNL     1       4.781   3.014   6.344  1.00  0.00     0.154 C 
BRANCH  20  21
HETATM   21  C2  UNL     1       5.802   3.189   5.284  1.00  0.00     0.093 C 
HETATM   22  N2  UNL     1       6.320   4.354   5.062  1.00  0.00    -0.387 N 
ATOM     23  H22 UNL     1       7.023   4.475   4.332  1.00  0.00     0.157 HD
ATOM     24  H21 UNL     1       5.986   5.116   5.652  1.00  0.00     0.157 HD
BRANCH  21  25
HETATM   25  N1  UNL     1       6.264   2.134   4.467  1.00  0.00    -0.383 N 
HETATM   26  C1  UNL     1       6.044   2.195   3.046  1.00  0.00     0.147 C 
ATOM     27  H1  UNL     1       6.749   1.337   4.879  1.00  0.00     0.160 HD
ENDBRANCH  21  25
ENDBRANCH  20  21
BRANCH  20  28
HETATM   28  C13 UNL     1       3.568   2.262   5.840  1.00  0.00     0.007 C 
HETATM   29  C14 UNL     1       2.713   3.190   5.003  1.00  0.00     0.012 C 
HETATM   30  C15 UNL     1       2.739   1.671   6.946  1.00  0.00     0.012 C 
ENDBRANCH  20  28
ENDBRANCH   1  20
TORSDOF 9
ENDMDL
MODEL 2
REMARK VINA RESULT: -8.487099849      1.161      1.404
REMARK  9 active torsions:
REMARK  status: ('A' for Active; 'I' for Inactive)
REMARK    1  A    between atoms: N1_2  and  C2_4 
REMARK    2  A    between atoms: C2_4  and  C3_8 
REMARK    3  A    between atoms: C3_8  and  N3_9 
REMARK    4  A    between atoms: C3_8  and  C13_28 
REMARK       I    between atoms: N3_9  and  C4_11 
REMARK    5  A    between atoms: C4_11  and  C5_13 
REMARK    6  A    between atoms: C5_13  and  N4_14 
REMARK    7  A    between atoms: C5_13  and  C6_18 
REMARK    8  A    between atoms: C6_18  and  C7_19 
REMARK    9  A    between atoms: C11_23  and  N5_24 
ROOT
HETATM    1  N3  UNL     1       4.506   3.942   6.936  1.00  0.00    -0.347 N 
ATOM      2  H3  UNL     1       5.021   4.821   6.998  1.00  0.00     0.163 HD
HETATM    3  C4  UNL     1       3.812   3.433   8.063  1.00  0.00     0.249 C 
HETATM    4  O1  UNL     1       3.171   2.340   7.989  1.00  0.00    -0.271 OA
ENDROOT
BRANCH   3   5
HETATM    5  C5  UNL     1       3.794   4.139   9.375  1.00  0.00     0.278 C 
BRANCH   5   6
HETATM    6  N4  UNL     1       5.105   4.670   9.684  1.00  0.00    -0.066 N 
ATOM      7  H43 UNL     1       5.079   5.302  10.484  1.00  0.00     0.275 HD
ATOM      8  H42 UNL     1       5.721   3.956  10.073  1.00  0.00     0.275 HD
ATOM      9  H41 UNL     1       5.513   5.117   8.863  1.00  0.00     0.275 HD
ENDBRANCH   5   6
BRANCH   5  10
HETATM   10  C6  UNL     1       2.857   5.328   9.213  1.00  0.00     0.081 C 
BRANCH  10  11
HETATM   11  C7  UNL     1       2.226   5.718  10.475  1.00  0.00    -0.053 A 
HETATM   12  C8  UNL     1       1.214   6.647  10.476  1.00  0.00     0.007 A 
HETATM   13  C9  UNL     1       0.591   7.043  11.653  1.00  0.00     0.003 A 
HETATM   14  C10 UNL     1       0.989   6.493  12.863  1.00  0.00     0.036 A 
HETATM   15  C11 UNL     1       1.999   5.565  12.859  1.00  0.00     0.103 A 
HETATM   16  C12 UNL     1       2.616   5.176  11.679  1.00  0.00     0.043 A 
BRANCH  15  17
HETATM   17  N5  UNL     1       2.420   4.991  14.094  1.00  0.00    -0.116 N 
HETATM   18  O2  UNL     1       2.154   5.548  15.182  1.00  0.00    -0.532 OA
HETATM   19  O3  UNL     1       3.119   3.830  14.132  1.00  0.00    -0.532 OA
ENDBRANCH  15  17
ENDBRANCH  10  11
ENDBRANCH   5  10
ENDBRANCH   3   5
BRANCH   1  20
HETATM   20  C3  UNL     1       4.473   3.197   5.705  1.00  0.00     0.154 C 
BRANCH  20  21
HETATM   21  C2  UNL     1       5.807   2.679   5.318  1.00  0.00     0.093 C 
HETATM   22  N2  UNL     1       6.882   3.251   5.756  1.00  0.00    -0.387 N 
ATOM     23  H22 UNL     1       7.800   2.895   5.490  1.00  0.00     0.157 HD
ATOM     24  H21 UNL     1       6.747   4.058   6.367  1.00  0.00     0.157 HD
BRANCH  21  25
HETATM   25  N1  UNL     1       5.993   1.563   4.473  1.00  0.00    -0.383 N 
HETATM   26  C1  UNL     1       6.644   1.744   3.202  1.00  0.00     0.147 C 
ATOM     27  H1  UNL     1       5.670   0.639   4.759  1.00  0.00     0.160 HD
ENDBRANCH  21  25
ENDBRANCH  20  21
BRANCH  20  28
HETATM   28  C13 UNL     1       3.866   4.057   4.617  1.00  0.00     0.007 C 
HETATM   29  C14 UNL     1       3.150   5.233   5.246  1.00  0.00     0.012 C 
HETATM   30  C15 UNL     1       2.916   3.302   3.730  1.00  0.00     0.012 C 
ENDBRANCH  20  28
ENDBRANCH   1  20
TORSDOF 9
ENDMDL
MODEL 3
REMARK VINA RESULT: -8.360484038      1.399      2.254
REMARK  9 active torsions:
REMARK  status: ('A' for Active; 'I' for Inactive)
REMARK    1  A    between atoms: N1_2  and  C2_4 
REMARK    2  A    between atoms: C2_4  and  C3_8 
REMARK    3  A    between atoms: C3_8  and  N3_9 
REMARK    4  A    between atoms: C3_8  and  C13_28 
REMARK       I    between atoms: N3_9  and  C4_11 
REMARK    5  A    between atoms: C4_11  and  C5_13 
REMARK    6  A    between atoms: C5_13  and  N4_14 
REMARK    7  A    between atoms: C5_13  and  C6_18 
REMARK    8  A    between atoms: C6_18  and  C7_19 
REMARK    9  A    between atoms: C11_23  and  N5_24 
ROOT
HETATM    1  N3  UNL     1       4.908   4.048   7.338  1.00  0.00    -0.347 N 
ATOM      2  H3  UNL     1       5.078   3.424   8.128  1.00  0.00     0.163 HD
HETATM    3  C4  UNL     1       4.350   5.335   7.544  1.00  0.00     0.249 C 
HETATM    4  O1  UNL     1       4.138   6.113   6.563  1.00  0.00    -0.271 OA
ENDROOT
BRANCH   3   5
HETATM    5  C5  UNL     1       3.987   5.840   8.898  1.00  0.00     0.278 C 
BRANCH   5   6
HETATM    6  N4  UNL     1       4.335   7.238   9.028  1.00  0.00    -0.066 N 
ATOM      7  H43 UNL     1       4.639   7.638   8.140  1.00  0.00     0.275 HD
ATOM      8  H42 UNL     1       3.512   7.821   9.184  1.00  0.00     0.275 HD
ATOM      9  H41 UNL     1       5.034   7.368   9.760  1.00  0.00     0.275 HD
ENDBRANCH   5   6
BRANCH   5  10
HETATM   10  C6  UNL     1       2.471   5.744   9.004  1.00  0.00     0.081 C 
BRANCH  10  11
HETATM   11  C7  UNL     1       1.990   5.982  10.364  1.00  0.00    -0.053 A 
HETATM   12  C8  UNL     1       0.953   6.858  10.580  1.00  0.00     0.007 A 
HETATM   13  C9  UNL     1       0.468   7.110  11.858  1.00  0.00     0.003 A 
HETATM   14  C10 UNL     1       1.034   6.469  12.950  1.00  0.00     0.036 A 
HETATM   15  C11 UNL     1       2.068   5.595  12.731  1.00  0.00     0.103 A 
HETATM   16  C12 UNL     1       2.547   5.349  11.453  1.00  0.00     0.043 A 
BRANCH  15  17
HETATM   17  N5  UNL     1       2.661   4.929  13.843  1.00  0.00    -0.116 N 
HETATM   18  O2  UNL     1       2.797   5.512  14.942  1.00  0.00    -0.532 OA
HETATM   19  O3  UNL     1       3.096   3.648  13.749  1.00  0.00    -0.532 OA
ENDBRANCH  15  17
ENDBRANCH  10  11
ENDBRANCH   5  10
ENDBRANCH   3   5
BRANCH   1  20
HETATM   20  C3  UNL     1       5.231   3.637   5.997  1.00  0.00     0.154 C 
BRANCH  20  21
HETATM   21  C2  UNL     1       4.273   2.640   5.463  1.00  0.00     0.093 C 
HETATM   22  N2  UNL     1       3.582   1.901   6.269  1.00  0.00    -0.387 N 
ATOM     23  H22 UNL     1       2.922   1.215   5.902  1.00  0.00     0.157 HD
ATOM     24  H21 UNL     1       3.739   2.051   7.266  1.00  0.00     0.157 HD
BRANCH  21  25
HETATM   25  N1  UNL     1       4.055   2.432   4.083  1.00  0.00    -0.383 N 
HETATM   26  C1  UNL     1       3.000   3.153   3.420  1.00  0.00     0.147 C 
ATOM     27  H1  UNL     1       4.639   1.778   3.561  1.00  0.00     0.160 HD
ENDBRANCH  21  25
ENDBRANCH  20  21
BRANCH  20  28
HETATM   28  C13 UNL     1       6.655   3.126   5.960  1.00  0.00     0.007 C 
HETATM   29  C14 UNL     1       7.444   3.752   7.090  1.00  0.00     0.012 C 
HETATM   30  C15 UNL     1       7.345   3.395   4.651  1.00  0.00     0.012 C 
ENDBRANCH  20  28
ENDBRANCH   1  20
TORSDOF 9
ENDMDL
MODEL 4
REMARK VINA RESULT: -8.297101837      1.734      2.321
REMARK  9 active torsions:
REMARK  status: ('A' for Active; 'I' for Inactive)
REMARK    1  A    between atoms: N1_2  and  C2_4 
REMARK    2  A    between atoms: C2_4  and  C3_8 
REMARK    3  A    between atoms: C3_8  and  N3_9 
REMARK    4  A    between atoms: C3_8  and  C13_28 
REMARK       I    between atoms: N3_9  and  C4_11 
REMARK    5  A    between atoms: C4_11  and  C5_13 
REMARK    6  A    between atoms: C5_13  and  N4_14 
REMARK    7  A    between atoms: C5_13  and  C6_18 
REMARK    8  A    between atoms: C6_18  and  C7_19 
REMARK    9  A    between atoms: C11_23  and  N5_24 
ROOT
HETATM    1  N3  UNL     1       4.278   4.046   6.404  1.00  0.00    -0.347 N 
ATOM      2  H3  UNL     1       5.049   3.468   6.739  1.00  0.00     0.163 HD
HETATM    3  C4  UNL     1       3.361   4.623   7.319  1.00  0.00     0.249 C 
HETATM    4  O1  UNL     1       2.401   5.343   6.906  1.00  0.00    -0.271 OA
ENDROOT
BRANCH   3   5
HETATM    5  C5  UNL     1       3.470   4.422   8.792  1.00  0.00     0.278 C 
BRANCH   5   6
HETATM    6  N4  UNL     1       4.698   3.730   9.120  1.00  0.00    -0.066 N 
ATOM      7  H43 UNL     1       4.542   2.734   9.276  1.00  0.00     0.275 HD
ATOM      8  H42 UNL     1       5.322   3.663   8.316  1.00  0.00     0.275 HD
ATOM      9  H41 UNL     1       5.155   4.171   9.919  1.00  0.00     0.275 HD
ENDBRANCH   5   6
BRANCH   5  10
HETATM   10  C6  UNL     1       3.559   5.810   9.412  1.00  0.00     0.081 C 
BRANCH  10  11
HETATM   11  C7  UNL     1       2.716   5.945  10.600  1.00  0.00    -0.053 A 
HETATM   12  C8  UNL     1       1.550   6.668  10.533  1.00  0.00     0.007 A 
HETATM   13  C9  UNL     1       0.723   6.819  11.640  1.00  0.00     0.003 A 
HETATM   14  C10 UNL     1       1.071   6.230  12.847  1.00  0.00     0.036 A 
HETATM   15  C11 UNL     1       2.235   5.508  12.910  1.00  0.00     0.103 A 
HETATM   16  C12 UNL     1       3.055   5.363  11.801  1.00  0.00     0.043 A 
BRANCH  15  17
HETATM   17  N5  UNL     1       2.606   4.897  14.144  1.00  0.00    -0.116 N 
HETATM   18  O2  UNL     1       2.419   5.485  15.232  1.00  0.00    -0.532 OA
HETATM   19  O3  UNL     1       3.173   3.665  14.179  1.00  0.00    -0.532 OA
ENDBRANCH  15  17
ENDBRANCH  10  11
ENDBRANCH   5  10
ENDBRANCH   3   5
BRANCH   1  20
HETATM   20  C3  UNL     1       4.102   4.290   4.997  1.00  0.00     0.154 C 
BRANCH  20  21
HETATM   21  C2  UNL     1       4.134   3.043   4.196  1.00  0.00     0.093 C 
HETATM   22  N2  UNL     1       3.144   2.739   3.421  1.00  0.00    -0.387 N 
ATOM     23  H22 UNL     1       3.166   1.880   2.870  1.00  0.00     0.157 HD
ATOM     24  H21 UNL     1       2.366   3.399   3.402  1.00  0.00     0.157 HD
BRANCH  21  25
HETATM   25  N1  UNL     1       5.211   2.130   4.222  1.00  0.00    -0.383 N 
HETATM   26  C1  UNL     1       6.102   2.059   3.094  1.00  0.00     0.147 C 
ATOM     27  H1  UNL     1       5.356   1.527   5.032  1.00  0.00     0.160 HD
ENDBRANCH  21  25
ENDBRANCH  20  21
BRANCH  20  28
HETATM   28  C13 UNL     1       5.139   5.288   4.529  1.00  0.00     0.007 C 
HETATM   29  C14 UNL     1       6.320   5.269   5.477  1.00  0.00     0.012 C 
HETATM   30  C15 UNL     1       4.603   6.688   4.417  1.00  0.00     0.012 C 
ENDBRANCH  20  28
ENDBRANCH   1  20
TORSDOF 9
ENDMDL
MODEL 5
REMARK VINA RESULT: -8.239040022      1.521      2.412
REMARK  9 active torsions:
REMARK  status: ('A' for Active; 'I' for Inactive)
REMARK    1  A    between atoms: N1_2  and  C2_4 
REMARK    2  A    between atoms: C2_4  and  C3_8 
REMARK    3  A    between atoms: C3_8  and  N3_9 
REMARK    4  A    between atoms: C3_8  and  C13_28 
REMARK       I    between atoms: N3_9  and  C4_11 
REMARK    5  A    between atoms: C4_11  and  C5_13 
REMARK    6  A    between atoms: C5_13  and  N4_14 
REMARK    7  A    between atoms: C5_13  and  C6_18 
REMARK    8  A    between atoms: C6_18  and  C7_19 
REMARK    9  A    between atoms: C11_23  and  N5_24 
ROOT
HETATM    1  N3  UNL     1       5.092   3.878   7.114  1.00  0.00    -0.347 N 
ATOM      2  H3  UNL     1       5.805   3.573   7.778  1.00  0.00     0.163 HD
HETATM    3  C4  UNL     1       3.838   4.353   7.573  1.00  0.00     0.249 C 
HETATM    4  O1  UNL     1       2.949   4.733   6.749  1.00  0.00    -0.271 OA
ENDROOT
BRANCH   3   5
HETATM    5  C5  UNL     1       3.495   4.433   9.021  1.00  0.00     0.278 C 
BRANCH   5   6
HETATM    6  N4  UNL     1       4.652   4.126   9.834  1.00  0.00    -0.066 N 
ATOM      7  H43 UNL     1       4.565   3.217  10.290  1.00  0.00     0.275 HD
ATOM      8  H42 UNL     1       5.476   3.932   9.264  1.00  0.00     0.275 HD
ATOM      9  H41 UNL     1       4.825   4.871  10.508  1.00  0.00     0.275 HD
ENDBRANCH   5   6
BRANCH   5  10
HETATM   10  C6  UNL     1       3.126   5.884   9.298  1.00  0.00     0.081 C 
BRANCH  10  11
HETATM   11  C7  UNL     1       2.378   6.041  10.545  1.00  0.00    -0.053 A 
HETATM   12  C8  UNL     1       1.230   6.798  10.563  1.00  0.00     0.007 A 
HETATM   13  C9  UNL     1       0.492   6.971  11.728  1.00  0.00     0.003 A 
HETATM   14  C10 UNL     1       0.911   6.370  12.906  1.00  0.00     0.036 A 
HETATM   15  C11 UNL     1       2.055   5.614  12.884  1.00  0.00     0.103 A 
HETATM   16  C12 UNL     1       2.786   5.447  11.718  1.00  0.00     0.043 A 
BRANCH  15  17
HETATM   17  N5  UNL     1       2.498   4.991  14.087  1.00  0.00    -0.116 N 
HETATM   18  O2  UNL     1       2.324   5.543  15.196  1.00  0.00    -0.532 OA
HETATM   19  O3  UNL     1       3.120   3.786  14.070  1.00  0.00    -0.532 OA
ENDBRANCH  15  17
ENDBRANCH  10  11
ENDBRANCH   5  10
ENDBRANCH   3   5
BRANCH   1  20
HETATM   20  C3  UNL     1       5.343   3.832   5.698  1.00  0.00     0.154 C 
BRANCH  20  21
HETATM   21  C2  UNL     1       4.861   2.577   5.075  1.00  0.00     0.093 C 
HETATM   22  N2  UNL     1       5.672   1.585   4.894  1.00  0.00    -0.387 N 
ATOM     23  H22 UNL     1       5.340   0.721   4.465  1.00  0.00     0.157 HD
ATOM     24  H21 UNL     1       6.634   1.726   5.201  1.00  0.00     0.157 HD
BRANCH  21  25
HETATM   25  N1  UNL     1       3.529   2.382   4.650  1.00  0.00    -0.383 N 
HETATM   26  C1  UNL     1       3.019   3.161   3.552  1.00  0.00     0.147 C 
ATOM     27  H1  UNL     1       2.934   1.695   5.114  1.00  0.00     0.160 HD
ENDBRANCH  21  25
ENDBRANCH  20  21
BRANCH  20  28
HETATM   28  C13 UNL     1       6.819   4.057   5.444  1.00  0.00     0.007 C 
HETATM   29  C14 UNL     1       7.534   4.245   6.765  1.00  0.00     0.012 C 
HETATM   30  C15 UNL     1       7.091   5.234   4.549  1.00  0.00     0.012 C 
ENDBRANCH  20  28
ENDBRANCH   1  20
TORSDOF 9
ENDMDL
