MODEL 1
REMARK VINA RESULT: -7.435439198      0.000      0.000
REMARK  8 active torsions:
REMARK  status: ('A' for Active; 'I' for Inactive)
REMARK    1  A    between atoms: N1_1  and  C1_4 
REMARK    2  A    between atoms: C4_9  and  N3_10 
REMARK       I    between atoms: N5_17  and  C7_18 
REMARK    3  A    between atoms: C7_18  and  C8_20 
REMARK    4  A    between atoms: C8_20  and  C9_21 
REMARK    5  A    between atoms: C9_21  and  C10_22 
REMARK    6  A    between atoms: C10_22  and  C11_23 
REMARK    7  A    between atoms: C11_23  and  C12_24 
REMARK    8  A    between atoms: C12_24  and  N6_25 
ROOT
HETATM    1  C1  UNL     1     -10.181 -14.414   8.893  1.00  0.00     0.679 A 
HETATM    2  N2  UNL     1     -10.083 -13.209   9.487  1.00  0.00    -0.170 N 
ATOM      3  H2  UNL     1     -10.700 -12.984  10.268  1.00  0.00     0.186 HD
HETATM    4  C2  UNL     1      -9.200 -12.312   9.075  1.00  0.00     0.169 A 
HETATM    5  C3  UNL     1      -8.333 -12.558   8.020  1.00  0.00     0.039 A 
HETATM    6  C4  UNL     1      -8.433 -13.787   7.415  1.00  0.00     0.125 A 
HETATM    7  N4  UNL     1      -9.358 -14.688   7.867  1.00  0.00    -0.177 N 
ATOM      8  H4  UNL     1      -9.424 -15.598   7.410  1.00  0.00     0.186 HD
HETATM    9  C5  UNL     1      -7.302 -11.733   7.404  1.00  0.00     0.067 C 
HETATM   10  C6  UNL     1      -7.322 -10.297   7.865  1.00  0.00     0.133 C 
HETATM   11  N5  UNL     1      -7.217 -10.122   9.281  1.00  0.00    -0.330 N 
HETATM   12  C7  UNL     1      -5.924  -9.780   9.787  1.00  0.00     0.221 C 
HETATM   13  O1  UNL     1      -5.733  -9.624  11.033  1.00  0.00    -0.273 OA
HETATM   14  C14 UNL     1      -8.287 -10.242  10.250  1.00  0.00     0.305 C 
HETATM   15  O2  UNL     1      -9.236 -11.141   9.792  1.00  0.00    -0.315 OA
ENDROOT
BRANCH  12  16
HETATM   16  C8  UNL     1      -4.802  -9.606   8.845  1.00  0.00     0.103 C 
BRANCH  16  17
HETATM   17  C9  UNL     1      -3.794 -10.718   9.122  1.00  0.00     0.009 C 
BRANCH  17  18
HETATM   18  C10 UNL     1      -2.429 -10.114   9.189  1.00  0.00     0.002 C 
BRANCH  18  19
HETATM   19  C11 UNL     1      -1.760 -10.377  10.508  1.00  0.00     0.022 C 
BRANCH  19  20
HETATM   20  C12 UNL     1      -2.150  -9.327  11.501  1.00  0.00     0.153 C 
BRANCH  20  21
HETATM   21  N6  UNL     1      -2.645  -9.940  12.742  1.00  0.00    -0.250 N 
HETATM   22  N7  UNL     1      -3.829 -10.441  12.998  1.00  0.00    -0.224 N 
HETATM   23  N8  UNL     1      -3.842 -10.893  14.253  1.00  0.00    -0.226 N 
ATOM     24  H7  UNL     1      -4.612 -10.480  12.344  1.00  0.00     0.210 HD
HETATM   25  N9  UNL     1      -2.667 -10.684  14.809  1.00  0.00    -0.259 N 
ATOM     26  H8  UNL     1      -4.639 -11.333  14.712  1.00  0.00     0.210 HD
HETATM   27  C13 UNL     1      -1.915 -10.086  13.862  1.00  0.00     0.210 A 
ATOM     28  H9  UNL     1      -2.384 -10.925  15.759  1.00  0.00     0.191 HD
HETATM   29  S1  UNL     1      -0.360  -9.633  14.103  1.00  0.00    -0.038 SA
ENDBRANCH  20  21
ENDBRANCH  19  20
ENDBRANCH  18  19
ENDBRANCH  17  18
ENDBRANCH  16  17
ENDBRANCH  12  16
BRANCH   6  30
HETATM   30  N3  UNL     1      -7.699 -14.162   6.426  1.00  0.00    -0.384 N 
ATOM     31  H32 UNL     1      -6.979 -13.507   6.117  1.00  0.00     0.157 HD
ATOM     32  H31 UNL     1      -7.802 -15.058   5.950  1.00  0.00     0.157 HD
ENDBRANCH   6  30
BRANCH   1  33
HETATM   33  N1  UNL     1     -11.057 -15.277   9.319  1.00  0.00    -0.234 N 
ATOM     34  H12 UNL     1     -11.926 -14.984   9.765  1.00  0.00     0.174 HD
ATOM     35  H11 UNL     1     -10.882 -16.275   9.207  1.00  0.00     0.174 HD
ENDBRANCH   1  33
TORSDOF 8
ENDMDL
MODEL 2
REMARK VINA RESULT: -7.353288557      1.598      2.085
REMARK  8 active torsions:
REMARK  status: ('A' for Active; 'I' for Inactive)
REMARK    1  A    between atoms: N1_1  and  C1_4 
REMARK    2  A    between atoms: C4_9  and  N3_10 
REMARK       I    between atoms: N5_17  and  C7_18 
REMARK    3  A    between atoms: C7_18  and  C8_20 
REMARK    4  A    between atoms: C8_20  and  C9_21 
REMARK    5  A    between atoms: C9_21  and  C10_22 
REMARK    6  A    between atoms: C10_22  and  C11_23 
REMARK    7  A    between atoms: C11_23  and  C12_24 
REMARK    8  A    between atoms: C12_24  and  N6_25 
ROOT
HETATM    1  C1  UNL     1      -7.344 -15.489   8.529  1.00  0.00     0.679 A 
HETATM    2  N2  UNL     1      -8.292 -14.599   8.881  1.00  0.00    -0.170 N 
ATOM      3  H2  UNL     1      -9.142 -14.927   9.339  1.00  0.00     0.186 HD
HETATM    4  C2  UNL     1      -8.139 -13.306   8.642  1.00  0.00     0.169 A 
HETATM    5  C3  UNL     1      -7.007 -12.796   8.022  1.00  0.00     0.039 A 
HETATM    6  C4  UNL     1      -6.041 -13.704   7.665  1.00  0.00     0.125 A 
HETATM    7  N4  UNL     1      -6.233 -15.033   7.927  1.00  0.00    -0.177 N 
ATOM      8  H4  UNL     1      -5.509 -15.699   7.657  1.00  0.00     0.186 HD
HETATM    9  C5  UNL     1      -6.632 -11.435   7.661  1.00  0.00     0.067 C 
HETATM   10  C6  UNL     1      -7.757 -10.440   7.806  1.00  0.00     0.133 C 
HETATM   11  N5  UNL     1      -8.345 -10.388   9.109  1.00  0.00    -0.330 N 
HETATM   12  C7  UNL     1      -7.915  -9.323   9.960  1.00  0.00     0.221 C 
HETATM   13  O1  UNL     1      -8.370  -9.209  11.141  1.00  0.00    -0.273 OA
HETATM   14  C14 UNL     1      -9.340 -11.294   9.647  1.00  0.00     0.305 C 
HETATM   15  O2  UNL     1      -9.201 -12.542   9.065  1.00  0.00    -0.315 OA
ENDROOT
BRANCH  12  16
HETATM   16  C8  UNL     1      -6.932  -8.346   9.454  1.00  0.00     0.103 C 
BRANCH  16  17
HETATM   17  C9  UNL     1      -5.745  -8.352  10.414  1.00  0.00     0.009 C 
BRANCH  17  18
HETATM   18  C10 UNL     1      -4.796  -9.424   9.988  1.00  0.00     0.002 C 
BRANCH  18  19
HETATM   19  C11 UNL     1      -4.326 -10.254  11.149  1.00  0.00     0.022 C 
BRANCH  19  20
HETATM   20  C12 UNL     1      -3.203  -9.560  11.856  1.00  0.00     0.153 C 
BRANCH  20  21
HETATM   21  N6  UNL     1      -3.002 -10.128  13.197  1.00  0.00    -0.250 N 
HETATM   22  N7  UNL     1      -3.852 -10.781  13.951  1.00  0.00    -0.224 N 
HETATM   23  N8  UNL     1      -3.245 -11.114  15.092  1.00  0.00    -0.226 N 
ATOM     24  H7  UNL     1      -4.818 -11.000  13.706  1.00  0.00     0.210 HD
HETATM   25  N9  UNL     1      -2.003 -10.678  15.075  1.00  0.00    -0.259 N 
ATOM     26  H8  UNL     1      -3.677 -11.629  15.859  1.00  0.00     0.210 HD
HETATM   27  C13 UNL     1      -1.849 -10.058  13.887  1.00  0.00     0.210 A 
ATOM     28  H9  UNL     1      -1.303 -10.785  15.809  1.00  0.00     0.191 HD
HETATM   29  S1  UNL     1      -0.449  -9.351  13.417  1.00  0.00    -0.038 SA
ENDBRANCH  20  21
ENDBRANCH  19  20
ENDBRANCH  18  19
ENDBRANCH  17  18
ENDBRANCH  16  17
ENDBRANCH  12  16
BRANCH   6  30
HETATM   30  N3  UNL     1      -4.936 -13.386   7.085  1.00  0.00    -0.384 N 
ATOM     31  H32 UNL     1      -4.462 -12.552   7.432  1.00  0.00     0.157 HD
ATOM     32  H31 UNL     1      -4.525 -13.914   6.315  1.00  0.00     0.157 HD
ENDBRANCH   6  30
BRANCH   1  33
HETATM   33  N1  UNL     1      -7.520 -16.754   8.777  1.00  0.00    -0.234 N 
ATOM     34  H12 UNL     1      -8.412 -17.118   9.114  1.00  0.00     0.174 HD
ATOM     35  H11 UNL     1      -6.753 -17.411   8.634  1.00  0.00     0.174 HD
ENDBRANCH   1  33
TORSDOF 8
ENDMDL
MODEL 3
REMARK VINA RESULT: -7.287144710      3.739      7.892
REMARK  8 active torsions:
REMARK  status: ('A' for Active; 'I' for Inactive)
REMARK    1  A    between atoms: N1_1  and  C1_4 
REMARK    2  A    between atoms: C4_9  and  N3_10 
REMARK       I    between atoms: N5_17  and  C7_18 
REMARK    3  A    between atoms: C7_18  and  C8_20 
REMARK    4  A    between atoms: C8_20  and  C9_21 
REMARK    5  A    between atoms: C9_21  and  C10_22 
REMARK    6  A    between atoms: C10_22  and  C11_23 
REMARK    7  A    between atoms: C11_23  and  C12_24 
REMARK    8  A    between atoms: C12_24  and  N6_25 
ROOT
HETATM    1  C1  UNL     1      -4.813  -9.216  11.006  1.00  0.00     0.679 A 
HETATM    2  N2  UNL     1      -4.595 -10.060   9.977  1.00  0.00    -0.170 N 
ATOM      3  H2  UNL     1      -3.654 -10.417   9.813  1.00  0.00     0.186 HD
HETATM    4  C2  UNL     1      -5.582 -10.433   9.177  1.00  0.00     0.169 A 
HETATM    5  C3  UNL     1      -6.884  -9.982   9.348  1.00  0.00     0.039 A 
HETATM    6  C4  UNL     1      -7.104  -9.123  10.396  1.00  0.00     0.125 A 
HETATM    7  N4  UNL     1      -6.061  -8.760  11.202  1.00  0.00    -0.177 N 
ATOM      8  H4  UNL     1      -6.236  -8.120  11.978  1.00  0.00     0.186 HD
HETATM    9  C5  UNL     1      -8.105 -10.250   8.600  1.00  0.00     0.067 C 
HETATM   10  C6  UNL     1      -7.871 -10.984   7.303  1.00  0.00     0.133 C 
HETATM   11  N5  UNL     1      -7.172 -12.225   7.436  1.00  0.00    -0.330 N 
HETATM   12  C7  UNL     1      -7.970 -13.411   7.423  1.00  0.00     0.221 C 
HETATM   13  O1  UNL     1      -7.436 -14.556   7.553  1.00  0.00    -0.273 OA
HETATM   14  C14 UNL     1      -5.739 -12.402   7.567  1.00  0.00     0.305 C 
HETATM   15  O2  UNL     1      -5.184 -11.294   8.184  1.00  0.00    -0.315 OA
ENDROOT
BRANCH  12  16
HETATM   16  C8  UNL     1      -9.431 -13.296   7.254  1.00  0.00     0.103 C 
BRANCH  16  17
HETATM   17  C9  UNL     1     -10.086 -14.104   8.370  1.00  0.00     0.009 C 
BRANCH  17  18
HETATM   18  C10 UNL     1     -10.933 -15.168   7.751  1.00  0.00     0.002 C 
BRANCH  18  19
HETATM   19  C11 UNL     1     -10.831 -16.472   8.492  1.00  0.00     0.022 C 
BRANCH  19  20
HETATM   20  C12 UNL     1      -9.857 -16.346   9.623  1.00  0.00     0.153 C 
BRANCH  20  21
HETATM   21  N6  UNL     1      -8.728 -17.269   9.444  1.00  0.00    -0.250 N 
HETATM   22  N7  UNL     1      -7.596 -17.075   8.811  1.00  0.00    -0.224 N 
HETATM   23  N8  UNL     1      -6.859 -18.183   8.899  1.00  0.00    -0.226 N 
ATOM     24  H7  UNL     1      -7.325 -16.217   8.330  1.00  0.00     0.210 HD
HETATM   25  N9  UNL     1      -7.512 -19.094   9.590  1.00  0.00    -0.259 N 
ATOM     26  H8  UNL     1      -5.931 -18.306   8.494  1.00  0.00     0.210 HD
HETATM   27  C13 UNL     1      -8.685 -18.522   9.932  1.00  0.00     0.210 A 
ATOM     28  H9  UNL     1      -7.196 -20.037   9.818  1.00  0.00     0.191 HD
HETATM   29  S1  UNL     1      -9.836 -19.289  10.808  1.00  0.00    -0.038 SA
ENDBRANCH  20  21
ENDBRANCH  19  20
ENDBRANCH  18  19
ENDBRANCH  17  18
ENDBRANCH  16  17
ENDBRANCH  12  16
BRANCH   6  30
HETATM   30  N3  UNL     1      -8.256  -8.622  10.683  1.00  0.00    -0.384 N 
ATOM     31  H32 UNL     1      -9.033  -8.887  10.078  1.00  0.00     0.157 HD
ATOM     32  H31 UNL     1      -8.420  -7.988  11.465  1.00  0.00     0.157 HD
ENDBRANCH   6  30
BRANCH   1  33
HETATM   33  N1  UNL     1      -3.825  -8.868  11.777  1.00  0.00    -0.234 N 
ATOM     34  H12 UNL     1      -3.002  -9.459  11.898  1.00  0.00     0.174 HD
ATOM     35  H11 UNL     1      -3.862  -7.981  12.279  1.00  0.00     0.174 HD
ENDBRANCH   1  33
TORSDOF 8
ENDMDL
MODEL 4
REMARK VINA RESULT: -7.206061810      1.981      2.234
REMARK  8 active torsions:
REMARK  status: ('A' for Active; 'I' for Inactive)
REMARK    1  A    between atoms: N1_1  and  C1_4 
REMARK    2  A    between atoms: C4_9  and  N3_10 
REMARK       I    between atoms: N5_17  and  C7_18 
REMARK    3  A    between atoms: C7_18  and  C8_20 
REMARK    4  A    between atoms: C8_20  and  C9_21 
REMARK    5  A    between atoms: C9_21  and  C10_22 
REMARK    6  A    between atoms: C10_22  and  C11_23 
REMARK    7  A    between atoms: C11_23  and  C12_24 
REMARK    8  A    between atoms: C12_24  and  N6_25 
ROOT
HETATM    1  C1  UNL     1      -8.017 -15.660   9.152  1.00  0.00     0.679 A 
HETATM    2  N2  UNL     1      -8.839 -14.594   9.219  1.00  0.00    -0.170 N 
ATOM      3  H2  UNL     1      -9.806 -14.725   9.513  1.00  0.00     0.186 HD
HETATM    4  C2  UNL     1      -8.410 -13.380   8.910  1.00  0.00     0.169 A 
HETATM    5  C3  UNL     1      -7.106 -13.136   8.503  1.00  0.00     0.039 A 
HETATM    6  C4  UNL     1      -6.270 -14.224   8.436  1.00  0.00     0.125 A 
HETATM    7  N4  UNL     1      -6.747 -15.463   8.762  1.00  0.00    -0.177 N 
ATOM      8  H4  UNL     1      -6.117 -16.264   8.708  1.00  0.00     0.186 HD
HETATM    9  C5  UNL     1      -6.428 -11.906   8.116  1.00  0.00     0.067 C 
HETATM   10  C6  UNL     1      -7.360 -10.734   7.936  1.00  0.00     0.133 C 
HETATM   11  N5  UNL     1      -8.169 -10.433   9.076  1.00  0.00    -0.330 N 
HETATM   12  C7  UNL     1      -7.727  -9.356   9.906  1.00  0.00     0.221 C 
HETATM   13  O1  UNL     1      -8.373  -9.031  10.950  1.00  0.00    -0.273 OA
HETATM   14  C14 UNL     1      -9.397 -11.096   9.466  1.00  0.00     0.305 C 
HETATM   15  O2  UNL     1      -9.377 -12.411   9.034  1.00  0.00    -0.315 OA
ENDROOT
BRANCH  12  16
HETATM   16  C8  UNL     1      -6.504  -8.617   9.540  1.00  0.00     0.103 C 
BRANCH  16  17
HETATM   17  C9  UNL     1      -5.456  -8.904  10.611  1.00  0.00     0.009 C 
BRANCH  17  18
HETATM   18  C10 UNL     1      -4.240  -9.465   9.948  1.00  0.00     0.002 C 
BRANCH  18  19
HETATM   19  C11 UNL     1      -3.911 -10.843  10.447  1.00  0.00     0.022 C 
BRANCH  19  20
HETATM   20  C12 UNL     1      -4.607 -11.099  11.748  1.00  0.00     0.153 C 
BRANCH  20  21
HETATM   21  N6  UNL     1      -3.668 -10.985  12.873  1.00  0.00    -0.250 N 
HETATM   22  N7  UNL     1      -3.433  -9.954  13.648  1.00  0.00    -0.224 N 
HETATM   23  N8  UNL     1      -2.502 -10.293  14.542  1.00  0.00    -0.226 N 
ATOM     24  H7  UNL     1      -3.887  -9.043  13.580  1.00  0.00     0.210 HD
HETATM   25  N9  UNL     1      -2.136 -11.542  14.346  1.00  0.00    -0.259 N 
ATOM     26  H8  UNL     1      -2.131  -9.679  15.267  1.00  0.00     0.210 HD
HETATM   27  C13 UNL     1      -2.866 -11.977  13.299  1.00  0.00     0.210 A 
ATOM     28  H9  UNL     1      -1.443 -12.070  14.876  1.00  0.00     0.191 HD
HETATM   29  S1  UNL     1      -2.748 -13.492  12.689  1.00  0.00    -0.038 SA
ENDBRANCH  20  21
ENDBRANCH  19  20
ENDBRANCH  18  19
ENDBRANCH  17  18
ENDBRANCH  16  17
ENDBRANCH  12  16
BRANCH   6  30
HETATM   30  N3  UNL     1      -5.034 -14.158   8.078  1.00  0.00    -0.384 N 
ATOM     31  H32 UNL     1      -4.677 -14.937   7.525  1.00  0.00     0.157 HD
ATOM     32  H31 UNL     1      -4.414 -13.384   8.317  1.00  0.00     0.157 HD
ENDBRANCH   6  30
BRANCH   1  33
HETATM   33  N1  UNL     1      -8.465 -16.842   9.463  1.00  0.00    -0.234 N 
ATOM     34  H12 UNL     1      -8.787 -17.065  10.405  1.00  0.00     0.174 HD
ATOM     35  H11 UNL     1      -8.500 -17.574   8.753  1.00  0.00     0.174 HD
ENDBRANCH   1  33
TORSDOF 8
ENDMDL
MODEL 5
REMARK VINA RESULT: -7.152319470      3.520      5.118
REMARK  8 active torsions:
REMARK  status: ('A' for Active; 'I' for Inactive)
REMARK    1  A    between atoms: N1_1  and  C1_4 
REMARK    2  A    between atoms: C4_9  and  N3_10 
REMARK       I    between atoms: N5_17  and  C7_18 
REMARK    3  A    between atoms: C7_18  and  C8_20 
REMARK    4  A    between atoms: C8_20  and  C9_21 
REMARK    5  A    between atoms: C9_21  and  C10_22 
REMARK    6  A    between atoms: C10_22  and  C11_23 
REMARK    7  A    between atoms: C11_23  and  C12_24 
REMARK    8  A    between atoms: C12_24  and  N6_25 
ROOT
HETATM    1  C1  UNL     1     -10.360 -14.481   8.792  1.00  0.00     0.679 A 
HETATM    2  N2  UNL     1     -10.168 -13.362   9.518  1.00  0.00    -0.170 N 
ATOM      3  H2  UNL     1     -10.689 -13.232  10.385  1.00  0.00     0.186 HD
HETATM    4  C2  UNL     1      -9.316 -12.429   9.124  1.00  0.00     0.169 A 
HETATM    5  C3  UNL     1      -8.577 -12.546   7.954  1.00  0.00     0.039 A 
HETATM    6  C4  UNL     1      -8.773 -13.687   7.216  1.00  0.00     0.125 A 
HETATM    7  N4  UNL     1      -9.662 -14.630   7.653  1.00  0.00    -0.177 N 
ATOM      8  H4  UNL     1      -9.800 -15.474   7.097  1.00  0.00     0.186 HD
HETATM    9  C5  UNL     1      -7.603 -11.658   7.334  1.00  0.00     0.067 C 
HETATM   10  C6  UNL     1      -7.537 -10.292   7.971  1.00  0.00     0.133 C 
HETATM   11  N5  UNL     1      -7.272 -10.300   9.376  1.00  0.00    -0.330 N 
HETATM   12  C7  UNL     1      -5.923 -10.037   9.772  1.00  0.00     0.221 C 
HETATM   13  O1  UNL     1      -5.591 -10.042  10.998  1.00  0.00    -0.273 OA
HETATM   14  C14 UNL     1      -8.231 -10.533  10.438  1.00  0.00     0.305 C 
HETATM   15  O2  UNL     1      -9.244 -11.357   9.981  1.00  0.00    -0.315 OA
ENDROOT
BRANCH  12  16
HETATM   16  C8  UNL     1      -4.909  -9.755   8.738  1.00  0.00     0.103 C 
BRANCH  16  17
HETATM   17  C9  UNL     1      -4.002 -10.978   8.640  1.00  0.00     0.009 C 
BRANCH  17  18
HETATM   18  C10 UNL     1      -3.989 -11.446   7.222  1.00  0.00     0.002 C 
BRANCH  18  19
HETATM   19  C11 UNL     1      -3.338 -12.793   7.079  1.00  0.00     0.022 C 
BRANCH  19  20
HETATM   20  C12 UNL     1      -4.268 -13.867   7.551  1.00  0.00     0.153 C 
BRANCH  20  21
HETATM   21  N6  UNL     1      -4.668 -14.737   6.437  1.00  0.00    -0.250 N 
HETATM   22  N7  UNL     1      -4.438 -14.592   5.154  1.00  0.00    -0.224 N 
HETATM   23  N8  UNL     1      -4.985 -15.620   4.501  1.00  0.00    -0.226 N 
ATOM     24  H7  UNL     1      -3.926 -13.821   4.726  1.00  0.00     0.210 HD
HETATM   25  N9  UNL     1      -5.567 -16.429   5.360  1.00  0.00    -0.259 N 
ATOM     26  H8  UNL     1      -4.955 -15.757   3.491  1.00  0.00     0.210 HD
HETATM   27  C13 UNL     1      -5.370 -15.877   6.575  1.00  0.00     0.210 A 
ATOM     28  H9  UNL     1      -6.065 -17.294   5.150  1.00  0.00     0.191 HD
HETATM   29  S1  UNL     1      -5.924 -16.541   7.965  1.00  0.00    -0.038 SA
ENDBRANCH  20  21
ENDBRANCH  19  20
ENDBRANCH  18  19
ENDBRANCH  17  18
ENDBRANCH  16  17
ENDBRANCH  12  16
BRANCH   6  30
HETATM   30  N3  UNL     1      -8.162 -13.940   6.111  1.00  0.00    -0.384 N 
ATOM     31  H32 UNL     1      -7.778 -13.140   5.608  1.00  0.00     0.157 HD
ATOM     32  H31 UNL     1      -8.048 -14.878   5.727  1.00  0.00     0.157 HD
ENDBRANCH   6  30
BRANCH   1  33
HETATM   33  N1  UNL     1     -11.203 -15.383   9.203  1.00  0.00    -0.234 N 
ATOM     34  H12 UNL     1     -12.211 -15.267   9.093  1.00  0.00     0.174 HD
ATOM     35  H11 UNL     1     -10.859 -16.233   9.648  1.00  0.00     0.174 HD
ENDBRANCH   1  33
TORSDOF 8
ENDMDL
