MODEL 1
REMARK VINA RESULT: -8.062073359      0.000      0.000
REMARK  8 active torsions:
REMARK  status: ('A' for Active; 'I' for Inactive)
REMARK    1  A    between atoms: C2_2  and  C4_4 
REMARK    2  A    between atoms: C4_4  and  N1_5 
REMARK    3  A    between atoms: C4_4  and  C5_13 
REMARK    4  A    between atoms: N1_5  and  S1_7 
REMARK    5  A    between atoms: S1_7  and  N2_8 
REMARK    6  A    between atoms: C7_15  and  C8_16 
REMARK    7  A    between atoms: C9_17  and  C10_18 
REMARK    8  A    between atoms: C14_29  and  N7_30 
ROOT
HETATM    1  C5  UNL     1      -6.232 -11.851   9.027  1.00  0.00     0.102 A 
HETATM    2  C6  UNL     1      -7.418 -12.495   9.337  1.00  0.00     0.069 A 
HETATM    3  C7  UNL     1      -7.689 -13.408   8.340  1.00  0.00     0.073 A 
HETATM    4  N8  UNL     1      -6.667 -13.282   7.476  1.00  0.00    -0.260 N 
ATOM      5  H8  UNL     1      -6.560 -13.820   6.616  1.00  0.00     0.195 HD
HETATM    6  O3  UNL     1      -5.836 -12.375   7.893  1.00  0.00    -0.240 OA
ENDROOT
BRANCH   3   7
HETATM    7  C8  UNL     1      -8.813 -14.322   8.210  1.00  0.00     0.066 A 
HETATM    8  C9  UNL     1      -9.916 -14.149   7.381  1.00  0.00     0.077 A 
HETATM    9  N5  UNL     1     -10.694 -15.221   7.579  1.00  0.00    -0.297 N 
HETATM   10  N6  UNL     1     -10.189 -16.055   8.453  1.00  0.00    -0.285 N 
ATOM     11  H5  UNL     1     -11.582 -15.372   7.102  1.00  0.00     0.187 HD
HETATM   12  C14 UNL     1      -9.024 -15.519   8.857  1.00  0.00     0.128 A 
ATOM     13  H6  UNL     1     -10.598 -16.935   8.765  1.00  0.00     0.188 HD
BRANCH   8  14
HETATM   14  C10 UNL     1     -10.165 -13.022   6.477  1.00  0.00     0.027 A 
HETATM   15  C11 UNL     1      -9.670 -11.742   6.527  1.00  0.00     0.122 A 
HETATM   16  N3  UNL     1     -10.188 -11.083   5.483  1.00  0.00    -0.310 N 
HETATM   17  N4  UNL     1     -10.983 -11.840   4.757  1.00  0.00    -0.307 N 
ATOM     18  H3  UNL     1      -9.990 -10.104   5.274  1.00  0.00     0.186 HD
HETATM   19  C12 UNL     1     -11.729 -11.484   3.547  1.00  0.00     0.177 C 
HETATM   20  C13 UNL     1     -10.977 -13.056   5.369  1.00  0.00     0.124 A 
ENDBRANCH   8  14
BRANCH  12  21
HETATM   21  N7  UNL     1      -8.224 -16.077   9.739  1.00  0.00    -0.384 N 
ATOM     22  H72 UNL     1      -8.124 -15.757  10.703  1.00  0.00     0.157 HD
ATOM     23  H71 UNL     1      -7.617 -16.881   9.579  1.00  0.00     0.157 HD
ENDBRANCH  12  21
ENDBRANCH   3   7
BRANCH   1  24
HETATM   24  C4  UNL     1      -5.536 -10.786   9.801  1.00  0.00     0.157 C 
BRANCH  24  25
HETATM   25  C2  UNL     1      -4.198 -11.230  10.305  1.00  0.00     0.007 C 
HETATM   26  C1  UNL     1      -4.149 -11.141  11.806  1.00  0.00     0.012 C 
HETATM   27  C3  UNL     1      -3.060 -10.440   9.709  1.00  0.00     0.012 C 
ENDBRANCH  24  25
BRANCH  24  28
HETATM   28  N1  UNL     1      -6.319 -10.373  10.952  1.00  0.00    -0.291 N 
ATOM     29  H1  UNL     1      -6.187 -10.754  11.889  1.00  0.00     0.174 HD
BRANCH  28  30
HETATM   30  S1  UNL     1      -7.488  -9.179  10.573  1.00  0.00     0.313 S 
HETATM   31  O1  UNL     1      -7.454  -8.836   9.129  1.00  0.00    -0.183 OA
HETATM   32  O2  UNL     1      -8.855  -9.655  11.029  1.00  0.00    -0.183 OA
BRANCH  30  33
HETATM   33  N2  UNL     1      -7.073  -7.752  11.468  1.00  0.00    -0.312 N 
ATOM     34  H22 UNL     1      -6.683  -6.896  11.073  1.00  0.00     0.170 HD
ATOM     35  H21 UNL     1      -7.292  -7.936  12.447  1.00  0.00     0.170 HD
ENDBRANCH  30  33
ENDBRANCH  28  30
ENDBRANCH  24  28
ENDBRANCH   1  24
TORSDOF 8
ENDMDL
MODEL 2
REMARK VINA RESULT: -7.916448041      3.855      6.634
REMARK  8 active torsions:
REMARK  status: ('A' for Active; 'I' for Inactive)
REMARK    1  A    between atoms: C2_2  and  C4_4 
REMARK    2  A    between atoms: C4_4  and  N1_5 
REMARK    3  A    between atoms: C4_4  and  C5_13 
REMARK    4  A    between atoms: N1_5  and  S1_7 
REMARK    5  A    between atoms: S1_7  and  N2_8 
REMARK    6  A    between atoms: C7_15  and  C8_16 
REMARK    7  A    between atoms: C9_17  and  C10_18 
REMARK    8  A    between atoms: C14_29  and  N7_30 
ROOT
HETATM    1  C5  UNL     1     -10.213 -15.557   9.540  1.00  0.00     0.102 A 
HETATM    2  C6  UNL     1     -10.447 -14.202   9.373  1.00  0.00     0.069 A 
HETATM    3  C7  UNL     1      -9.232 -13.567   9.228  1.00  0.00     0.073 A 
HETATM    4  N8  UNL     1      -8.320 -14.552   9.313  1.00  0.00    -0.260 N 
ATOM      5  H8  UNL     1      -7.312 -14.420   9.246  1.00  0.00     0.195 HD
HETATM    6  O3  UNL     1      -8.910 -15.694   9.494  1.00  0.00    -0.240 OA
ENDROOT
BRANCH   3   7
HETATM    7  C8  UNL     1      -8.950 -12.154   9.028  1.00  0.00     0.066 A 
HETATM    8  C9  UNL     1      -9.130 -11.443   7.847  1.00  0.00     0.077 A 
HETATM    9  N5  UNL     1      -8.746 -10.188   8.114  1.00  0.00    -0.297 N 
HETATM   10  N6  UNL     1      -8.342 -10.038   9.350  1.00  0.00    -0.285 N 
ATOM     11  H5  UNL     1      -8.767  -9.432   7.430  1.00  0.00     0.187 HD
HETATM   12  C14 UNL     1      -8.459 -11.242   9.935  1.00  0.00     0.128 A 
ATOM     13  H6  UNL     1      -8.005  -9.178   9.782  1.00  0.00     0.188 HD
BRANCH   8  14
HETATM   14  C10 UNL     1      -9.639 -11.968   6.576  1.00  0.00     0.027 A 
HETATM   15  C11 UNL     1      -9.395 -13.179   5.976  1.00  0.00     0.122 A 
HETATM   16  N3  UNL     1     -10.085 -13.192   4.829  1.00  0.00    -0.310 N 
HETATM   17  N4  UNL     1     -10.762 -12.079   4.640  1.00  0.00    -0.307 N 
ATOM     18  H3  UNL     1     -10.087 -13.976   4.176  1.00  0.00     0.186 HD
HETATM   19  C12 UNL     1     -11.628 -11.718   3.514  1.00  0.00     0.177 C 
HETATM   20  C13 UNL     1     -10.490 -11.305   5.726  1.00  0.00     0.124 A 
ENDBRANCH   8  14
BRANCH  12  21
HETATM   21  N7  UNL     1      -8.146 -11.484  11.189  1.00  0.00    -0.384 N 
ATOM     22  H72 UNL     1      -8.656 -11.107  11.988  1.00  0.00     0.157 HD
ATOM     23  H71 UNL     1      -7.374 -12.065  11.517  1.00  0.00     0.157 HD
ENDBRANCH  12  21
ENDBRANCH   3   7
BRANCH   1  24
HETATM   24  C4  UNL     1     -11.212 -16.645   9.733  1.00  0.00     0.157 C 
BRANCH  24  25
HETATM   25  C2  UNL     1     -12.431 -16.175  10.464  1.00  0.00     0.007 C 
HETATM   26  C1  UNL     1     -12.835 -17.182  11.507  1.00  0.00     0.012 C 
HETATM   27  C3  UNL     1     -13.592 -15.900   9.542  1.00  0.00     0.012 C 
ENDBRANCH  24  25
BRANCH  24  28
HETATM   28  N1  UNL     1     -10.649 -17.749  10.490  1.00  0.00    -0.291 N 
ATOM     29  H1  UNL     1     -10.782 -17.869  11.494  1.00  0.00     0.174 HD
BRANCH  28  30
HETATM   30  S1  UNL     1      -9.739 -18.830   9.521  1.00  0.00     0.313 S 
HETATM   31  O1  UNL     1      -9.940 -20.235   9.954  1.00  0.00    -0.183 OA
HETATM   32  O2  UNL     1     -10.089 -18.610   8.061  1.00  0.00    -0.183 OA
BRANCH  30  33
HETATM   33  N2  UNL     1      -8.065 -18.439   9.751  1.00  0.00    -0.312 N 
ATOM     34  H22 UNL     1      -7.674 -17.497   9.791  1.00  0.00     0.170 HD
ATOM     35  H21 UNL     1      -7.558 -19.319   9.837  1.00  0.00     0.170 HD
ENDBRANCH  30  33
ENDBRANCH  28  30
ENDBRANCH  24  28
ENDBRANCH   1  24
TORSDOF 8
ENDMDL
MODEL 3
REMARK VINA RESULT: -7.774451003      1.910      2.552
REMARK  8 active torsions:
REMARK  status: ('A' for Active; 'I' for Inactive)
REMARK    1  A    between atoms: C2_2  and  C4_4 
REMARK    2  A    between atoms: C4_4  and  N1_5 
REMARK    3  A    between atoms: C4_4  and  C5_13 
REMARK    4  A    between atoms: N1_5  and  S1_7 
REMARK    5  A    between atoms: S1_7  and  N2_8 
REMARK    6  A    between atoms: C7_15  and  C8_16 
REMARK    7  A    between atoms: C9_17  and  C10_18 
REMARK    8  A    between atoms: C14_29  and  N7_30 
ROOT
HETATM    1  C5  UNL     1      -6.703 -11.654   9.479  1.00  0.00     0.102 A 
HETATM    2  C6  UNL     1      -7.880 -12.368   9.625  1.00  0.00     0.069 A 
HETATM    3  C7  UNL     1      -7.949 -13.303   8.615  1.00  0.00     0.073 A 
HETATM    4  N8  UNL     1      -6.822 -13.119   7.903  1.00  0.00    -0.260 N 
ATOM      5  H8  UNL     1      -6.560 -13.655   7.077  1.00  0.00     0.195 HD
HETATM    6  O3  UNL     1      -6.117 -12.160   8.421  1.00  0.00    -0.240 OA
ENDROOT
BRANCH   3   7
HETATM    7  C8  UNL     1      -8.985 -14.286   8.338  1.00  0.00     0.066 A 
HETATM    8  C9  UNL     1      -9.990 -14.168   7.385  1.00  0.00     0.077 A 
HETATM    9  N5  UNL     1     -10.712 -15.293   7.475  1.00  0.00    -0.297 N 
HETATM   10  N6  UNL     1     -10.259 -16.109   8.392  1.00  0.00    -0.285 N 
ATOM     11  H5  UNL     1     -11.525 -15.491   6.893  1.00  0.00     0.187 HD
HETATM   12  C14 UNL     1      -9.190 -15.507   8.940  1.00  0.00     0.128 A 
ATOM     13  H6  UNL     1     -10.642 -17.021   8.642  1.00  0.00     0.188 HD
BRANCH   8  14
HETATM   14  C10 UNL     1     -10.206 -13.041   6.473  1.00  0.00     0.027 A 
HETATM   15  C11 UNL     1      -9.674 -11.776   6.513  1.00  0.00     0.122 A 
HETATM   16  N3  UNL     1     -10.172 -11.109   5.464  1.00  0.00    -0.310 N 
HETATM   17  N4  UNL     1     -10.988 -11.850   4.743  1.00  0.00    -0.307 N 
ATOM     18  H3  UNL     1      -9.945 -10.138   5.247  1.00  0.00     0.186 HD
HETATM   19  C12 UNL     1     -11.722 -11.481   3.530  1.00  0.00     0.177 C 
HETATM   20  C13 UNL     1     -11.018 -13.060   5.364  1.00  0.00     0.124 A 
ENDBRANCH   8  14
BRANCH  12  21
HETATM   21  N7  UNL     1      -8.464 -16.030   9.905  1.00  0.00    -0.384 N 
ATOM     22  H72 UNL     1      -7.586 -15.632  10.239  1.00  0.00     0.157 HD
ATOM     23  H71 UNL     1      -8.681 -16.877  10.430  1.00  0.00     0.157 HD
ENDBRANCH  12  21
ENDBRANCH   3   7
BRANCH   1  24
HETATM   24  C4  UNL     1      -6.191 -10.543  10.329  1.00  0.00     0.157 C 
BRANCH  24  25
HETATM   25  C2  UNL     1      -6.874  -9.243  10.039  1.00  0.00     0.007 C 
HETATM   26  C1  UNL     1      -5.879  -8.114  10.060  1.00  0.00     0.012 C 
HETATM   27  C3  UNL     1      -8.000  -8.950  10.999  1.00  0.00     0.012 C 
ENDBRANCH  24  25
BRANCH  24  28
HETATM   28  N1  UNL     1      -4.766 -10.340  10.130  1.00  0.00    -0.291 N 
ATOM     29  H1  UNL     1      -4.377  -9.798   9.359  1.00  0.00     0.174 HD
BRANCH  28  30
HETATM   30  S1  UNL     1      -3.808 -11.106  11.326  1.00  0.00     0.313 S 
HETATM   31  O1  UNL     1      -3.712 -12.567  11.080  1.00  0.00    -0.183 OA
HETATM   32  O2  UNL     1      -2.450 -10.433  11.385  1.00  0.00    -0.183 OA
BRANCH  30  33
HETATM   33  N2  UNL     1      -4.606 -10.876  12.848  1.00  0.00    -0.312 N 
ATOM     34  H22 UNL     1      -5.361 -10.214  13.029  1.00  0.00     0.170 HD
ATOM     35  H21 UNL     1      -4.178 -11.519  13.514  1.00  0.00     0.170 HD
ENDBRANCH  30  33
ENDBRANCH  28  30
ENDBRANCH  24  28
ENDBRANCH   1  24
TORSDOF 8
ENDMDL
MODEL 4
REMARK VINA RESULT: -7.747646486      1.938      2.732
REMARK  8 active torsions:
REMARK  status: ('A' for Active; 'I' for Inactive)
REMARK    1  A    between atoms: C2_2  and  C4_4 
REMARK    2  A    between atoms: C4_4  and  N1_5 
REMARK    3  A    between atoms: C4_4  and  C5_13 
REMARK    4  A    between atoms: N1_5  and  S1_7 
REMARK    5  A    between atoms: S1_7  and  N2_8 
REMARK    6  A    between atoms: C7_15  and  C8_16 
REMARK    7  A    between atoms: C9_17  and  C10_18 
REMARK    8  A    between atoms: C14_29  and  N7_30 
ROOT
HETATM    1  C5  UNL     1      -6.905 -11.350   9.642  1.00  0.00     0.102 A 
HETATM    2  C6  UNL     1      -7.160 -12.529   8.962  1.00  0.00     0.069 A 
HETATM    3  C7  UNL     1      -8.480 -12.869   9.162  1.00  0.00     0.073 A 
HETATM    4  N8  UNL     1      -8.968 -11.892   9.947  1.00  0.00    -0.260 N 
ATOM      5  H8  UNL     1      -9.929 -11.841  10.285  1.00  0.00     0.195 HD
HETATM    6  O3  UNL     1      -8.040 -11.024  10.213  1.00  0.00    -0.240 OA
ENDROOT
BRANCH   3   7
HETATM    7  C8  UNL     1      -9.222 -14.014   8.659  1.00  0.00     0.066 A 
HETATM    8  C9  UNL     1      -9.981 -14.050   7.494  1.00  0.00     0.077 A 
HETATM    9  N5  UNL     1     -10.482 -15.291   7.424  1.00  0.00    -0.297 N 
HETATM   10  N6  UNL     1     -10.114 -16.041   8.431  1.00  0.00    -0.285 N 
ATOM     11  H5  UNL     1     -11.086 -15.615   6.668  1.00  0.00     0.187 HD
HETATM   12  C14 UNL     1      -9.333 -15.272   9.209  1.00  0.00     0.128 A 
ATOM     13  H6  UNL     1     -10.368 -17.015   8.593  1.00  0.00     0.188 HD
BRANCH   8  14
HETATM   14  C10 UNL     1     -10.182 -12.952   6.545  1.00  0.00     0.027 A 
HETATM   15  C11 UNL     1      -9.630 -11.695   6.540  1.00  0.00     0.122 A 
HETATM   16  N3  UNL     1     -10.122 -11.057   5.470  1.00  0.00    -0.310 N 
HETATM   17  N4  UNL     1     -10.951 -11.808   4.778  1.00  0.00    -0.307 N 
ATOM     18  H3  UNL     1      -9.880 -10.098   5.219  1.00  0.00     0.186 HD
HETATM   19  C12 UNL     1     -11.685 -11.470   3.554  1.00  0.00     0.177 C 
HETATM   20  C13 UNL     1     -10.998 -12.997   5.440  1.00  0.00     0.124 A 
ENDBRANCH   8  14
BRANCH  12  21
HETATM   21  N7  UNL     1      -8.769 -15.685  10.323  1.00  0.00    -0.384 N 
ATOM     22  H72 UNL     1      -7.796 -15.508  10.571  1.00  0.00     0.157 HD
ATOM     23  H71 UNL     1      -9.221 -16.221  11.064  1.00  0.00     0.157 HD
ENDBRANCH  12  21
ENDBRANCH   3   7
BRANCH   1  24
HETATM   24  C4  UNL     1      -5.624 -10.594   9.723  1.00  0.00     0.157 C 
BRANCH  24  25
HETATM   25  C2  UNL     1      -5.640  -9.560  10.805  1.00  0.00     0.007 C 
HETATM   26  C1  UNL     1      -6.159  -8.253  10.271  1.00  0.00     0.012 C 
HETATM   27  C3  UNL     1      -4.285  -9.354  11.434  1.00  0.00     0.012 C 
ENDBRANCH  24  25
BRANCH  24  28
HETATM   28  N1  UNL     1      -5.334  -9.913   8.474  1.00  0.00    -0.291 N 
ATOM     29  H1  UNL     1      -5.852  -9.098   8.143  1.00  0.00     0.174 HD
BRANCH  28  30
HETATM   30  S1  UNL     1      -4.031 -10.617   7.613  1.00  0.00     0.313 S 
HETATM   31  O1  UNL     1      -4.522 -11.543   6.562  1.00  0.00    -0.183 OA
HETATM   32  O2  UNL     1      -3.145  -9.518   7.058  1.00  0.00    -0.183 OA
BRANCH  30  33
HETATM   33  N2  UNL     1      -3.108 -11.547   8.751  1.00  0.00    -0.312 N 
ATOM     34  H22 UNL     1      -2.780 -11.219   9.659  1.00  0.00     0.170 HD
ATOM     35  H21 UNL     1      -2.962 -12.468   8.339  1.00  0.00     0.170 HD
ENDBRANCH  30  33
ENDBRANCH  28  30
ENDBRANCH  24  28
ENDBRANCH   1  24
TORSDOF 8
ENDMDL
MODEL 5
REMARK VINA RESULT: -7.567436044      2.698      7.211
REMARK  8 active torsions:
REMARK  status: ('A' for Active; 'I' for Inactive)
REMARK    1  A    between atoms: C2_2  and  C4_4 
REMARK    2  A    between atoms: C4_4  and  N1_5 
REMARK    3  A    between atoms: C4_4  and  C5_13 
REMARK    4  A    between atoms: N1_5  and  S1_7 
REMARK    5  A    between atoms: S1_7  and  N2_8 
REMARK    6  A    between atoms: C7_15  and  C8_16 
REMARK    7  A    between atoms: C9_17  and  C10_18 
REMARK    8  A    between atoms: C14_29  and  N7_30 
ROOT
HETATM    1  C5  UNL     1      -7.841 -12.570   7.589  1.00  0.00     0.102 A 
HETATM    2  C6  UNL     1      -7.731 -11.904   8.799  1.00  0.00     0.069 A 
HETATM    3  C7  UNL     1      -6.739 -10.955   8.683  1.00  0.00     0.073 A 
HETATM    4  N8  UNL     1      -6.292 -11.081   7.421  1.00  0.00    -0.260 N 
ATOM      5  H8  UNL     1      -5.548 -10.520   7.006  1.00  0.00     0.195 HD
HETATM    6  O3  UNL     1      -6.943 -12.022   6.806  1.00  0.00    -0.240 OA
ENDROOT
BRANCH   3   7
HETATM    7  C8  UNL     1      -6.250 -10.008   9.673  1.00  0.00     0.066 A 
HETATM    8  C9  UNL     1      -4.928  -9.857  10.076  1.00  0.00     0.077 A 
HETATM    9  N5  UNL     1      -4.937  -8.882  10.996  1.00  0.00    -0.297 N 
HETATM   10  N6  UNL     1      -6.136  -8.404  11.212  1.00  0.00    -0.285 N 
ATOM     11  H5  UNL     1      -4.101  -8.550  11.476  1.00  0.00     0.187 HD
HETATM   12  C14 UNL     1      -6.965  -9.086  10.403  1.00  0.00     0.128 A 
ATOM     13  H6  UNL     1      -6.390  -7.662  11.863  1.00  0.00     0.188 HD
BRANCH   8  14
HETATM   14  C10 UNL     1      -3.770 -10.611   9.588  1.00  0.00     0.027 A 
HETATM   15  C11 UNL     1      -3.276 -11.818  10.017  1.00  0.00     0.122 A 
HETATM   16  N3  UNL     1      -2.205 -12.092   9.261  1.00  0.00    -0.310 N 
HETATM   17  N4  UNL     1      -1.968 -11.152   8.370  1.00  0.00    -0.307 N 
ATOM     18  H3  UNL     1      -1.637 -12.934   9.363  1.00  0.00     0.186 HD
HETATM   19  C12 UNL     1      -0.898 -11.091   7.371  1.00  0.00     0.177 C 
HETATM   20  C13 UNL     1      -2.941 -10.220   8.565  1.00  0.00     0.124 A 
ENDBRANCH   8  14
BRANCH  12  21
HETATM   21  N7  UNL     1      -8.263  -8.881  10.339  1.00  0.00    -0.384 N 
ATOM     22  H72 UNL     1      -8.895  -8.967  11.135  1.00  0.00     0.157 HD
ATOM     23  H71 UNL     1      -8.791  -8.616   9.507  1.00  0.00     0.157 HD
ENDBRANCH  12  21
ENDBRANCH   3   7
BRANCH   1  24
HETATM   24  C4  UNL     1      -8.772 -13.676   7.230  1.00  0.00     0.157 C 
BRANCH  24  25
HETATM   25  C2  UNL     1      -9.618 -13.344   6.041  1.00  0.00     0.007 C 
HETATM   26  C1  UNL     1      -9.981 -11.884   6.049  1.00  0.00     0.012 C 
HETATM   27  C3  UNL     1     -10.872 -14.181   5.967  1.00  0.00     0.012 C 
ENDBRANCH  24  25
BRANCH  24  28
HETATM   28  N1  UNL     1      -9.668 -13.988   8.330  1.00  0.00    -0.291 N 
ATOM     29  H1  UNL     1     -10.478 -13.417   8.576  1.00  0.00     0.174 HD
BRANCH  28  30
HETATM   30  S1  UNL     1      -9.226 -15.414   9.170  1.00  0.00     0.313 S 
HETATM   31  O1  UNL     1      -7.762 -15.646   9.096  1.00  0.00    -0.183 OA
HETATM   32  O2  UNL     1      -9.734 -15.332  10.598  1.00  0.00    -0.183 OA
BRANCH  30  33
HETATM   33  N2  UNL     1     -10.015 -16.741   8.379  1.00  0.00    -0.312 N 
ATOM     34  H22 UNL     1      -9.614 -17.312   7.636  1.00  0.00     0.170 HD
ATOM     35  H21 UNL     1     -10.941 -16.834   8.796  1.00  0.00     0.170 HD
ENDBRANCH  30  33
ENDBRANCH  28  30
ENDBRANCH  24  28
ENDBRANCH   1  24
TORSDOF 8
ENDMDL
