MODEL 1
REMARK VINA RESULT: -6.195203432      0.000      0.000
REMARK  8 active torsions:
REMARK  status: ('A' for Active; 'I' for Inactive)
REMARK    1  A    between atoms: C2_2  and  N1_3 
REMARK    2  A    between atoms: C2_2  and  C8_20 
REMARK    3  A    between atoms: N1_3  and  N2_5 
REMARK    4  A    between atoms: C3_7  and  C4_8 
REMARK    5  A    between atoms: C6_11  and  S2_12 
REMARK    6  A    between atoms: S2_12  and  N3_13 
REMARK    7  A    between atoms: C8_20  and  N5_21 
REMARK    8  A    between atoms: C8_20  and  O3_25 
ROOT
HETATM    1  N2  UNL     1      30.564  -4.902  -0.637  1.00  0.00    -0.314 N 
ATOM      2  H2  UNL     1      31.392  -4.352  -0.866  1.00  0.00     0.185 HD
HETATM    3  C3  UNL     1      30.602  -5.991  -1.221  1.00  0.00     0.137 C 
ENDROOT
BRANCH   1   4
HETATM    4  N1  UNL     1      29.772  -4.215   0.209  1.00  0.00    -0.328 N 
ATOM      5  H1  UNL     1      29.430  -3.303  -0.094  1.00  0.00     0.180 HD
BRANCH   4   6
HETATM    6  C2  UNL     1      29.368  -4.690   1.535  1.00  0.00     0.151 C 
HETATM    7  C1  UNL     1      30.634  -5.172   2.250  1.00  0.00     0.038 C 
BRANCH   6   8
HETATM    8  C8  UNL     1      28.773  -3.537   2.313  1.00  0.00     0.340 C 
BRANCH   8   9
HETATM    9  N5  UNL     1      27.417  -3.299   1.852  1.00  0.00    -0.051 N 
ATOM     10  H53 UNL     1      27.107  -4.002   1.182  1.00  0.00     0.277 HD
ATOM     11  H52 UNL     1      26.724  -3.477   2.578  1.00  0.00     0.277 HD
ATOM     12  H51 UNL     1      27.351  -2.352   1.478  1.00  0.00     0.277 HD
ENDBRANCH   8   9
BRANCH   8  13
HETATM   13  O3  UNL     1      29.516  -2.384   2.182  1.00  0.00    -0.368 OA
ATOM     14  H3  UNL     1      29.155  -1.666   2.690  1.00  0.00     0.212 HD
ENDBRANCH   8  13
ENDBRANCH   6   8
ENDBRANCH   4   6
ENDBRANCH   1   4
BRANCH   3  15
HETATM   15  C4  UNL     1      29.599  -7.094  -1.165  1.00  0.00     0.059 A 
HETATM   16  C5  UNL     1      29.736  -8.054  -0.195  1.00  0.00     0.083 A 
HETATM   17  S1  UNL     1      28.406  -9.083  -0.510  1.00  0.00    -0.068 SA
HETATM   18  C6  UNL     1      27.759  -8.251  -1.837  1.00  0.00     0.193 A 
HETATM   19  N4  UNL     1      28.587  -7.214  -1.989  1.00  0.00    -0.333 N 
HETATM   20  C7  UNL     1      28.319  -6.233  -3.084  1.00  0.00     0.158 C 
BRANCH  18  21
HETATM   21  S2  UNL     1      26.329  -8.647  -2.801  1.00  0.00     0.279 S 
HETATM   22  O1  UNL     1      26.733  -8.960  -4.188  1.00  0.00    -0.199 OA
HETATM   23  O2  UNL     1      25.758  -9.905  -2.157  1.00  0.00    -0.199 OA
BRANCH  21  24
HETATM   24  N3  UNL     1      25.133  -7.452  -2.737  1.00  0.00    -0.323 N 
ATOM     25  H32 UNL     1      24.485  -7.364  -1.954  1.00  0.00     0.169 HD
ATOM     26  H31 UNL     1      25.134  -6.840  -3.554  1.00  0.00     0.169 HD
ENDBRANCH  21  24
ENDBRANCH  18  21
ENDBRANCH   3  15
TORSDOF 8
ENDMDL
MODEL 2
REMARK VINA RESULT: -6.061766159      1.301      2.130
REMARK  8 active torsions:
REMARK  status: ('A' for Active; 'I' for Inactive)
REMARK    1  A    between atoms: C2_2  and  N1_3 
REMARK    2  A    between atoms: C2_2  and  C8_20 
REMARK    3  A    between atoms: N1_3  and  N2_5 
REMARK    4  A    between atoms: C3_7  and  C4_8 
REMARK    5  A    between atoms: C6_11  and  S2_12 
REMARK    6  A    between atoms: S2_12  and  N3_13 
REMARK    7  A    between atoms: C8_20  and  N5_21 
REMARK    8  A    between atoms: C8_20  and  O3_25 
ROOT
HETATM    1  N2  UNL     1      30.645  -4.902  -0.299  1.00  0.00    -0.314 N 
ATOM      2  H2  UNL     1      31.604  -4.645  -0.064  1.00  0.00     0.185 HD
HETATM    3  C3  UNL     1      30.642  -5.799  -1.150  1.00  0.00     0.137 C 
ENDROOT
BRANCH   1   4
HETATM    4  N1  UNL     1      29.778  -4.158   0.414  1.00  0.00    -0.328 N 
ATOM      5  H1  UNL     1      29.612  -3.198   0.111  1.00  0.00     0.180 HD
BRANCH   4   6
HETATM    6  C2  UNL     1      29.057  -4.634   1.598  1.00  0.00     0.151 C 
HETATM    7  C1  UNL     1      30.059  -5.406   2.461  1.00  0.00     0.038 C 
BRANCH   6   8
HETATM    8  C8  UNL     1      28.549  -3.444   2.380  1.00  0.00     0.340 C 
BRANCH   8   9
HETATM    9  N5  UNL     1      27.195  -3.134   1.954  1.00  0.00    -0.051 N 
ATOM     10  H53 UNL     1      27.111  -2.185   1.590  1.00  0.00     0.277 HD
ATOM     11  H52 UNL     1      26.931  -3.637   1.107  1.00  0.00     0.277 HD
ATOM     12  H51 UNL     1      26.551  -3.312   2.725  1.00  0.00     0.277 HD
ENDBRANCH   8   9
BRANCH   8  13
HETATM   13  O3  UNL     1      29.350  -2.335   2.217  1.00  0.00    -0.368 OA
ATOM     14  H3  UNL     1      29.902  -2.177   2.975  1.00  0.00     0.212 HD
ENDBRANCH   8  13
ENDBRANCH   6   8
ENDBRANCH   4   6
ENDBRANCH   1   4
BRANCH   3  15
HETATM   15  C4  UNL     1      29.462  -6.467  -1.771  1.00  0.00     0.059 A 
HETATM   16  C5  UNL     1      28.771  -5.797  -2.748  1.00  0.00     0.083 A 
HETATM   17  S1  UNL     1      27.536  -6.911  -3.150  1.00  0.00    -0.068 SA
HETATM   18  C6  UNL     1      27.958  -8.148  -2.070  1.00  0.00     0.193 A 
HETATM   19  N4  UNL     1      29.031  -7.660  -1.442  1.00  0.00    -0.333 N 
HETATM   20  C7  UNL     1      29.697  -8.498  -0.399  1.00  0.00     0.158 C 
BRANCH  18  21
HETATM   21  S2  UNL     1      27.175  -9.716  -1.824  1.00  0.00     0.279 S 
HETATM   22  O1  UNL     1      26.818  -9.876  -0.399  1.00  0.00    -0.199 OA
HETATM   23  O2  UNL     1      25.896  -9.649  -2.649  1.00  0.00    -0.199 OA
BRANCH  21  24
HETATM   24  N3  UNL     1      28.093 -11.014  -2.404  1.00  0.00    -0.323 N 
ATOM     25  H32 UNL     1      29.113 -10.997  -2.431  1.00  0.00     0.169 HD
ATOM     26  H31 UNL     1      27.522 -11.798  -2.718  1.00  0.00     0.169 HD
ENDBRANCH  21  24
ENDBRANCH  18  21
ENDBRANCH   3  15
TORSDOF 8
ENDMDL
MODEL 3
REMARK VINA RESULT: -6.004214887      1.232      1.280
REMARK  8 active torsions:
REMARK  status: ('A' for Active; 'I' for Inactive)
REMARK    1  A    between atoms: C2_2  and  N1_3 
REMARK    2  A    between atoms: C2_2  and  C8_20 
REMARK    3  A    between atoms: N1_3  and  N2_5 
REMARK    4  A    between atoms: C3_7  and  C4_8 
REMARK    5  A    between atoms: C6_11  and  S2_12 
REMARK    6  A    between atoms: S2_12  and  N3_13 
REMARK    7  A    between atoms: C8_20  and  N5_21 
REMARK    8  A    between atoms: C8_20  and  O3_25 
ROOT
HETATM    1  N2  UNL     1      30.090  -4.324  -0.583  1.00  0.00    -0.314 N 
ATOM      2  H2  UNL     1      30.315  -3.416  -0.990  1.00  0.00     0.185 HD
HETATM    3  C3  UNL     1      29.954  -5.168  -1.477  1.00  0.00     0.137 C 
ENDROOT
BRANCH   1   4
HETATM    4  N1  UNL     1      30.034  -4.228   0.759  1.00  0.00    -0.328 N 
ATOM      5  H1  UNL     1      30.855  -3.871   1.246  1.00  0.00     0.180 HD
BRANCH   4   6
HETATM    6  C2  UNL     1      28.870  -4.604   1.567  1.00  0.00     0.151 C 
HETATM    7  C1  UNL     1      29.319  -5.714   2.521  1.00  0.00     0.038 C 
BRANCH   6   8
HETATM    8  C8  UNL     1      28.426  -3.407   2.380  1.00  0.00     0.340 C 
BRANCH   8   9
HETATM    9  N5  UNL     1      27.082  -3.029   1.978  1.00  0.00    -0.051 N 
ATOM     10  H53 UNL     1      27.021  -2.047   1.709  1.00  0.00     0.277 HD
ATOM     11  H52 UNL     1      26.815  -3.440   1.084  1.00  0.00     0.277 HD
ATOM     12  H51 UNL     1      26.429  -3.268   2.725  1.00  0.00     0.277 HD
ENDBRANCH   8   9
BRANCH   8  13
HETATM   13  O3  UNL     1      29.275  -2.332   2.228  1.00  0.00    -0.368 OA
ATOM     14  H3  UNL     1      29.550  -1.973   3.063  1.00  0.00     0.212 HD
ENDBRANCH   8  13
ENDBRANCH   6   8
ENDBRANCH   4   6
ENDBRANCH   1   4
BRANCH   3  15
HETATM   15  C4  UNL     1      29.626  -6.615  -1.325  1.00  0.00     0.059 A 
HETATM   16  C5  UNL     1      30.436  -7.390  -0.535  1.00  0.00     0.083 A 
HETATM   17  S1  UNL     1      29.701  -8.930  -0.657  1.00  0.00    -0.068 SA
HETATM   18  C6  UNL     1      28.423  -8.511  -1.690  1.00  0.00     0.193 A 
HETATM   19  N4  UNL     1      28.609  -7.206  -1.902  1.00  0.00    -0.333 N 
HETATM   20  C7  UNL     1      27.645  -6.475  -2.780  1.00  0.00     0.158 C 
BRANCH  18  21
HETATM   21  S2  UNL     1      27.142  -9.545  -2.340  1.00  0.00     0.279 S 
HETATM   22  O1  UNL     1      27.393 -10.950  -1.958  1.00  0.00    -0.199 OA
HETATM   23  O2  UNL     1      25.868  -9.067  -1.654  1.00  0.00    -0.199 OA
BRANCH  21  24
HETATM   24  N3  UNL     1      26.925  -9.363  -4.008  1.00  0.00    -0.323 N 
ATOM     25  H32 UNL     1      26.069  -8.980  -4.413  1.00  0.00     0.169 HD
ATOM     26  H31 UNL     1      27.730  -9.672  -4.553  1.00  0.00     0.169 HD
ENDBRANCH  21  24
ENDBRANCH  18  21
ENDBRANCH   3  15
TORSDOF 8
ENDMDL
MODEL 4
REMARK VINA RESULT: -5.986711159      1.652      2.229
REMARK  8 active torsions:
REMARK  status: ('A' for Active; 'I' for Inactive)
REMARK    1  A    between atoms: C2_2  and  N1_3 
REMARK    2  A    between atoms: C2_2  and  C8_20 
REMARK    3  A    between atoms: N1_3  and  N2_5 
REMARK    4  A    between atoms: C3_7  and  C4_8 
REMARK    5  A    between atoms: C6_11  and  S2_12 
REMARK    6  A    between atoms: S2_12  and  N3_13 
REMARK    7  A    between atoms: C8_20  and  N5_21 
REMARK    8  A    between atoms: C8_20  and  O3_25 
ROOT
HETATM    1  N2  UNL     1      30.055  -4.666  -0.160  1.00  0.00    -0.314 N 
ATOM      2  H2  UNL     1      30.846  -4.083  -0.430  1.00  0.00     0.185 HD
HETATM    3  C3  UNL     1      29.433  -5.031  -1.164  1.00  0.00     0.137 C 
ENDROOT
BRANCH   1   4
HETATM    4  N1  UNL     1      30.014  -4.799   1.180  1.00  0.00    -0.328 N 
ATOM      5  H1  UNL     1      30.900  -4.830   1.682  1.00  0.00     0.180 HD
BRANCH   4   6
HETATM    6  C2  UNL     1      28.780  -4.902   1.964  1.00  0.00     0.151 C 
HETATM    7  C1  UNL     1      29.080  -5.800   3.167  1.00  0.00     0.038 C 
BRANCH   6   8
HETATM    8  C8  UNL     1      28.394  -3.527   2.461  1.00  0.00     0.340 C 
BRANCH   8   9
HETATM    9  N5  UNL     1      27.094  -3.170   1.920  1.00  0.00    -0.051 N 
ATOM     10  H53 UNL     1      26.812  -2.226   2.183  1.00  0.00     0.277 HD
ATOM     11  H52 UNL     1      27.119  -3.037   0.910  1.00  0.00     0.277 HD
ATOM     12  H51 UNL     1      26.409  -3.872   2.202  1.00  0.00     0.277 HD
ENDBRANCH   8   9
BRANCH   8  13
HETATM   13  O3  UNL     1      29.321  -2.568   2.111  1.00  0.00    -0.368 OA
ATOM     14  H3  UNL     1      30.006  -2.478   2.762  1.00  0.00     0.212 HD
ENDBRANCH   8  13
ENDBRANCH   6   8
ENDBRANCH   4   6
ENDBRANCH   1   4
BRANCH   3  15
HETATM   15  C4  UNL     1      28.217  -5.893  -1.225  1.00  0.00     0.059 A 
HETATM   16  C5  UNL     1      26.988  -5.287  -1.281  1.00  0.00     0.083 A 
HETATM   17  S1  UNL     1      25.923  -6.625  -1.330  1.00  0.00    -0.068 SA
HETATM   18  C6  UNL     1      27.080  -7.863  -1.277  1.00  0.00     0.193 A 
HETATM   19  N4  UNL     1      28.240  -7.203  -1.224  1.00  0.00    -0.333 N 
HETATM   20  C7  UNL     1      29.512  -7.987  -1.174  1.00  0.00     0.158 C 
BRANCH  18  21
HETATM   21  S2  UNL     1      26.827  -9.614  -1.289  1.00  0.00     0.279 S 
HETATM   22  O1  UNL     1      27.216 -10.183   0.017  1.00  0.00    -0.199 OA
HETATM   23  O2  UNL     1      25.325  -9.792  -1.478  1.00  0.00    -0.199 OA
BRANCH  21  24
HETATM   24  N3  UNL     1      27.600 -10.387  -2.581  1.00  0.00    -0.323 N 
ATOM     25  H32 UNL     1      27.971  -9.878  -3.384  1.00  0.00     0.169 HD
ATOM     26  H31 UNL     1      27.653 -11.399  -2.468  1.00  0.00     0.169 HD
ENDBRANCH  21  24
ENDBRANCH  18  21
ENDBRANCH   3  15
TORSDOF 8
ENDMDL
MODEL 5
REMARK VINA RESULT: -5.935286030      2.555      5.670
REMARK  8 active torsions:
REMARK  status: ('A' for Active; 'I' for Inactive)
REMARK    1  A    between atoms: C2_2  and  N1_3 
REMARK    2  A    between atoms: C2_2  and  C8_20 
REMARK    3  A    between atoms: N1_3  and  N2_5 
REMARK    4  A    between atoms: C3_7  and  C4_8 
REMARK    5  A    between atoms: C6_11  and  S2_12 
REMARK    6  A    between atoms: S2_12  and  N3_13 
REMARK    7  A    between atoms: C8_20  and  N5_21 
REMARK    8  A    between atoms: C8_20  and  O3_25 
ROOT
HETATM    1  N2  UNL     1      28.025  -7.451  -3.202  1.00  0.00    -0.314 N 
ATOM      2  H2  UNL     1      28.078  -7.288  -4.208  1.00  0.00     0.185 HD
HETATM    3  C3  UNL     1      28.580  -6.530  -2.592  1.00  0.00     0.137 C 
ENDROOT
BRANCH   1   4
HETATM    4  N1  UNL     1      27.371  -8.602  -2.954  1.00  0.00    -0.328 N 
ATOM      5  H1  UNL     1      27.891  -9.475  -3.046  1.00  0.00     0.180 HD
BRANCH   4   6
HETATM    6  C2  UNL     1      25.961  -8.686  -2.562  1.00  0.00     0.151 C 
HETATM    7  C1  UNL     1      25.922  -9.182  -1.114  1.00  0.00     0.038 C 
BRANCH   6   8
HETATM    8  C8  UNL     1      25.348  -7.304  -2.625  1.00  0.00     0.340 C 
BRANCH   8   9
HETATM    9  N5  UNL     1      24.090  -7.306  -1.899  1.00  0.00    -0.051 N 
ATOM     10  H53 UNL     1      23.434  -7.996  -2.264  1.00  0.00     0.277 HD
ATOM     11  H52 UNL     1      24.187  -7.685  -0.957  1.00  0.00     0.277 HD
ATOM     12  H51 UNL     1      23.701  -6.363  -1.898  1.00  0.00     0.277 HD
ENDBRANCH   8   9
BRANCH   8  13
HETATM   13  O3  UNL     1      25.134  -6.890  -3.922  1.00  0.00    -0.368 OA
ATOM     14  H3  UNL     1      25.724  -7.313  -4.534  1.00  0.00     0.212 HD
ENDBRANCH   8  13
ENDBRANCH   6   8
ENDBRANCH   4   6
ENDBRANCH   1   4
BRANCH   3  15
HETATM   15  C4  UNL     1      28.730  -6.370  -1.116  1.00  0.00     0.059 A 
HETATM   16  C5  UNL     1      29.652  -7.148  -0.465  1.00  0.00     0.083 A 
HETATM   17  S1  UNL     1      29.476  -6.641   1.160  1.00  0.00    -0.068 SA
HETATM   18  C6  UNL     1      28.257  -5.486   0.926  1.00  0.00     0.193 A 
HETATM   19  N4  UNL     1      28.032  -5.533  -0.390  1.00  0.00    -0.333 N 
HETATM   20  C7  UNL     1      27.001  -4.623  -0.976  1.00  0.00     0.158 C 
BRANCH  18  21
HETATM   21  S2  UNL     1      27.464  -4.456   2.127  1.00  0.00     0.279 S 
HETATM   22  O1  UNL     1      25.997  -4.585   2.003  1.00  0.00    -0.199 OA
HETATM   23  O2  UNL     1      27.897  -5.020   3.474  1.00  0.00    -0.199 OA
BRANCH  21  24
HETATM   24  N3  UNL     1      27.973  -2.844   2.058  1.00  0.00    -0.323 N 
ATOM     25  H32 UNL     1      27.750  -2.230   1.274  1.00  0.00     0.169 HD
ATOM     26  H31 UNL     1      28.518  -2.561   2.873  1.00  0.00     0.169 HD
ENDBRANCH  21  24
ENDBRANCH  18  21
ENDBRANCH   3  15
TORSDOF 8
ENDMDL
