MODEL 1
REMARK VINA RESULT: -7.291017423      0.000      0.000
REMARK  16 active torsions:
REMARK  status: ('A' for Active; 'I' for Inactive)
REMARK    1  A    between atoms: C2_2  and  N1_3 
REMARK    2  A    between atoms: C2_2  and  C8_12 
REMARK    3  A    between atoms: N1_3  and  C3_4 
REMARK    4  A    between atoms: C3_4  and  O1_5 
REMARK    5  A    between atoms: C3_4  and  O2_7 
REMARK    6  A    between atoms: O2_7  and  C4_8 
REMARK    7  A    between atoms: C8_12  and  O3_13 
REMARK    8  A    between atoms: C8_12  and  C9_15 
REMARK    9  A    between atoms: C9_15  and  N2_16 
REMARK   10  A    between atoms: N2_16  and  C10_18 
REMARK       I    between atoms: N3_20  and  C12_21 
REMARK   11  A    between atoms: C12_21  and  C13_23 
REMARK   12  A    between atoms: C13_23  and  N4_24 
REMARK   13  A    between atoms: C13_23  and  C19_33 
REMARK       I    between atoms: N4_24  and  C14_26 
REMARK   14  A    between atoms: C14_26  and  O6_28 
REMARK   15  A    between atoms: O6_28  and  C15_29 
REMARK   16  A    between atoms: C25_39  and  N5_40 
ROOT
HETATM    1  C10 UNL     1      20.182   3.614  18.474  1.00  0.00     0.049 C 
HETATM    2  C11 UNL     1      20.190   5.039  19.006  1.00  0.00     0.184 C 
HETATM    3  N3  UNL     1      21.477   5.357  19.587  1.00  0.00    -0.344 N 
HETATM    4  C12 UNL     1      21.736   6.735  19.887  1.00  0.00     0.243 C 
HETATM    5  O4  UNL     1      20.805   7.575  19.608  1.00  0.00    -0.271 OA
HETATM    6  C23 UNL     1      22.370   4.289  19.845  1.00  0.00     0.132 C 
HETATM    7  C24 UNL     1      22.665   3.496  18.612  1.00  0.00     0.079 C 
HETATM    8  C25 UNL     1      21.398   3.355  17.741  1.00  0.00     0.032 C 
ENDROOT
BRANCH   1   9
HETATM    9  N2  UNL     1      18.934   3.096  18.220  1.00  0.00    -0.367 N 
ATOM     10  H2  UNL     1      18.831   2.544  17.369  1.00  0.00     0.165 HD
BRANCH   9  11
HETATM   11  C9  UNL     1      17.800   3.249  19.008  1.00  0.00     0.095 C 
BRANCH  11  12
HETATM   12  C8  UNL     1      16.690   3.945  18.305  1.00  0.00     0.192 C 
BRANCH  12  13
HETATM   13  C2  UNL     1      15.737   4.765  19.159  1.00  0.00     0.197 C 
HETATM   14  C1  UNL     1      14.576   5.184  18.218  1.00  0.00     0.050 C 
BRANCH  13  15
HETATM   15  N1  UNL     1      16.440   5.965  19.553  1.00  0.00    -0.396 NA
BRANCH  15  16
HETATM   16  C3  UNL     1      17.075   7.053  19.906  1.00  0.00     0.336 C 
BRANCH  16  17
HETATM   17  O1  UNL     1      17.977   7.724  19.239  1.00  0.00    -0.316 OA
ATOM     18  H1  UNL     1      18.746   8.173  19.569  1.00  0.00     0.222 HD
ENDBRANCH  16  17
BRANCH  16  19
HETATM   19  O2  UNL     1      16.859   7.712  21.162  1.00  0.00    -0.295 OA
BRANCH  19  20
HETATM   20  C4  UNL     1      17.625   7.461  22.291  1.00  0.00     0.061 C 
HETATM   21  C5  UNL     1      18.589   8.610  22.599  1.00  0.00     0.046 C 
HETATM   22  C6  UNL     1      16.688   7.276  23.463  1.00  0.00     0.046 C 
HETATM   23  C7  UNL     1      18.426   6.182  22.141  1.00  0.00     0.046 C 
ENDBRANCH  19  20
ENDBRANCH  16  19
ENDBRANCH  15  16
ENDBRANCH  13  15
ENDBRANCH  12  13
BRANCH  12  24
HETATM   24  O3  UNL     1      15.963   3.060  17.512  1.00  0.00    -0.387 OA
ATOM     25  H3  UNL     1      15.865   3.421  16.640  1.00  0.00     0.210 HD
ENDBRANCH  12  24
ENDBRANCH  11  12
ENDBRANCH   9  11
ENDBRANCH   1   9
BRANCH   8  26
HETATM   26  N5  UNL     1      21.657   3.034  16.556  1.00  0.00    -0.391 N 
HETATM   27  C26 UNL     1      22.157   4.085  15.658  1.00  0.00     0.148 C 
HETATM   28  C27 UNL     1      21.531   1.748  15.938  1.00  0.00     0.148 C 
ENDBRANCH   8  26
BRANCH   4  29
HETATM   29  C13 UNL     1      22.941   7.294  20.478  1.00  0.00     0.186 C 
BRANCH  29  30
HETATM   30  N4  UNL     1      22.555   8.665  20.914  1.00  0.00    -0.323 N 
HETATM   31  C14 UNL     1      22.263   8.961  22.267  1.00  0.00     0.362 C 
HETATM   32  O5  UNL     1      22.334   8.039  23.111  1.00  0.00    -0.238 OA
ATOM     33  H4  UNL     1      22.501   9.410  20.220  1.00  0.00     0.165 HD
BRANCH  31  34
HETATM   34  O6  UNL     1      21.904  10.214  22.702  1.00  0.00    -0.294 OA
BRANCH  34  35
HETATM   35  C15 UNL     1      22.726  11.320  22.864  1.00  0.00     0.061 C 
HETATM   36  C16 UNL     1      23.070  12.017  21.552  1.00  0.00     0.046 C 
HETATM   37  C17 UNL     1      21.940  12.347  23.699  1.00  0.00     0.046 C 
HETATM   38  C18 UNL     1      24.007  11.054  23.619  1.00  0.00     0.046 C 
ENDBRANCH  34  35
ENDBRANCH  31  34
ENDBRANCH  29  30
BRANCH  29  39
HETATM   39  C19 UNL     1      24.103   7.476  19.490  1.00  0.00    -0.022 C 
HETATM   40  C20 UNL     1      25.272   6.585  19.793  1.00  0.00     0.017 C 
HETATM   41  C21 UNL     1      23.687   7.260  18.073  1.00  0.00     0.017 C 
HETATM   42  C22 UNL     1      24.628   8.914  19.682  1.00  0.00     0.017 C 
ENDBRANCH  29  39
ENDBRANCH   4  29
TORSDOF 16
ENDMDL
MODEL 2
REMARK VINA RESULT: -7.035868096      2.250      8.773
REMARK  16 active torsions:
REMARK  status: ('A' for Active; 'I' for Inactive)
REMARK    1  A    between atoms: C2_2  and  N1_3 
REMARK    2  A    between atoms: C2_2  and  C8_12 
REMARK    3  A    between atoms: N1_3  and  C3_4 
REMARK    4  A    between atoms: C3_4  and  O1_5 
REMARK    5  A    between atoms: C3_4  and  O2_7 
REMARK    6  A    between atoms: O2_7  and  C4_8 
REMARK    7  A    between atoms: C8_12  and  O3_13 
REMARK    8  A    between atoms: C8_12  and  C9_15 
REMARK    9  A    between atoms: C9_15  and  N2_16 
REMARK   10  A    between atoms: N2_16  and  C10_18 
REMARK       I    between atoms: N3_20  and  C12_21 
REMARK   11  A    between atoms: C12_21  and  C13_23 
REMARK   12  A    between atoms: C13_23  and  N4_24 
REMARK   13  A    between atoms: C13_23  and  C19_33 
REMARK       I    between atoms: N4_24  and  C14_26 
REMARK   14  A    between atoms: C14_26  and  O6_28 
REMARK   15  A    between atoms: O6_28  and  C15_29 
REMARK   16  A    between atoms: C25_39  and  N5_40 
ROOT
HETATM    1  C10 UNL     1      21.413   8.683  21.140  1.00  0.00     0.049 C 
HETATM    2  C11 UNL     1      20.199   8.324  20.296  1.00  0.00     0.184 C 
HETATM    3  N3  UNL     1      19.344   7.397  21.007  1.00  0.00    -0.344 N 
HETATM    4  C12 UNL     1      18.035   7.171  20.466  1.00  0.00     0.243 C 
HETATM    5  O4  UNL     1      17.727   7.817  19.399  1.00  0.00    -0.271 OA
HETATM    6  C23 UNL     1      19.867   6.760  22.157  1.00  0.00     0.132 C 
HETATM    7  C24 UNL     1      20.334   7.746  23.179  1.00  0.00     0.079 C 
HETATM    8  C25 UNL     1      21.005   8.958  22.497  1.00  0.00     0.032 C 
ENDROOT
BRANCH   1   9
HETATM    9  N2  UNL     1      22.448   9.269  20.451  1.00  0.00    -0.367 N 
ATOM     10  H2  UNL     1      22.345  10.258  20.221  1.00  0.00     0.165 HD
BRANCH   9  11
HETATM   11  C9  UNL     1      23.620   8.648  20.036  1.00  0.00     0.095 C 
BRANCH  11  12
HETATM   12  C8  UNL     1      23.402   7.661  18.945  1.00  0.00     0.192 C 
BRANCH  12  13
HETATM   13  C2  UNL     1      24.077   6.308  19.093  1.00  0.00     0.197 C 
HETATM   14  C1  UNL     1      25.594   6.602  19.246  1.00  0.00     0.050 C 
BRANCH  13  15
HETATM   15  N1  UNL     1      23.890   5.597  17.848  1.00  0.00    -0.396 NA
BRANCH  15  16
HETATM   16  C3  UNL     1      23.717   4.955  16.722  1.00  0.00     0.336 C 
BRANCH  16  17
HETATM   17  O1  UNL     1      24.215   5.224  15.543  1.00  0.00    -0.316 OA
ATOM     18  H1  UNL     1      23.911   5.854  14.901  1.00  0.00     0.222 HD
ENDBRANCH  16  17
BRANCH  16  19
HETATM   19  O2  UNL     1      22.899   3.781  16.609  1.00  0.00    -0.295 OA
BRANCH  19  20
HETATM   20  C4  UNL     1      23.136   2.621  17.332  1.00  0.00     0.061 C 
HETATM   21  C5  UNL     1      22.735   2.769  18.802  1.00  0.00     0.046 C 
HETATM   22  C6  UNL     1      22.325   1.507  16.711  1.00  0.00     0.046 C 
HETATM   23  C7  UNL     1      24.595   2.216  17.264  1.00  0.00     0.046 C 
ENDBRANCH  19  20
ENDBRANCH  16  19
ENDBRANCH  15  16
ENDBRANCH  13  15
ENDBRANCH  12  13
BRANCH  12  24
HETATM   24  O3  UNL     1      23.718   8.206  17.703  1.00  0.00    -0.387 OA
ATOM     25  H3  UNL     1      24.468   8.782  17.789  1.00  0.00     0.210 HD
ENDBRANCH  12  24
ENDBRANCH  11  12
ENDBRANCH   9  11
ENDBRANCH   1   9
BRANCH   8  26
HETATM   26  N5  UNL     1      21.080   9.959  23.251  1.00  0.00    -0.391 N 
HETATM   27  C26 UNL     1      19.912  10.272  24.087  1.00  0.00     0.148 C 
HETATM   28  C27 UNL     1      22.177  10.864  23.416  1.00  0.00     0.148 C 
ENDBRANCH   8  26
BRANCH   4  29
HETATM   29  C13 UNL     1      17.008   6.286  20.991  1.00  0.00     0.186 C 
BRANCH  29  30
HETATM   30  N4  UNL     1      16.250   5.824  19.795  1.00  0.00    -0.323 N 
HETATM   31  C14 UNL     1      16.464   4.546  19.225  1.00  0.00     0.362 C 
HETATM   32  O5  UNL     1      17.314   3.791  19.749  1.00  0.00    -0.238 OA
ATOM     33  H4  UNL     1      15.558   6.445  19.375  1.00  0.00     0.165 HD
BRANCH  31  34
HETATM   34  O6  UNL     1      15.781   4.091  18.123  1.00  0.00    -0.294 OA
BRANCH  34  35
HETATM   35  C15 UNL     1      14.442   3.736  18.045  1.00  0.00     0.061 C 
HETATM   36  C16 UNL     1      13.546   4.861  17.538  1.00  0.00     0.046 C 
HETATM   37  C17 UNL     1      14.335   2.605  17.005  1.00  0.00     0.046 C 
HETATM   38  C18 UNL     1      13.854   3.191  19.325  1.00  0.00     0.046 C 
ENDBRANCH  34  35
ENDBRANCH  31  34
ENDBRANCH  29  30
BRANCH  29  39
HETATM   39  C19 UNL     1      15.983   6.978  21.901  1.00  0.00    -0.022 C 
HETATM   40  C20 UNL     1      16.542   7.332  23.248  1.00  0.00     0.017 C 
HETATM   41  C21 UNL     1      15.406   8.206  21.281  1.00  0.00     0.017 C 
HETATM   42  C22 UNL     1      14.871   5.945  22.183  1.00  0.00     0.017 C 
ENDBRANCH  29  39
ENDBRANCH   4  29
TORSDOF 16
ENDMDL
MODEL 3
REMARK VINA RESULT: -7.016557137      2.297      7.982
REMARK  16 active torsions:
REMARK  status: ('A' for Active; 'I' for Inactive)
REMARK    1  A    between atoms: C2_2  and  N1_3 
REMARK    2  A    between atoms: C2_2  and  C8_12 
REMARK    3  A    between atoms: N1_3  and  C3_4 
REMARK    4  A    between atoms: C3_4  and  O1_5 
REMARK    5  A    between atoms: C3_4  and  O2_7 
REMARK    6  A    between atoms: O2_7  and  C4_8 
REMARK    7  A    between atoms: C8_12  and  O3_13 
REMARK    8  A    between atoms: C8_12  and  C9_15 
REMARK    9  A    between atoms: C9_15  and  N2_16 
REMARK   10  A    between atoms: N2_16  and  C10_18 
REMARK       I    between atoms: N3_20  and  C12_21 
REMARK   11  A    between atoms: C12_21  and  C13_23 
REMARK   12  A    between atoms: C13_23  and  N4_24 
REMARK   13  A    between atoms: C13_23  and  C19_33 
REMARK       I    between atoms: N4_24  and  C14_26 
REMARK   14  A    between atoms: C14_26  and  O6_28 
REMARK   15  A    between atoms: O6_28  and  C15_29 
REMARK   16  A    between atoms: C25_39  and  N5_40 
ROOT
HETATM    1  C10 UNL     1      23.151   7.123  19.339  1.00  0.00     0.049 C 
HETATM    2  C11 UNL     1      21.841   6.815  18.630  1.00  0.00     0.184 C 
HETATM    3  N3  UNL     1      20.840   6.378  19.579  1.00  0.00    -0.344 N 
HETATM    4  C12 UNL     1      19.485   6.310  19.114  1.00  0.00     0.243 C 
HETATM    5  O4  UNL     1      19.272   6.649  17.893  1.00  0.00    -0.271 OA
HETATM    6  C23 UNL     1      21.270   6.022  20.879  1.00  0.00     0.132 C 
HETATM    7  C24 UNL     1      22.006   7.137  21.551  1.00  0.00     0.079 C 
HETATM    8  C25 UNL     1      22.895   7.888  20.535  1.00  0.00     0.032 C 
ENDROOT
BRANCH   1   9
HETATM    9  N2  UNL     1      24.251   7.209  18.519  1.00  0.00    -0.367 N 
ATOM     10  H2  UNL     1      24.526   8.144  18.216  1.00  0.00     0.165 HD
BRANCH   9  11
HETATM   11  C9  UNL     1      25.024   6.150  18.060  1.00  0.00     0.095 C 
BRANCH  11  12
HETATM   12  C8  UNL     1      24.614   5.667  16.715  1.00  0.00     0.192 C 
BRANCH  12  13
HETATM   13  C2  UNL     1      24.080   4.247  16.623  1.00  0.00     0.197 C 
HETATM   14  C1  UNL     1      22.753   4.342  15.825  1.00  0.00     0.050 C 
BRANCH  13  15
HETATM   15  N1  UNL     1      23.756   3.824  17.968  1.00  0.00    -0.396 NA
BRANCH  15  16
HETATM   16  C3  UNL     1      23.465   3.444  19.185  1.00  0.00     0.336 C 
BRANCH  16  17
HETATM   17  O1  UNL     1      24.234   3.431  20.242  1.00  0.00    -0.316 OA
ATOM     18  H1  UNL     1      24.308   4.082  20.929  1.00  0.00     0.222 HD
ENDBRANCH  16  17
BRANCH  16  19
HETATM   19  O2  UNL     1      22.171   2.952  19.563  1.00  0.00    -0.295 OA
BRANCH  19  20
HETATM   20  C4  UNL     1      21.577   1.848  18.969  1.00  0.00     0.061 C 
HETATM   21  C5  UNL     1      22.602   0.951  18.269  1.00  0.00     0.046 C 
HETATM   22  C6  UNL     1      20.881   1.051  20.048  1.00  0.00     0.046 C 
HETATM   23  C7  UNL     1      20.526   2.262  17.959  1.00  0.00     0.046 C 
ENDBRANCH  19  20
ENDBRANCH  16  19
ENDBRANCH  15  16
ENDBRANCH  13  15
ENDBRANCH  12  13
BRANCH  12  24
HETATM   24  O3  UNL     1      25.636   5.843  15.784  1.00  0.00    -0.387 OA
ATOM     25  H3  UNL     1      26.199   6.555  16.061  1.00  0.00     0.210 HD
ENDBRANCH  12  24
ENDBRANCH  11  12
ENDBRANCH   9  11
ENDBRANCH   1   9
BRANCH   8  26
HETATM   26  N5  UNL     1      23.239   9.026  20.940  1.00  0.00    -0.391 N 
HETATM   27  C26 UNL     1      23.021   9.338  22.360  1.00  0.00     0.148 C 
HETATM   28  C27 UNL     1      23.831  10.092  20.190  1.00  0.00     0.148 C 
ENDBRANCH   8  26
BRANCH   4  29
HETATM   29  C13 UNL     1      18.316   5.895  19.872  1.00  0.00     0.186 C 
BRANCH  29  30
HETATM   30  N4  UNL     1      17.319   5.481  18.845  1.00  0.00    -0.323 N 
HETATM   31  C14 UNL     1      16.945   4.126  18.674  1.00  0.00     0.362 C 
HETATM   32  O5  UNL     1      17.471   3.262  19.411  1.00  0.00    -0.238 OA
ATOM     33  H4  UNL     1      16.895   6.192  18.250  1.00  0.00     0.165 HD
BRANCH  31  34
HETATM   34  O6  UNL     1      16.029   3.712  17.737  1.00  0.00    -0.294 OA
BRANCH  34  35
HETATM   35  C15 UNL     1      14.651   3.635  17.878  1.00  0.00     0.061 C 
HETATM   36  C16 UNL     1      13.926   4.910  17.460  1.00  0.00     0.046 C 
HETATM   37  C17 UNL     1      14.161   2.533  16.922  1.00  0.00     0.046 C 
HETATM   38  C18 UNL     1      14.175   3.241  19.257  1.00  0.00     0.046 C 
ENDBRANCH  34  35
ENDBRANCH  31  34
ENDBRANCH  29  30
BRANCH  29  39
HETATM   39  C19 UNL     1      17.652   7.022  20.677  1.00  0.00    -0.022 C 
HETATM   40  C20 UNL     1      18.522   8.238  20.806  1.00  0.00     0.017 C 
HETATM   41  C21 UNL     1      16.334   7.429  20.109  1.00  0.00     0.017 C 
HETATM   42  C22 UNL     1      17.477   6.494  22.117  1.00  0.00     0.017 C 
ENDBRANCH  29  39
ENDBRANCH   4  29
TORSDOF 16
ENDMDL
MODEL 4
REMARK VINA RESULT: -7.006192223      2.258      8.923
REMARK  16 active torsions:
REMARK  status: ('A' for Active; 'I' for Inactive)
REMARK    1  A    between atoms: C2_2  and  N1_3 
REMARK    2  A    between atoms: C2_2  and  C8_12 
REMARK    3  A    between atoms: N1_3  and  C3_4 
REMARK    4  A    between atoms: C3_4  and  O1_5 
REMARK    5  A    between atoms: C3_4  and  O2_7 
REMARK    6  A    between atoms: O2_7  and  C4_8 
REMARK    7  A    between atoms: C8_12  and  O3_13 
REMARK    8  A    between atoms: C8_12  and  C9_15 
REMARK    9  A    between atoms: C9_15  and  N2_16 
REMARK   10  A    between atoms: N2_16  and  C10_18 
REMARK       I    between atoms: N3_20  and  C12_21 
REMARK   11  A    between atoms: C12_21  and  C13_23 
REMARK   12  A    between atoms: C13_23  and  N4_24 
REMARK   13  A    between atoms: C13_23  and  C19_33 
REMARK       I    between atoms: N4_24  and  C14_26 
REMARK   14  A    between atoms: C14_26  and  O6_28 
REMARK   15  A    between atoms: O6_28  and  C15_29 
REMARK   16  A    between atoms: C25_39  and  N5_40 
ROOT
HETATM    1  C10 UNL     1      20.958   8.807  21.408  1.00  0.00     0.049 C 
HETATM    2  C11 UNL     1      19.806   8.369  20.517  1.00  0.00     0.184 C 
HETATM    3  N3  UNL     1      19.001   7.366  21.183  1.00  0.00    -0.344 N 
HETATM    4  C12 UNL     1      17.734   7.049  20.593  1.00  0.00     0.243 C 
HETATM    5  O4  UNL     1      17.413   7.686  19.524  1.00  0.00    -0.271 OA
HETATM    6  C23 UNL     1      19.533   6.753  22.342  1.00  0.00     0.132 C 
HETATM    7  C24 UNL     1      19.885   7.754  23.394  1.00  0.00     0.079 C 
HETATM    8  C25 UNL     1      20.483   9.026  22.754  1.00  0.00     0.032 C 
ENDROOT
BRANCH   1   9
HETATM    9  N2  UNL     1      21.967   9.483  20.765  1.00  0.00    -0.367 N 
ATOM     10  H2  UNL     1      21.748  10.420  20.425  1.00  0.00     0.165 HD
BRANCH   9  11
HETATM   11  C9  UNL     1      23.254   9.017  20.530  1.00  0.00     0.095 C 
BRANCH  11  12
HETATM   12  C8  UNL     1      23.284   7.634  19.985  1.00  0.00     0.192 C 
BRANCH  12  13
HETATM   13  C2  UNL     1      24.443   6.747  20.411  1.00  0.00     0.197 C 
HETATM   14  C1  UNL     1      25.651   7.177  19.537  1.00  0.00     0.050 C 
BRANCH  13  15
HETATM   15  N1  UNL     1      24.099   5.390  20.049  1.00  0.00    -0.396 NA
BRANCH  15  16
HETATM   16  C3  UNL     1      23.790   4.161  19.725  1.00  0.00     0.336 C 
BRANCH  16  17
HETATM   17  O1  UNL     1      24.094   3.052  20.347  1.00  0.00    -0.316 OA
ATOM     18  H1  UNL     1      23.588   2.577  20.995  1.00  0.00     0.222 HD
ENDBRANCH  16  17
BRANCH  16  19
HETATM   19  O2  UNL     1      23.021   3.828  18.561  1.00  0.00    -0.295 OA
BRANCH  19  20
HETATM   20  C4  UNL     1      23.592   3.570  17.324  1.00  0.00     0.061 C 
HETATM   21  C5  UNL     1      24.381   2.258  17.317  1.00  0.00     0.046 C 
HETATM   22  C6  UNL     1      22.482   3.482  16.302  1.00  0.00     0.046 C 
HETATM   23  C7  UNL     1      24.517   4.693  16.897  1.00  0.00     0.046 C 
ENDBRANCH  19  20
ENDBRANCH  16  19
ENDBRANCH  15  16
ENDBRANCH  13  15
ENDBRANCH  12  13
BRANCH  12  24
HETATM   24  O3  UNL     1      23.186   7.638  18.595  1.00  0.00    -0.387 OA
ATOM     25  H3  UNL     1      23.168   8.534  18.280  1.00  0.00     0.210 HD
ENDBRANCH  12  24
ENDBRANCH  11  12
ENDBRANCH   9  11
ENDBRANCH   1   9
BRANCH   8  26
HETATM   26  N5  UNL     1      20.454  10.017  23.524  1.00  0.00    -0.391 N 
HETATM   27  C26 UNL     1      19.173  10.342  24.167  1.00  0.00     0.148 C 
HETATM   28  C27 UNL     1      21.525  10.900  23.873  1.00  0.00     0.148 C 
ENDBRANCH   8  26
BRANCH   4  29
HETATM   29  C13 UNL     1      16.762   6.078  21.068  1.00  0.00     0.186 C 
BRANCH  29  30
HETATM   30  N4  UNL     1      16.030   5.636  19.848  1.00  0.00    -0.323 N 
HETATM   31  C14 UNL     1      16.287   4.385  19.237  1.00  0.00     0.362 C 
HETATM   32  O5  UNL     1      17.153   3.637  19.745  1.00  0.00    -0.238 OA
ATOM     33  H4  UNL     1      15.325   6.251  19.442  1.00  0.00     0.165 HD
BRANCH  31  34
HETATM   34  O6  UNL     1      15.630   3.949  18.112  1.00  0.00    -0.294 OA
BRANCH  34  35
HETATM   35  C15 UNL     1      14.280   3.653  17.982  1.00  0.00     0.061 C 
HETATM   36  C16 UNL     1      13.445   4.833  17.498  1.00  0.00     0.046 C 
HETATM   37  C17 UNL     1      14.159   2.570  16.895  1.00  0.00     0.046 C 
HETATM   38  C18 UNL     1      13.634   3.081  19.223  1.00  0.00     0.046 C 
ENDBRANCH  34  35
ENDBRANCH  31  34
ENDBRANCH  29  30
BRANCH  29  39
HETATM   39  C19 UNL     1      15.699   6.658  22.013  1.00  0.00    -0.022 C 
HETATM   40  C20 UNL     1      16.178   6.776  23.430  1.00  0.00     0.017 C 
HETATM   41  C21 UNL     1      15.199   7.989  21.560  1.00  0.00     0.017 C 
HETATM   42  C22 UNL     1      14.542   5.637  22.059  1.00  0.00     0.017 C 
ENDBRANCH  29  39
ENDBRANCH   4  29
TORSDOF 16
ENDMDL
MODEL 5
REMARK VINA RESULT: -6.986514721      2.827      8.524
REMARK  16 active torsions:
REMARK  status: ('A' for Active; 'I' for Inactive)
REMARK    1  A    between atoms: C2_2  and  N1_3 
REMARK    2  A    between atoms: C2_2  and  C8_12 
REMARK    3  A    between atoms: N1_3  and  C3_4 
REMARK    4  A    between atoms: C3_4  and  O1_5 
REMARK    5  A    between atoms: C3_4  and  O2_7 
REMARK    6  A    between atoms: O2_7  and  C4_8 
REMARK    7  A    between atoms: C8_12  and  O3_13 
REMARK    8  A    between atoms: C8_12  and  C9_15 
REMARK    9  A    between atoms: C9_15  and  N2_16 
REMARK   10  A    between atoms: N2_16  and  C10_18 
REMARK       I    between atoms: N3_20  and  C12_21 
REMARK   11  A    between atoms: C12_21  and  C13_23 
REMARK   12  A    between atoms: C13_23  and  N4_24 
REMARK   13  A    between atoms: C13_23  and  C19_33 
REMARK       I    between atoms: N4_24  and  C14_26 
REMARK   14  A    between atoms: C14_26  and  O6_28 
REMARK   15  A    between atoms: O6_28  and  C15_29 
REMARK   16  A    between atoms: C25_39  and  N5_40 
ROOT
HETATM    1  C10 UNL     1      22.812   9.488  22.608  1.00  0.00     0.049 C 
HETATM    2  C11 UNL     1      23.475   9.621  21.245  1.00  0.00     0.184 C 
HETATM    3  N3  UNL     1      23.404   8.369  20.522  1.00  0.00    -0.344 N 
HETATM    4  C12 UNL     1      23.739   8.400  19.128  1.00  0.00     0.243 C 
HETATM    5  O4  UNL     1      24.068   9.540  18.634  1.00  0.00    -0.271 OA
HETATM    6  C23 UNL     1      23.044   7.206  21.244  1.00  0.00     0.132 C 
HETATM    7  C24 UNL     1      21.721   7.357  21.923  1.00  0.00     0.079 C 
HETATM    8  C25 UNL     1      21.556   8.789  22.478  1.00  0.00     0.032 C 
ENDROOT
BRANCH   1   9
HETATM    9  N2  UNL     1      23.117  10.486  23.502  1.00  0.00    -0.367 N 
ATOM     10  H2  UNL     1      22.974  10.277  24.490  1.00  0.00     0.165 HD
BRANCH   9  11
HETATM   11  C9  UNL     1      23.599  11.752  23.194  1.00  0.00     0.095 C 
BRANCH  11  12
HETATM   12  C8  UNL     1      25.070  11.876  23.374  1.00  0.00     0.192 C 
BRANCH  12  13
HETATM   13  C2  UNL     1      25.555  12.585  24.628  1.00  0.00     0.197 C 
HETATM   14  C1  UNL     1      26.825  11.820  25.086  1.00  0.00     0.050 C 
BRANCH  13  15
HETATM   15  N1  UNL     1      24.542  12.403  25.643  1.00  0.00    -0.396 NA
BRANCH  15  16
HETATM   16  C3  UNL     1      23.625  12.242  26.562  1.00  0.00     0.336 C 
BRANCH  16  17
HETATM   17  O1  UNL     1      23.776  12.129  27.855  1.00  0.00    -0.316 OA
ATOM     18  H1  UNL     1      23.441  12.691  28.544  1.00  0.00     0.222 HD
ENDBRANCH  16  17
BRANCH  16  19
HETATM   19  O2  UNL     1      22.223  12.163  26.263  1.00  0.00    -0.295 OA
BRANCH  19  20
HETATM   20  C4  UNL     1      21.420  13.280  26.093  1.00  0.00     0.061 C 
HETATM   21  C5  UNL     1      20.750  13.304  24.717  1.00  0.00     0.046 C 
HETATM   22  C6  UNL     1      20.351  13.258  27.162  1.00  0.00     0.046 C 
HETATM   23  C7  UNL     1      22.212  14.561  26.268  1.00  0.00     0.046 C 
ENDBRANCH  19  20
ENDBRANCH  16  19
ENDBRANCH  15  16
ENDBRANCH  13  15
ENDBRANCH  12  13
BRANCH  12  24
HETATM   24  O3  UNL     1      25.668  12.447  22.254  1.00  0.00    -0.387 OA
ATOM     25  H3  UNL     1      25.754  11.793  21.571  1.00  0.00     0.210 HD
ENDBRANCH  12  24
ENDBRANCH  11  12
ENDBRANCH   9  11
ENDBRANCH   1   9
BRANCH   8  26
HETATM   26  N5  UNL     1      20.360   9.080  22.722  1.00  0.00    -0.391 N 
HETATM   27  C26 UNL     1      19.334   8.582  21.794  1.00  0.00     0.148 C 
HETATM   28  C27 UNL     1      19.839   9.851  23.811  1.00  0.00     0.148 C 
ENDBRANCH   8  26
BRANCH   4  29
HETATM   29  C13 UNL     1      23.752   7.279  18.202  1.00  0.00     0.186 C 
BRANCH  29  30
HETATM   30  N4  UNL     1      22.438   6.606  18.395  1.00  0.00    -0.323 N 
HETATM   31  C14 UNL     1      21.474   6.543  17.359  1.00  0.00     0.362 C 
HETATM   32  O5  UNL     1      21.746   7.070  16.256  1.00  0.00    -0.238 OA
ATOM     33  H4  UNL     1      22.226   6.178  19.296  1.00  0.00     0.165 HD
BRANCH  31  34
HETATM   34  O6  UNL     1      20.253   5.930  17.504  1.00  0.00    -0.294 OA
BRANCH  34  35
HETATM   35  C15 UNL     1      20.000   4.654  17.986  1.00  0.00     0.061 C 
HETATM   36  C16 UNL     1      20.274   4.505  19.479  1.00  0.00     0.046 C 
HETATM   37  C17 UNL     1      18.494   4.393  17.801  1.00  0.00     0.046 C 
HETATM   38  C18 UNL     1      20.716   3.544  17.252  1.00  0.00     0.046 C 
ENDBRANCH  34  35
ENDBRANCH  31  34
ENDBRANCH  29  30
BRANCH  29  39
HETATM   39  C19 UNL     1      24.820   6.219  18.509  1.00  0.00    -0.022 C 
HETATM   40  C20 UNL     1      25.965   6.759  19.315  1.00  0.00     0.017 C 
HETATM   41  C21 UNL     1      24.257   5.028  19.210  1.00  0.00     0.017 C 
HETATM   42  C22 UNL     1      25.436   5.804  17.156  1.00  0.00     0.017 C 
ENDBRANCH  29  39
ENDBRANCH   4  29
TORSDOF 16
ENDMDL
