MODEL 1
REMARK VINA RESULT: -5.449307710      0.000      0.000
REMARK  2 active torsions:
REMARK  status: ('A' for Active; 'I' for Inactive)
REMARK    1  A    between atoms: C2_2  and  N1_3 
REMARK    2  A    between atoms: C7_9  and  O1_10 
ROOT
HETATM    1  N1  UNL     1      17.477   3.320  13.527  1.00  0.00     0.091 N 
HETATM    2  C3  UNL     1      16.736   4.555  13.678  1.00  0.00     0.280 C 
HETATM    3  C4  UNL     1      16.500   4.589  15.167  1.00  0.00     0.053 C 
HETATM    4  C5  UNL     1      15.060   4.562  15.599  1.00  0.00     0.033 C 
HETATM    5  C6  UNL     1      15.272   3.209  16.258  1.00  0.00     0.119 C 
HETATM    6 CL1  UNL     1      15.425   3.311  18.046  1.00  0.00    -0.122 Cl
HETATM    7  C7  UNL     1      16.628   3.153  15.639  1.00  0.00     0.106 C 
HETATM    8  C8  UNL     1      16.692   2.407  14.301  1.00  0.00     0.312 C 
ENDROOT
BRANCH   1   9
HETATM    9  C2  UNL     1      17.647   2.940  12.153  1.00  0.00     0.268 C 
HETATM   10  C1  UNL     1      16.782   1.819  11.712  1.00  0.00     0.037 C 
ENDBRANCH   1   9
BRANCH   7  11
HETATM   11  O1  UNL     1      17.699   2.948  16.470  1.00  0.00    -0.386 OA
ATOM     12  H1  UNL     1      18.131   2.113  16.328  1.00  0.00     0.210 HD
ENDBRANCH   7  11
TORSDOF 2
ENDMDL
MODEL 2
REMARK VINA RESULT: -5.144278250      0.800      1.152
REMARK  2 active torsions:
REMARK  status: ('A' for Active; 'I' for Inactive)
REMARK    1  A    between atoms: C2_2  and  N1_3 
REMARK    2  A    between atoms: C7_9  and  O1_10 
ROOT
HETATM    1  N1  UNL     1      17.527   3.791  13.643  1.00  0.00     0.091 N 
HETATM    2  C3  UNL     1      16.733   4.926  14.065  1.00  0.00     0.280 C 
HETATM    3  C4  UNL     1      16.475   4.595  15.513  1.00  0.00     0.053 C 
HETATM    4  C5  UNL     1      15.031   4.413  15.891  1.00  0.00     0.033 C 
HETATM    5  C6  UNL     1      15.289   2.950  16.215  1.00  0.00     0.119 C 
HETATM    6 CL1  UNL     1      15.411   2.629  17.979  1.00  0.00    -0.122 Cl
HETATM    7  C7  UNL     1      16.654   3.095  15.633  1.00  0.00     0.106 C 
HETATM    8  C8  UNL     1      16.770   2.692  14.159  1.00  0.00     0.312 C 
ENDROOT
BRANCH   1   9
HETATM    9  C2  UNL     1      17.733   3.756  12.222  1.00  0.00     0.268 C 
HETATM   10  C1  UNL     1      18.393   4.962  11.665  1.00  0.00     0.037 C 
ENDBRANCH   1   9
BRANCH   7  11
HETATM   11  O1  UNL     1      17.721   2.736  16.418  1.00  0.00    -0.386 OA
ATOM     12  H1  UNL     1      17.582   1.927  16.896  1.00  0.00     0.210 HD
ENDBRANCH   7  11
TORSDOF 2
ENDMDL
MODEL 3
REMARK VINA RESULT: -5.112525350      2.893      3.864
REMARK  2 active torsions:
REMARK  status: ('A' for Active; 'I' for Inactive)
REMARK    1  A    between atoms: C2_2  and  N1_3 
REMARK    2  A    between atoms: C7_9  and  O1_10 
ROOT
HETATM    1  N1  UNL     1      15.891   3.237  15.742  1.00  0.00     0.091 N 
HETATM    2  C3  UNL     1      15.255   4.499  15.425  1.00  0.00     0.280 C 
HETATM    3  C4  UNL     1      16.205   5.070  14.403  1.00  0.00     0.053 C 
HETATM    4  C5  UNL     1      16.864   6.368  14.780  1.00  0.00     0.033 C 
HETATM    5  C6  UNL     1      18.222   5.686  14.794  1.00  0.00     0.119 C 
HETATM    6 CL1  UNL     1      19.203   6.037  13.329  1.00  0.00    -0.122 Cl
HETATM    7  C7  UNL     1      17.531   4.374  14.636  1.00  0.00     0.106 C 
HETATM    8  C8  UNL     1      17.250   3.634  15.948  1.00  0.00     0.312 C 
ENDROOT
BRANCH   1   9
HETATM    9  C2  UNL     1      15.287   2.579  16.866  1.00  0.00     0.268 C 
HETATM   10  C1  UNL     1      13.839   2.852  17.036  1.00  0.00     0.037 C 
ENDBRANCH   1   9
BRANCH   7  11
HETATM   11  O1  UNL     1      17.917   3.575  13.590  1.00  0.00    -0.386 OA
ATOM     12  H1  UNL     1      18.762   3.813  13.226  1.00  0.00     0.210 HD
ENDBRANCH   7  11
TORSDOF 2
ENDMDL
MODEL 4
REMARK VINA RESULT: -4.939074560      3.184      4.610
REMARK  2 active torsions:
REMARK  status: ('A' for Active; 'I' for Inactive)
REMARK    1  A    between atoms: C2_2  and  N1_3 
REMARK    2  A    between atoms: C7_9  and  O1_10 
ROOT
HETATM    1  N1  UNL     1      16.317   3.981  12.761  1.00  0.00     0.091 N 
HETATM    2  C3  UNL     1      16.009   3.763  11.363  1.00  0.00     0.280 C 
HETATM    3  C4  UNL     1      16.264   2.284  11.223  1.00  0.00     0.053 C 
HETATM    4  C5  UNL     1      17.351   1.899  10.257  1.00  0.00     0.033 C 
HETATM    5  C6  UNL     1      18.180   1.334  11.399  1.00  0.00     0.119 C 
HETATM    6 CL1  UNL     1      18.129  -0.461  11.488  1.00  0.00    -0.122 Cl
HETATM    7  C7  UNL     1      17.197   1.914  12.359  1.00  0.00     0.106 C 
HETATM    8  C8  UNL     1      17.568   3.300  12.899  1.00  0.00     0.312 C 
ENDROOT
BRANCH   1   9
HETATM    9  C2  UNL     1      16.357   5.374  13.110  1.00  0.00     0.268 C 
HETATM   10  C1  UNL     1      15.733   5.701  14.415  1.00  0.00     0.037 C 
ENDBRANCH   1   9
BRANCH   7  11
HETATM   11  O1  UNL     1      16.628   1.068  13.276  1.00  0.00    -0.386 OA
ATOM     12  H1  UNL     1      15.804   0.695  12.984  1.00  0.00     0.210 HD
ENDBRANCH   7  11
TORSDOF 2
ENDMDL
MODEL 5
REMARK VINA RESULT: -4.938842669      3.460      4.665
REMARK  2 active torsions:
REMARK  status: ('A' for Active; 'I' for Inactive)
REMARK    1  A    between atoms: C2_2  and  N1_3 
REMARK    2  A    between atoms: C7_9  and  O1_10 
ROOT
HETATM    1  N1  UNL     1      16.490   5.752  13.140  1.00  0.00     0.091 N 
HETATM    2  C3  UNL     1      17.812   5.537  12.589  1.00  0.00     0.280 C 
HETATM    3  C4  UNL     1      17.553   4.429  11.600  1.00  0.00     0.053 C 
HETATM    4  C5  UNL     1      18.284   3.141  11.860  1.00  0.00     0.033 C 
HETATM    5  C6  UNL     1      16.963   2.429  12.107  1.00  0.00     0.119 C 
HETATM    6 CL1  UNL     1      16.434   1.422  10.716  1.00  0.00    -0.122 Cl
HETATM    7  C7  UNL     1      16.277   3.752  12.061  1.00  0.00     0.106 C 
HETATM    8  C8  UNL     1      16.068   4.415  13.428  1.00  0.00     0.312 C 
ENDROOT
BRANCH   1   9
HETATM    9  C2  UNL     1      16.499   6.629  14.277  1.00  0.00     0.268 C 
HETATM   10  C1  UNL     1      15.228   6.661  15.041  1.00  0.00     0.037 C 
ENDBRANCH   1   9
BRANCH   7  11
HETATM   11  O1  UNL     1      15.236   3.898  11.181  1.00  0.00    -0.386 OA
ATOM     12  H1  UNL     1      14.570   3.225  11.269  1.00  0.00     0.210 HD
ENDBRANCH   7  11
TORSDOF 2
ENDMDL
