MODEL 1
REMARK VINA RESULT: -4.245012580      0.000      0.000
REMARK  2 active torsions:
REMARK  status: ('A' for Active; 'I' for Inactive)
REMARK    1  A    between atoms: O1_1  and  C1_3 
REMARK    2  A    between atoms: C1_3  and  C2_4 
ROOT
HETATM    1  C2  UNL     1       5.533  -3.194  16.052  1.00  0.00     0.141 C 
HETATM    2 BR1  UNL     1       5.874  -4.826  15.080  1.00  0.00    -0.052 Br
HETATM    3  C3  UNL     1       5.423  -3.411  17.545  1.00  0.00     0.078 C 
HETATM    4  C4  UNL     1       6.220  -2.133  17.511  1.00  0.00     0.174 C 
HETATM    5  O2  UNL     1       6.616  -2.349  16.194  1.00  0.00    -0.366 OA
ENDROOT
BRANCH   1   6
HETATM    6  C1  UNL     1       4.260  -2.544  15.543  1.00  0.00     0.214 C 
BRANCH   6   7
HETATM    7  O1  UNL     1       3.224  -3.185  16.226  1.00  0.00    -0.397 OA
ATOM      8  H1  UNL     1       2.808  -2.504  16.742  1.00  0.00     0.209 HD
ENDBRANCH   6   7
ENDBRANCH   1   6
TORSDOF 2
ENDMDL
MODEL 2
REMARK VINA RESULT: -4.111205549      2.015      2.930
REMARK  2 active torsions:
REMARK  status: ('A' for Active; 'I' for Inactive)
REMARK    1  A    between atoms: O1_1  and  C1_3 
REMARK    2  A    between atoms: C1_3  and  C2_4 
ROOT
HETATM    1  C2  UNL     1       4.423  -3.394  15.829  1.00  0.00     0.141 C 
HETATM    2 BR1  UNL     1       5.651  -2.819  17.201  1.00  0.00    -0.052 Br
HETATM    3  C3  UNL     1       4.667  -4.817  15.380  1.00  0.00     0.078 C 
HETATM    4  C4  UNL     1       3.162  -4.798  15.423  1.00  0.00     0.174 C 
HETATM    5  O2  UNL     1       3.144  -3.686  16.261  1.00  0.00    -0.366 OA
ENDROOT
BRANCH   1   6
HETATM    6  C1  UNL     1       4.511  -2.467  14.632  1.00  0.00     0.214 C 
BRANCH   6   7
HETATM    7  O1  UNL     1       4.755  -1.200  15.167  1.00  0.00    -0.397 OA
ATOM      8  H1  UNL     1       5.097  -0.686  14.445  1.00  0.00     0.209 HD
ENDBRANCH   6   7
ENDBRANCH   1   6
TORSDOF 2
ENDMDL
MODEL 3
REMARK VINA RESULT: -3.925381955      4.625      5.280
REMARK  2 active torsions:
REMARK  status: ('A' for Active; 'I' for Inactive)
REMARK    1  A    between atoms: O1_1  and  C1_3 
REMARK    2  A    between atoms: C1_3  and  C2_4 
ROOT
HETATM    1  C2  UNL     1       4.281  -2.351  11.923  1.00  0.00     0.141 C 
HETATM    2 BR1  UNL     1       4.358  -3.747  13.252  1.00  0.00    -0.052 Br
HETATM    3  C3  UNL     1       2.873  -2.066  11.449  1.00  0.00     0.078 C 
HETATM    4  C4  UNL     1       3.416  -0.665  11.550  1.00  0.00     0.174 C 
HETATM    5  O2  UNL     1       4.444  -1.066  12.400  1.00  0.00    -0.366 OA
ENDROOT
BRANCH   1   6
HETATM    6  C1  UNL     1       5.147  -2.720  10.733  1.00  0.00     0.214 C 
BRANCH   6   7
HETATM    7  O1  UNL     1       5.890  -3.827  11.151  1.00  0.00    -0.397 OA
ATOM      8  H1  UNL     1       5.851  -4.440  10.426  1.00  0.00     0.209 HD
ENDBRANCH   6   7
ENDBRANCH   1   6
TORSDOF 2
ENDMDL
MODEL 4
REMARK VINA RESULT: -3.897311920      1.428      1.586
REMARK  2 active torsions:
REMARK  status: ('A' for Active; 'I' for Inactive)
REMARK    1  A    between atoms: O1_1  and  C1_3 
REMARK    2  A    between atoms: C1_3  and  C2_4 
ROOT
HETATM    1  C2  UNL     1       5.133  -3.643  15.348  1.00  0.00     0.141 C 
HETATM    2 BR1  UNL     1       4.734  -3.687  13.460  1.00  0.00    -0.052 Br
HETATM    3  C3  UNL     1       6.193  -4.645  15.748  1.00  0.00     0.078 C 
HETATM    4  C4  UNL     1       6.611  -3.458  16.575  1.00  0.00     0.174 C 
HETATM    5  O2  UNL     1       5.899  -2.574  15.768  1.00  0.00    -0.366 OA
ENDROOT
BRANCH   1   6
HETATM    6  C1  UNL     1       3.871  -3.898  16.150  1.00  0.00     0.214 C 
BRANCH   6   7
HETATM    7  O1  UNL     1       3.289  -2.640  16.326  1.00  0.00    -0.397 OA
ATOM      8  H1  UNL     1       2.791  -2.706  17.131  1.00  0.00     0.209 HD
ENDBRANCH   6   7
ENDBRANCH   1   6
TORSDOF 2
ENDMDL
MODEL 5
REMARK VINA RESULT: -3.893949325      4.356      5.175
REMARK  2 active torsions:
REMARK  status: ('A' for Active; 'I' for Inactive)
REMARK    1  A    between atoms: O1_1  and  C1_3 
REMARK    2  A    between atoms: C1_3  and  C2_4 
ROOT
HETATM    1  C2  UNL     1       3.446  -3.345  12.019  1.00  0.00     0.141 C 
HETATM    2 BR1  UNL     1       1.864  -2.979  10.978  1.00  0.00    -0.052 Br
HETATM    3  C3  UNL     1       4.210  -2.093  12.388  1.00  0.00     0.078 C 
HETATM    4  C4  UNL     1       4.307  -2.863  13.679  1.00  0.00     0.174 C 
HETATM    5  O2  UNL     1       3.224  -3.671  13.342  1.00  0.00    -0.366 OA
ENDROOT
BRANCH   1   6
HETATM    6  C1  UNL     1       4.361  -4.287  11.260  1.00  0.00     0.214 C 
BRANCH   6   7
HETATM    7  O1  UNL     1       4.873  -3.528  10.205  1.00  0.00    -0.397 OA
ATOM      8  H1  UNL     1       4.722  -4.050   9.426  1.00  0.00     0.209 HD
ENDBRANCH   6   7
ENDBRANCH   1   6
TORSDOF 2
ENDMDL
