MODEL 1
REMARK VINA RESULT: -4.880063890      0.000      0.000
REMARK  1 active torsions:
REMARK  status: ('A' for Active; 'I' for Inactive)
REMARK    1  A    between atoms: N1_2  and  C2_5 
ROOT
HETATM    1  C2  UNL     1       5.225  -3.964  16.364  1.00  0.00     0.195 C 
HETATM    2  C3  UNL     1       6.205  -5.077  16.102  1.00  0.00     0.055 C 
HETATM    3  C4  UNL     1       6.261  -5.240  14.601  1.00  0.00     0.118 C 
HETATM    4 CL1  UNL     1       6.365  -6.980  14.230  1.00  0.00    -0.123 Cl
HETATM    5  C5  UNL     1       4.936  -4.710  14.069  1.00  0.00     0.248 A 
HETATM    6  C6  UNL     1       4.265  -4.007  15.211  1.00  0.00     0.079 A 
HETATM    7  C7  UNL     1       3.333  -5.206  15.226  1.00  0.00     0.281 A 
HETATM    8  N2  UNL     1       3.967  -5.794  14.078  1.00  0.00     0.091 N 
HETATM    9  C8  UNL     1       3.178  -5.908  12.883  1.00  0.00     0.310 C 
ENDROOT
BRANCH   1  10
HETATM   10  N1  UNL     1       5.946  -2.718  16.364  1.00  0.00    -0.074 N 
HETATM   11  C1  UNL     1       7.191  -2.813  17.091  1.00  0.00     0.267 C 
ATOM     12  H12 UNL     1       5.368  -1.956  16.717  1.00  0.00     0.277 HD
ATOM     13  H11 UNL     1       6.097  -2.378  15.414  1.00  0.00     0.277 HD
ENDBRANCH   1  10
TORSDOF 1
ENDMDL
MODEL 2
REMARK VINA RESULT: -4.761735474      1.645      2.166
REMARK  1 active torsions:
REMARK  status: ('A' for Active; 'I' for Inactive)
REMARK    1  A    between atoms: N1_2  and  C2_5 
ROOT
HETATM    1  C2  UNL     1       4.114  -3.210  15.931  1.00  0.00     0.195 C 
HETATM    2  C3  UNL     1       5.200  -3.631  16.884  1.00  0.00     0.055 C 
HETATM    3  C4  UNL     1       6.288  -4.245  16.034  1.00  0.00     0.118 C 
HETATM    4 CL1  UNL     1       6.946  -5.657  16.899  1.00  0.00    -0.123 Cl
HETATM    5  C5  UNL     1       5.606  -4.731  14.762  1.00  0.00     0.248 A 
HETATM    6  C6  UNL     1       4.222  -4.155  14.770  1.00  0.00     0.079 A 
HETATM    7  C7  UNL     1       3.779  -5.574  15.085  1.00  0.00     0.281 A 
HETATM    8  N2  UNL     1       5.119  -6.083  14.986  1.00  0.00     0.091 N 
HETATM    9  C8  UNL     1       5.390  -7.006  13.920  1.00  0.00     0.310 C 
ENDROOT
BRANCH   1  10
HETATM   10  N1  UNL     1       4.388  -1.864  15.501  1.00  0.00    -0.074 N 
HETATM   11  C1  UNL     1       4.272  -1.718  14.068  1.00  0.00     0.267 C 
ATOM     12  H12 UNL     1       5.300  -1.548  15.832  1.00  0.00     0.277 HD
ATOM     13  H11 UNL     1       3.798  -1.192  15.991  1.00  0.00     0.277 HD
ENDBRANCH   1  10
TORSDOF 1
ENDMDL
MODEL 3
REMARK VINA RESULT: -4.720056017      1.931      4.239
REMARK  1 active torsions:
REMARK  status: ('A' for Active; 'I' for Inactive)
REMARK    1  A    between atoms: N1_2  and  C2_5 
ROOT
HETATM    1  C2  UNL     1       5.392  -6.664  14.620  1.00  0.00     0.195 C 
HETATM    2  C3  UNL     1       4.127  -5.908  14.927  1.00  0.00     0.055 C 
HETATM    3  C4  UNL     1       4.476  -4.443  14.807  1.00  0.00     0.118 C 
HETATM    4 CL1  UNL     1       3.632  -3.557  16.102  1.00  0.00    -0.123 Cl
HETATM    5  C5  UNL     1       5.976  -4.345  15.052  1.00  0.00     0.248 A 
HETATM    6  C6  UNL     1       6.507  -5.747  15.030  1.00  0.00     0.079 A 
HETATM    7  C7  UNL     1       6.645  -5.574  16.533  1.00  0.00     0.281 A 
HETATM    8  N2  UNL     1       6.204  -4.207  16.481  1.00  0.00     0.091 N 
HETATM    9  C8  UNL     1       7.158  -3.198  16.846  1.00  0.00     0.310 C 
ENDROOT
BRANCH   1  10
HETATM   10  N1  UNL     1       5.443  -6.903  13.202  1.00  0.00    -0.074 N 
HETATM   11  C1  UNL     1       4.389  -7.791  12.764  1.00  0.00     0.267 C 
ATOM     12  H12 UNL     1       6.360  -7.248  12.917  1.00  0.00     0.277 HD
ATOM     13  H11 UNL     1       5.431  -6.028  12.678  1.00  0.00     0.277 HD
ENDBRANCH   1  10
TORSDOF 1
ENDMDL
MODEL 4
REMARK VINA RESULT: -4.567649481      4.212      5.243
REMARK  1 active torsions:
REMARK  status: ('A' for Active; 'I' for Inactive)
REMARK    1  A    between atoms: N1_2  and  C2_5 
ROOT
HETATM    1  C2  UNL     1       4.185  -1.559  11.186  1.00  0.00     0.195 C 
HETATM    2  C3  UNL     1       2.920  -1.950  10.468  1.00  0.00     0.055 C 
HETATM    3  C4  UNL     1       2.233  -2.963  11.355  1.00  0.00     0.118 C 
HETATM    4 CL1  UNL     1       1.525  -4.226  10.317  1.00  0.00    -0.123 Cl
HETATM    5  C5  UNL     1       3.330  -3.593  12.204  1.00  0.00     0.248 A 
HETATM    6  C6  UNL     1       4.560  -2.760  12.004  1.00  0.00     0.079 A 
HETATM    7  C7  UNL     1       5.060  -3.937  11.183  1.00  0.00     0.281 A 
HETATM    8  N2  UNL     1       3.890  -4.720  11.475  1.00  0.00     0.091 N 
HETATM    9  C8  UNL     1       4.079  -5.910  12.255  1.00  0.00     0.310 C 
ENDROOT
BRANCH   1  10
HETATM   10  N1  UNL     1       3.890  -0.445  12.047  1.00  0.00    -0.074 N 
HETATM   11  C1  UNL     1       3.012   0.512  11.413  1.00  0.00     0.267 C 
ATOM     12  H12 UNL     1       4.744   0.001  12.381  1.00  0.00     0.277 HD
ATOM     13  H11 UNL     1       3.511  -0.758  12.941  1.00  0.00     0.277 HD
ENDBRANCH   1  10
TORSDOF 1
ENDMDL
MODEL 5
REMARK VINA RESULT: -4.490019946      1.820      2.243
REMARK  1 active torsions:
REMARK  status: ('A' for Active; 'I' for Inactive)
REMARK    1  A    between atoms: N1_2  and  C2_5 
ROOT
HETATM    1  C2  UNL     1       4.048  -3.491  15.714  1.00  0.00     0.195 C 
HETATM    2  C3  UNL     1       3.479  -4.852  15.414  1.00  0.00     0.055 C 
HETATM    3  C4  UNL     1       4.444  -5.507  14.453  1.00  0.00     0.118 C 
HETATM    4 CL1  UNL     1       3.502  -6.415  13.244  1.00  0.00    -0.123 Cl
HETATM    5  C5  UNL     1       5.171  -4.371  13.747  1.00  0.00     0.248 A 
HETATM    6  C6  UNL     1       4.829  -3.114  14.489  1.00  0.00     0.079 A 
HETATM    7  C7  UNL     1       3.968  -2.794  13.280  1.00  0.00     0.281 A 
HETATM    8  N2  UNL     1       4.394  -3.977  12.583  1.00  0.00     0.091 N 
HETATM    9  C8  UNL     1       5.158  -3.787  11.382  1.00  0.00     0.310 C 
ENDROOT
BRANCH   1  10
HETATM   10  N1  UNL     1       4.928  -3.609  16.847  1.00  0.00    -0.074 N 
HETATM   11  C1  UNL     1       5.782  -2.452  16.992  1.00  0.00     0.267 C 
ATOM     12  H12 UNL     1       5.474  -4.469  16.803  1.00  0.00     0.277 HD
ATOM     13  H11 UNL     1       4.405  -3.793  17.703  1.00  0.00     0.277 HD
ENDBRANCH   1  10
TORSDOF 1
ENDMDL
