MODEL 1
REMARK VINA RESULT: -9.447133142      0.000      0.000
REMARK  7 active torsions:
REMARK  status: ('A' for Active; 'I' for Inactive)
REMARK       I    between atoms: C1_2  and  N1_3 
REMARK    1  A    between atoms: C1_2  and  C8_11 
REMARK    2  A    between atoms: N1_3  and  C2_5 
REMARK    3  A    between atoms: C12_15  and  N2_16 
REMARK    4  A    between atoms: C14_21  and  O2_22 
REMARK    5  A    between atoms: C16_31  and  N6_32 
REMARK    6  A    between atoms: N6_32  and  C17_34 
REMARK    7  A    between atoms: C20_37  and  O3_38 
ROOT
HETATM    1  N2  UNL     1     -26.951  33.333  -5.222  1.00  0.00    -0.343 N 
ATOM      2  H2  UNL     1     -26.762  33.995  -5.974  1.00  0.00     0.167 HD
HETATM    3  C13 UNL     1     -26.102  33.277  -4.241  1.00  0.00     0.125 C 
HETATM    4  N3  UNL     1     -26.247  32.396  -3.132  1.00  0.00    -0.334 N 
ATOM      5  H3  UNL     1     -27.028  31.755  -2.991  1.00  0.00     0.164 HD
HETATM    6  C14 UNL     1     -25.101  32.551  -2.219  1.00  0.00     0.220 C 
HETATM    7  S1  UNL     1     -25.357  34.016  -1.135  1.00  0.00    -0.031 SA
HETATM    8  S2  UNL     1     -25.146  35.395  -2.800  1.00  0.00    -0.049 SA
HETATM    9  C15 UNL     1     -24.880  34.040  -4.023  1.00  0.00     0.188 C 
HETATM   10  N4  UNL     1     -24.073  34.408  -5.105  1.00  0.00    -0.291 N 
ATOM     11  H4  UNL     1     -24.415  34.388  -6.066  1.00  0.00     0.183 HD
HETATM   12  N5  UNL     1     -22.746  34.814  -4.784  1.00  0.00    -0.135 N 
ATOM     13  H5  UNL     1     -22.191  35.328  -5.469  1.00  0.00     0.205 HD
HETATM   14  C16 UNL     1     -22.237  34.529  -3.617  1.00  0.00     0.693 C 
HETATM   15  N7  UNL     1     -22.995  33.804  -2.657  1.00  0.00    -0.211 N 
ATOM     16  H7  UNL     1     -22.777  33.833  -1.661  1.00  0.00     0.178 HD
HETATM   17  C27 UNL     1     -24.076  33.036  -3.175  1.00  0.00     0.215 C 
ENDROOT
BRANCH   1  18
HETATM   18  C12 UNL     1     -28.116  32.544  -5.321  1.00  0.00     0.034 A 
HETATM   19  C11 UNL     1     -29.376  33.146  -5.420  1.00  0.00     0.029 A 
HETATM   20  C10 UNL     1     -30.518  32.388  -5.513  1.00  0.00     0.003 A 
HETATM   21  C9  UNL     1     -30.422  31.004  -5.505  1.00  0.00     0.017 A 
HETATM   22  C8  UNL     1     -29.189  30.381  -5.408  1.00  0.00     0.034 A 
HETATM   23  C28 UNL     1     -28.066  31.173  -5.318  1.00  0.00     0.046 A 
BRANCH  22  24
HETATM   24  C1  UNL     1     -29.059  28.902  -5.422  1.00  0.00     0.256 C 
HETATM   25  O1  UNL     1     -30.100  28.322  -5.865  1.00  0.00    -0.267 OA
HETATM   26  N1  UNL     1     -27.894  28.289  -4.980  1.00  0.00    -0.323 N 
ATOM     27  H1  UNL     1     -27.163  28.924  -4.661  1.00  0.00     0.169 HD
BRANCH  26  28
HETATM   28  C2  UNL     1     -27.570  26.917  -4.906  1.00  0.00     0.035 A 
HETATM   29  C3  UNL     1     -27.277  26.369  -3.648  1.00  0.00     0.029 A 
HETATM   30  C4  UNL     1     -26.973  25.038  -3.502  1.00  0.00     0.002 A 
HETATM   31  C5  UNL     1     -26.967  24.266  -4.645  1.00  0.00     0.000 A 
HETATM   32  C6  UNL     1     -27.251  24.784  -5.882  1.00  0.00     0.002 A 
HETATM   33  C7  UNL     1     -27.562  26.145  -6.030  1.00  0.00     0.029 A 
ENDBRANCH  26  28
ENDBRANCH  22  24
ENDBRANCH   1  18
BRANCH   6  34
HETATM   34  O2  UNL     1     -24.813  31.426  -1.526  1.00  0.00    -0.360 OA
ATOM     35  H2  UNL     1     -24.711  31.575  -0.594  1.00  0.00     0.213 HD
ENDBRANCH   6  34
BRANCH  14  36
HETATM   36  N6  UNL     1     -20.891  34.925  -3.256  1.00  0.00    -0.190 N 
ATOM     37  H6  UNL     1     -20.766  35.638  -2.538  1.00  0.00     0.184 HD
BRANCH  36  38
HETATM   38  C17 UNL     1     -19.755  34.366  -3.856  1.00  0.00     0.060 A 
HETATM   39  C18 UNL     1     -19.362  34.823  -5.091  1.00  0.00     0.034 A 
HETATM   40  C19 UNL     1     -18.258  34.332  -5.753  1.00  0.00     0.039 A 
HETATM   41  C20 UNL     1     -17.522  33.326  -5.118  1.00  0.00     0.076 A 
HETATM   42  C21 UNL     1     -17.903  32.864  -3.890  1.00  0.00     0.009 A 
HETATM   43  C22 UNL     1     -17.173  31.879  -3.282  1.00  0.00     0.015 A 
HETATM   44  C26 UNL     1     -19.017  33.383  -3.261  1.00  0.00     0.004 A 
HETATM   45  C23 UNL     1     -17.540  31.396  -2.043  1.00  0.00     0.001 A 
HETATM   46  C24 UNL     1     -18.643  31.910  -1.420  1.00  0.00     0.001 A 
HETATM   47  C25 UNL     1     -19.391  32.892  -1.998  1.00  0.00     0.014 A 
BRANCH  41  48
HETATM   48  O3  UNL     1     -16.422  32.869  -5.830  1.00  0.00    -0.360 OA
ATOM     49  H3  UNL     1     -16.582  32.102  -6.367  1.00  0.00     0.217 HD
ENDBRANCH  41  48
ENDBRANCH  36  38
ENDBRANCH  14  36
TORSDOF 7
ENDMDL
MODEL 2
REMARK VINA RESULT: -9.302692787      1.782      2.083
REMARK  7 active torsions:
REMARK  status: ('A' for Active; 'I' for Inactive)
REMARK       I    between atoms: C1_2  and  N1_3 
REMARK    1  A    between atoms: C1_2  and  C8_11 
REMARK    2  A    between atoms: N1_3  and  C2_5 
REMARK    3  A    between atoms: C12_15  and  N2_16 
REMARK    4  A    between atoms: C14_21  and  O2_22 
REMARK    5  A    between atoms: C16_31  and  N6_32 
REMARK    6  A    between atoms: N6_32  and  C17_34 
REMARK    7  A    between atoms: C20_37  and  O3_38 
ROOT
HETATM    1  N2  UNL     1     -26.561  32.809  -5.342  1.00  0.00    -0.343 N 
ATOM      2  H2  UNL     1     -26.044  32.970  -6.206  1.00  0.00     0.167 HD
HETATM    3  C13 UNL     1     -25.939  33.012  -4.221  1.00  0.00     0.125 C 
HETATM    4  N3  UNL     1     -26.545  32.822  -2.946  1.00  0.00    -0.334 N 
ATOM      5  H3  UNL     1     -27.513  32.538  -2.794  1.00  0.00     0.164 HD
HETATM    6  C14 UNL     1     -25.564  33.099  -1.881  1.00  0.00     0.220 C 
HETATM    7  S1  UNL     1     -25.446  34.912  -1.595  1.00  0.00    -0.031 SA
HETATM    8  S2  UNL     1     -24.523  35.247  -3.533  1.00  0.00    -0.049 SA
HETATM    9  C15 UNL     1     -24.573  33.459  -3.981  1.00  0.00     0.188 C 
HETATM   10  N4  UNL     1     -23.539  33.064  -4.837  1.00  0.00    -0.291 N 
ATOM     11  H4  UNL     1     -23.721  32.680  -5.764  1.00  0.00     0.183 HD
HETATM   12  N5  UNL     1     -22.216  33.229  -4.335  1.00  0.00    -0.135 N 
ATOM     13  H5  UNL     1     -21.423  33.207  -4.976  1.00  0.00     0.205 HD
HETATM   14  C16 UNL     1     -22.017  33.411  -3.059  1.00  0.00     0.693 C 
HETATM   15  N7  UNL     1     -23.113  33.434  -2.153  1.00  0.00    -0.211 N 
ATOM     16  H7  UNL     1     -23.047  33.872  -1.234  1.00  0.00     0.178 HD
HETATM   17  C27 UNL     1     -24.306  32.807  -2.611  1.00  0.00     0.215 C 
ENDROOT
BRANCH   1  18
HETATM   18  C12 UNL     1     -27.901  32.381  -5.451  1.00  0.00     0.034 A 
HETATM   19  C11 UNL     1     -28.953  33.291  -5.284  1.00  0.00     0.029 A 
HETATM   20  C10 UNL     1     -30.261  32.886  -5.383  1.00  0.00     0.003 A 
HETATM   21  C9  UNL     1     -30.546  31.555  -5.650  1.00  0.00     0.017 A 
HETATM   22  C8  UNL     1     -29.526  30.633  -5.819  1.00  0.00     0.034 A 
HETATM   23  C28 UNL     1     -28.226  31.075  -5.714  1.00  0.00     0.046 A 
BRANCH  22  24
HETATM   24  C1  UNL     1     -29.806  29.208  -6.129  1.00  0.00     0.256 C 
HETATM   25  O1  UNL     1     -29.148  28.785  -7.132  1.00  0.00    -0.267 OA
HETATM   26  N1  UNL     1     -30.705  28.479  -5.361  1.00  0.00    -0.323 N 
ATOM     27  H1  UNL     1     -31.135  28.993  -4.592  1.00  0.00     0.169 HD
BRANCH  26  28
HETATM   28  C2  UNL     1     -31.111  27.134  -5.486  1.00  0.00     0.035 A 
HETATM   29  C3  UNL     1     -32.433  26.871  -5.877  1.00  0.00     0.029 A 
HETATM   30  C4  UNL     1     -32.890  25.586  -6.036  1.00  0.00     0.002 A 
HETATM   31  C5  UNL     1     -31.993  24.567  -5.792  1.00  0.00     0.000 A 
HETATM   32  C6  UNL     1     -30.698  24.804  -5.409  1.00  0.00     0.002 A 
HETATM   33  C7  UNL     1     -30.233  26.118  -5.248  1.00  0.00     0.029 A 
ENDBRANCH  26  28
ENDBRANCH  22  24
ENDBRANCH   1  18
BRANCH   6  34
HETATM   34  O2  UNL     1     -25.795  32.398  -0.748  1.00  0.00    -0.360 OA
ATOM     35  H2  UNL     1     -26.713  32.360  -0.511  1.00  0.00     0.213 HD
ENDBRANCH   6  34
BRANCH  14  36
HETATM   36  N6  UNL     1     -20.686  33.583  -2.513  1.00  0.00    -0.190 N 
ATOM     37  H6  UNL     1     -20.588  33.829  -1.528  1.00  0.00     0.184 HD
BRANCH  36  38
HETATM   38  C17 UNL     1     -19.528  33.425  -3.286  1.00  0.00     0.060 A 
HETATM   39  C18 UNL     1     -19.341  34.238  -4.378  1.00  0.00     0.034 A 
HETATM   40  C19 UNL     1     -18.232  34.152  -5.192  1.00  0.00     0.039 A 
HETATM   41  C20 UNL     1     -17.271  33.188  -4.870  1.00  0.00     0.076 A 
HETATM   42  C21 UNL     1     -17.446  32.375  -3.786  1.00  0.00     0.009 A 
HETATM   43  C22 UNL     1     -16.496  31.436  -3.486  1.00  0.00     0.015 A 
HETATM   44  C26 UNL     1     -18.572  32.493  -2.997  1.00  0.00     0.004 A 
HETATM   45  C23 UNL     1     -16.653  30.602  -2.398  1.00  0.00     0.001 A 
HETATM   46  C24 UNL     1     -17.768  30.718  -1.616  1.00  0.00     0.001 A 
HETATM   47  C25 UNL     1     -18.732  31.644  -1.888  1.00  0.00     0.014 A 
BRANCH  41  48
HETATM   48  O3  UNL     1     -16.177  33.147  -5.723  1.00  0.00    -0.360 OA
ATOM     49  H3  UNL     1     -15.570  32.435  -5.561  1.00  0.00     0.217 HD
ENDBRANCH  41  48
ENDBRANCH  36  38
ENDBRANCH  14  36
TORSDOF 7
ENDMDL
MODEL 3
REMARK VINA RESULT: -9.288559069      0.752      1.789
REMARK  7 active torsions:
REMARK  status: ('A' for Active; 'I' for Inactive)
REMARK       I    between atoms: C1_2  and  N1_3 
REMARK    1  A    between atoms: C1_2  and  C8_11 
REMARK    2  A    between atoms: N1_3  and  C2_5 
REMARK    3  A    between atoms: C12_15  and  N2_16 
REMARK    4  A    between atoms: C14_21  and  O2_22 
REMARK    5  A    between atoms: C16_31  and  N6_32 
REMARK    6  A    between atoms: N6_32  and  C17_34 
REMARK    7  A    between atoms: C20_37  and  O3_38 
ROOT
HETATM    1  N2  UNL     1     -27.066  33.338  -4.922  1.00  0.00    -0.343 N 
ATOM      2  H2  UNL     1     -26.867  34.084  -5.588  1.00  0.00     0.167 HD
HETATM    3  C13 UNL     1     -26.250  33.188  -3.923  1.00  0.00     0.125 C 
HETATM    4  N3  UNL     1     -26.414  32.185  -2.925  1.00  0.00    -0.334 N 
ATOM      5  H3  UNL     1     -27.185  31.518  -2.885  1.00  0.00     0.164 HD
HETATM    6  C14 UNL     1     -25.303  32.257  -1.959  1.00  0.00     0.220 C 
HETATM    7  S1  UNL     1     -25.628  33.585  -0.729  1.00  0.00    -0.031 SA
HETATM    8  S2  UNL     1     -25.391  35.146  -2.221  1.00  0.00    -0.049 SA
HETATM    9  C15 UNL     1     -25.054  33.943  -3.576  1.00  0.00     0.188 C 
HETATM   10  N4  UNL     1     -24.219  34.445  -4.581  1.00  0.00    -0.291 N 
ATOM     11  H4  UNL     1     -24.526  34.526  -5.550  1.00  0.00     0.183 HD
HETATM   12  N5  UNL     1     -22.912  34.835  -4.168  1.00  0.00    -0.135 N 
ATOM     13  H5  UNL     1     -22.346  35.433  -4.771  1.00  0.00     0.205 HD
HETATM   14  C16 UNL     1     -22.438  34.431  -3.023  1.00  0.00     0.693 C 
HETATM   15  N7  UNL     1     -23.212  33.589  -2.178  1.00  0.00    -0.211 N 
ATOM     16  H7  UNL     1     -23.029  33.509  -1.177  1.00  0.00     0.178 HD
HETATM   17  C27 UNL     1     -24.257  32.864  -2.817  1.00  0.00     0.215 C 
ENDROOT
BRANCH   1  18
HETATM   18  C12 UNL     1     -28.210  32.544  -5.151  1.00  0.00     0.034 A 
HETATM   19  C11 UNL     1     -29.462  33.140  -5.345  1.00  0.00     0.029 A 
HETATM   20  C10 UNL     1     -30.583  32.377  -5.564  1.00  0.00     0.003 A 
HETATM   21  C9  UNL     1     -30.474  30.995  -5.592  1.00  0.00     0.017 A 
HETATM   22  C8  UNL     1     -29.249  30.378  -5.403  1.00  0.00     0.034 A 
HETATM   23  C28 UNL     1     -28.146  31.174  -5.186  1.00  0.00     0.046 A 
BRANCH  22  24
HETATM   24  C1  UNL     1     -29.103  28.901  -5.452  1.00  0.00     0.256 C 
HETATM   25  O1  UNL     1     -30.121  28.323  -5.951  1.00  0.00    -0.267 OA
HETATM   26  N1  UNL     1     -27.949  28.287  -4.982  1.00  0.00    -0.323 N 
ATOM     27  H1  UNL     1     -27.237  28.920  -4.619  1.00  0.00     0.169 HD
BRANCH  26  28
HETATM   28  C2  UNL     1     -27.615  26.917  -4.934  1.00  0.00     0.035 A 
HETATM   29  C3  UNL     1     -27.312  26.349  -3.686  1.00  0.00     0.029 A 
HETATM   30  C4  UNL     1     -26.997  25.018  -3.564  1.00  0.00     0.002 A 
HETATM   31  C5  UNL     1     -26.989  24.266  -4.720  1.00  0.00     0.000 A 
HETATM   32  C6  UNL     1     -27.283  24.803  -5.947  1.00  0.00     0.002 A 
HETATM   33  C7  UNL     1     -27.605  26.164  -6.070  1.00  0.00     0.029 A 
ENDBRANCH  26  28
ENDBRANCH  22  24
ENDBRANCH   1  18
BRANCH   6  34
HETATM   34  O2  UNL     1     -25.015  31.066  -1.387  1.00  0.00    -0.360 OA
ATOM     35  H2  UNL     1     -24.084  30.883  -1.350  1.00  0.00     0.213 HD
ENDBRANCH   6  34
BRANCH  14  36
HETATM   36  N6  UNL     1     -21.114  34.807  -2.571  1.00  0.00    -0.190 N 
ATOM     37  H6  UNL     1     -20.973  35.745  -2.195  1.00  0.00     0.184 HD
BRANCH  36  38
HETATM   38  C17 UNL     1     -20.019  33.934  -2.631  1.00  0.00     0.060 A 
HETATM   39  C18 UNL     1     -19.773  33.103  -1.565  1.00  0.00     0.034 A 
HETATM   40  C19 UNL     1     -18.721  32.213  -1.540  1.00  0.00     0.039 A 
HETATM   41  C20 UNL     1     -17.884  32.175  -2.659  1.00  0.00     0.076 A 
HETATM   42  C21 UNL     1     -18.119  32.997  -3.726  1.00  0.00     0.009 A 
HETATM   43  C22 UNL     1     -17.290  32.947  -4.813  1.00  0.00     0.015 A 
HETATM   44  C26 UNL     1     -19.184  33.874  -3.710  1.00  0.00     0.004 A 
HETATM   45  C23 UNL     1     -17.507  33.770  -5.899  1.00  0.00     0.001 A 
HETATM   46  C24 UNL     1     -18.562  34.640  -5.885  1.00  0.00     0.001 A 
HETATM   47  C25 UNL     1     -19.407  34.712  -4.817  1.00  0.00     0.014 A 
BRANCH  41  48
HETATM   48  O3  UNL     1     -16.842  31.261  -2.580  1.00  0.00    -0.360 OA
ATOM     49  H3  UNL     1     -16.876  30.680  -1.829  1.00  0.00     0.217 HD
ENDBRANCH  41  48
ENDBRANCH  36  38
ENDBRANCH  14  36
TORSDOF 7
ENDMDL
MODEL 4
REMARK VINA RESULT: -8.940655376      6.722     10.430
REMARK  7 active torsions:
REMARK  status: ('A' for Active; 'I' for Inactive)
REMARK       I    between atoms: C1_2  and  N1_3 
REMARK    1  A    between atoms: C1_2  and  C8_11 
REMARK    2  A    between atoms: N1_3  and  C2_5 
REMARK    3  A    between atoms: C12_15  and  N2_16 
REMARK    4  A    between atoms: C14_21  and  O2_22 
REMARK    5  A    between atoms: C16_31  and  N6_32 
REMARK    6  A    between atoms: N6_32  and  C17_34 
REMARK    7  A    between atoms: C20_37  and  O3_38 
ROOT
HETATM    1  N2  UNL     1     -21.554  35.254  -6.039  1.00  0.00    -0.343 N 
ATOM      2  H2  UNL     1     -21.455  34.463  -6.675  1.00  0.00     0.167 HD
HETATM    3  C13 UNL     1     -21.769  36.423  -6.561  1.00  0.00     0.125 C 
HETATM    4  N3  UNL     1     -21.925  37.607  -5.785  1.00  0.00    -0.334 N 
ATOM      5  H3  UNL     1     -21.907  37.648  -4.766  1.00  0.00     0.164 HD
HETATM    6  C14 UNL     1     -22.115  38.766  -6.677  1.00  0.00     0.220 C 
HETATM    7  S1  UNL     1     -23.868  38.852  -7.227  1.00  0.00    -0.031 SA
HETATM    8  S2  UNL     1     -23.676  37.046  -8.418  1.00  0.00    -0.049 SA
HETATM    9  C15 UNL     1     -21.906  36.807  -7.959  1.00  0.00     0.188 C 
HETATM   10  N4  UNL     1     -21.149  36.166  -8.946  1.00  0.00    -0.291 N 
ATOM     11  H4  UNL     1     -20.685  35.274  -8.778  1.00  0.00     0.183 HD
HETATM   12  N5  UNL     1     -21.066  36.835 -10.202  1.00  0.00    -0.135 N 
ATOM     13  H5  UNL     1     -20.757  36.326 -11.030  1.00  0.00     0.205 HD
HETATM   14  C16 UNL     1     -21.384  38.096 -10.295  1.00  0.00     0.693 C 
HETATM   15  N7  UNL     1     -21.807  38.821  -9.147  1.00  0.00    -0.211 N 
ATOM     16  H7  UNL     1     -22.350  39.682  -9.218  1.00  0.00     0.178 HD
HETATM   17  C27 UNL     1     -21.423  38.269  -7.892  1.00  0.00     0.215 C 
ENDROOT
BRANCH   1  18
HETATM   18  C12 UNL     1     -21.450  34.999  -4.655  1.00  0.00     0.034 A 
HETATM   19  C11 UNL     1     -22.471  35.393  -3.781  1.00  0.00     0.029 A 
HETATM   20  C10 UNL     1     -22.379  35.155  -2.432  1.00  0.00     0.003 A 
HETATM   21  C9  UNL     1     -21.256  34.517  -1.926  1.00  0.00     0.017 A 
HETATM   22  C8  UNL     1     -20.231  34.116  -2.766  1.00  0.00     0.034 A 
HETATM   23  C28 UNL     1     -20.358  34.371  -4.114  1.00  0.00     0.046 A 
BRANCH  22  24
HETATM   24  C1  UNL     1     -19.030  33.411  -2.251  1.00  0.00     0.256 C 
HETATM   25  O1  UNL     1     -18.618  33.886  -1.145  1.00  0.00    -0.267 OA
HETATM   26  N1  UNL     1     -18.471  32.354  -2.958  1.00  0.00    -0.323 N 
ATOM     27  H1  UNL     1     -18.946  32.115  -3.828  1.00  0.00     0.169 HD
BRANCH  26  28
HETATM   28  C2  UNL     1     -17.344  31.562  -2.652  1.00  0.00     0.035 A 
HETATM   29  C3  UNL     1     -17.552  30.320  -2.033  1.00  0.00     0.029 A 
HETATM   30  C4  UNL     1     -16.501  29.491  -1.724  1.00  0.00     0.002 A 
HETATM   31  C5  UNL     1     -15.235  29.934  -2.047  1.00  0.00     0.000 A 
HETATM   32  C6  UNL     1     -15.013  31.144  -2.652  1.00  0.00     0.002 A 
HETATM   33  C7  UNL     1     -16.088  31.991  -2.967  1.00  0.00     0.029 A 
ENDBRANCH  26  28
ENDBRANCH  22  24
ENDBRANCH   1  18
BRANCH   6  34
HETATM   34  O2  UNL     1     -21.670  39.927  -6.147  1.00  0.00    -0.360 OA
ATOM     35  H2  UNL     1     -21.532  40.607  -6.795  1.00  0.00     0.213 HD
ENDBRANCH   6  34
BRANCH  14  36
HETATM   36  N6  UNL     1     -21.312  38.809 -11.554  1.00  0.00    -0.190 N 
ATOM     37  H6  UNL     1     -22.094  38.734 -12.205  1.00  0.00     0.184 HD
BRANCH  36  38
HETATM   38  C17 UNL     1     -20.209  39.595 -11.913  1.00  0.00     0.060 A 
HETATM   39  C18 UNL     1     -19.060  39.510 -11.165  1.00  0.00     0.034 A 
HETATM   40  C19 UNL     1     -17.929  40.245 -11.447  1.00  0.00     0.039 A 
HETATM   41  C20 UNL     1     -17.980  41.108 -12.547  1.00  0.00     0.076 A 
HETATM   42  C21 UNL     1     -19.118  41.201 -13.298  1.00  0.00     0.009 A 
HETATM   43  C22 UNL     1     -19.152  42.050 -14.371  1.00  0.00     0.015 A 
HETATM   44  C26 UNL     1     -20.229  40.447 -12.981  1.00  0.00     0.004 A 
HETATM   45  C23 UNL     1     -20.291  42.163 -15.142  1.00  0.00     0.001 A 
HETATM   46  C24 UNL     1     -21.392  41.416 -14.828  1.00  0.00     0.001 A 
HETATM   47  C25 UNL     1     -21.390  40.560 -13.767  1.00  0.00     0.014 A 
BRANCH  41  48
HETATM   48  O3  UNL     1     -16.815  41.823 -12.783  1.00  0.00    -0.360 OA
ATOM     49  H3  UNL     1     -16.794  42.693 -12.402  1.00  0.00     0.217 HD
ENDBRANCH  41  48
ENDBRANCH  36  38
ENDBRANCH  14  36
TORSDOF 7
ENDMDL
MODEL 5
REMARK VINA RESULT: -8.866838892      1.738      2.559
REMARK  7 active torsions:
REMARK  status: ('A' for Active; 'I' for Inactive)
REMARK       I    between atoms: C1_2  and  N1_3 
REMARK    1  A    between atoms: C1_2  and  C8_11 
REMARK    2  A    between atoms: N1_3  and  C2_5 
REMARK    3  A    between atoms: C12_15  and  N2_16 
REMARK    4  A    between atoms: C14_21  and  O2_22 
REMARK    5  A    between atoms: C16_31  and  N6_32 
REMARK    6  A    between atoms: N6_32  and  C17_34 
REMARK    7  A    between atoms: C20_37  and  O3_38 
ROOT
HETATM    1  N2  UNL     1     -26.234  32.734  -5.310  1.00  0.00    -0.343 N 
ATOM      2  H2  UNL     1     -25.672  32.889  -6.147  1.00  0.00     0.167 HD
HETATM    3  C13 UNL     1     -25.693  33.012  -4.163  1.00  0.00     0.125 C 
HETATM    4  N3  UNL     1     -26.368  32.839  -2.920  1.00  0.00    -0.334 N 
ATOM      5  H3  UNL     1     -27.328  32.511  -2.815  1.00  0.00     0.164 HD
HETATM    6  C14 UNL     1     -25.470  33.206  -1.810  1.00  0.00     0.220 C 
HETATM    7  S1  UNL     1     -25.460  35.033  -1.592  1.00  0.00    -0.031 SA
HETATM    8  S2  UNL     1     -24.436  35.342  -3.482  1.00  0.00    -0.049 SA
HETATM    9  C15 UNL     1     -24.370  33.538  -3.860  1.00  0.00     0.188 C 
HETATM   10  N4  UNL     1     -23.266  33.165  -4.634  1.00  0.00    -0.291 N 
ATOM     11  H4  UNL     1     -23.370  32.737  -5.554  1.00  0.00     0.183 HD
HETATM   12  N5  UNL     1     -21.986  33.418  -4.061  1.00  0.00    -0.135 N 
ATOM     13  H5  UNL     1     -21.154  33.412  -4.651  1.00  0.00     0.205 HD
HETATM   14  C16 UNL     1     -21.876  33.657  -2.783  1.00  0.00     0.693 C 
HETATM   15  N7  UNL     1     -23.026  33.658  -1.947  1.00  0.00    -0.211 N 
ATOM     16  H7  UNL     1     -23.040  34.134  -1.045  1.00  0.00     0.178 HD
HETATM   17  C27 UNL     1     -24.157  32.953  -2.450  1.00  0.00     0.215 C 
ENDROOT
BRANCH   1  18
HETATM   18  C12 UNL     1     -27.541  32.234  -5.482  1.00  0.00     0.034 A 
HETATM   19  C11 UNL     1     -28.643  33.098  -5.447  1.00  0.00     0.029 A 
HETATM   20  C10 UNL     1     -29.921  32.622  -5.608  1.00  0.00     0.003 A 
HETATM   21  C9  UNL     1     -30.125  31.265  -5.807  1.00  0.00     0.017 A 
HETATM   22  C8  UNL     1     -29.055  30.387  -5.846  1.00  0.00     0.034 A 
HETATM   23  C28 UNL     1     -27.787  30.900  -5.681  1.00  0.00     0.046 A 
BRANCH  22  24
HETATM   24  C1  UNL     1     -29.246  28.933  -6.081  1.00  0.00     0.256 C 
HETATM   25  O1  UNL     1     -28.400  28.453  -6.902  1.00  0.00    -0.267 OA
HETATM   26  N1  UNL     1     -30.263  28.240  -5.439  1.00  0.00    -0.323 N 
ATOM     27  H1  UNL     1     -30.841  28.799  -4.812  1.00  0.00     0.169 HD
BRANCH  26  28
HETATM   28  C2  UNL     1     -30.615  26.876  -5.523  1.00  0.00     0.035 A 
HETATM   29  C3  UNL     1     -31.881  26.546  -6.033  1.00  0.00     0.029 A 
HETATM   30  C4  UNL     1     -32.281  25.238  -6.160  1.00  0.00     0.002 A 
HETATM   31  C5  UNL     1     -31.386  24.266  -5.764  1.00  0.00     0.000 A 
HETATM   32  C6  UNL     1     -30.146  24.569  -5.265  1.00  0.00     0.002 A 
HETATM   33  C7  UNL     1     -29.738  25.907  -5.135  1.00  0.00     0.029 A 
ENDBRANCH  26  28
ENDBRANCH  22  24
ENDBRANCH   1  18
BRANCH   6  34
HETATM   34  O2  UNL     1     -25.736  32.539  -0.665  1.00  0.00    -0.360 OA
ATOM     35  H2  UNL     1     -25.082  31.884  -0.452  1.00  0.00     0.213 HD
ENDBRANCH   6  34
BRANCH  14  36
HETATM   36  N6  UNL     1     -20.592  33.919  -2.166  1.00  0.00    -0.190 N 
ATOM     37  H6  UNL     1     -20.522  34.671  -1.480  1.00  0.00     0.184 HD
BRANCH  36  38
HETATM   38  C17 UNL     1     -19.443  33.179  -2.473  1.00  0.00     0.060 A 
HETATM   39  C18 UNL     1     -19.043  32.184  -1.614  1.00  0.00     0.034 A 
HETATM   40  C19 UNL     1     -17.927  31.407  -1.838  1.00  0.00     0.039 A 
HETATM   41  C20 UNL     1     -17.187  31.663  -2.997  1.00  0.00     0.076 A 
HETATM   42  C21 UNL     1     -17.576  32.650  -3.859  1.00  0.00     0.009 A 
HETATM   43  C22 UNL     1     -16.840  32.888  -4.989  1.00  0.00     0.015 A 
HETATM   44  C26 UNL     1     -18.700  33.406  -3.596  1.00  0.00     0.004 A 
HETATM   45  C23 UNL     1     -17.212  33.882  -5.871  1.00  0.00     0.001 A 
HETATM   46  C24 UNL     1     -18.326  34.631  -5.612  1.00  0.00     0.001 A 
HETATM   47  C25 UNL     1     -19.080  34.417  -4.496  1.00  0.00     0.014 A 
BRANCH  41  48
HETATM   48  O3  UNL     1     -16.075  30.852  -3.172  1.00  0.00    -0.360 OA
ATOM     49  H3  UNL     1     -16.207  30.110  -3.750  1.00  0.00     0.217 HD
ENDBRANCH  41  48
ENDBRANCH  36  38
ENDBRANCH  14  36
TORSDOF 7
ENDMDL
