MODEL 1
REMARK VINA RESULT: -8.093806347      0.000      0.000
REMARK  5 active torsions:
REMARK  status: ('A' for Active; 'I' for Inactive)
REMARK    1  A    between atoms: N1_2  and  O1_3 
REMARK    2  A    between atoms: N1_2  and  N2_5 
REMARK    3  A    between atoms: N2_5  and  N3_6 
REMARK    4  A    between atoms: N3_6  and  C2_8 
REMARK       I    between atoms: N4_12  and  C5_13 
REMARK       I    between atoms: C5_13  and  N5_14 
REMARK    5  A    between atoms: N8_19  and  N9_21 
ROOT
HETATM    1  C2  UNL     1      12.614  -7.515  12.324  1.00  0.00     0.139 A 
HETATM    2  C3  UNL     1      12.514  -8.902  12.383  1.00  0.00     0.127 A 
HETATM    3  C4  UNL     1      13.701  -9.427  12.852  1.00  0.00     0.286 A 
HETATM    4  O2  UNL     1      13.969 -10.642  13.033  1.00  0.00    -0.266 OA
HETATM    5  N4  UNL     1      14.499  -8.373  13.072  1.00  0.00    -0.045 N 
HETATM    6  C5  UNL     1      15.828  -8.421  13.562  1.00  0.00     0.723 C 
HETATM    7  N5  UNL     1      16.937  -8.755  12.778  1.00  0.00    -0.163 N 
ATOM      8  H5  UNL     1      17.801  -8.906  13.299  1.00  0.00     0.186 HD
HETATM    9  C6  UNL     1      17.039  -8.900  11.534  1.00  0.00     0.215 C 
HETATM   10  N6  UNL     1      18.302  -9.247  10.981  1.00  0.00    -0.066 NA
HETATM   11  N7  UNL     1      15.955  -8.731  10.643  1.00  0.00    -0.066 NA
HETATM   12  N8  UNL     1      16.024  -8.141  14.812  1.00  0.00    -0.137 N 
ATOM     13  H8  UNL     1      15.215  -7.898  15.384  1.00  0.00     0.205 HD
HETATM   14  N10 UNL     1      13.863  -7.248  12.762  1.00  0.00    -0.260 N 
ATOM     15  H10 UNL     1      14.263  -6.312  12.844  1.00  0.00     0.190 HD
ENDROOT
BRANCH  12  16
HETATM   16  N9  UNL     1      17.275  -8.153  15.416  1.00  0.00    -0.331 N 
ATOM     17  H92 UNL     1      18.033  -8.609  14.907  1.00  0.00     0.177 HD
ATOM     18  H91 UNL     1      17.467  -7.735  16.326  1.00  0.00     0.177 HD
ENDBRANCH  12  16
BRANCH   1  19
HETATM   19  N3  UNL     1      11.639  -6.568  11.902  1.00  0.00    -0.271 N 
ATOM     20  H3  UNL     1      11.929  -5.759  11.351  1.00  0.00     0.185 HD
BRANCH  19  21
HETATM   21  N2  UNL     1      10.311  -6.727  12.225  1.00  0.00    -0.021 NA
BRANCH  21  22
HETATM   22  N1  UNL     1       9.460  -6.166  11.259  1.00  0.00    -0.096 NA
HETATM   23  C1  UNL     1       8.527  -7.165  10.816  1.00  0.00     0.168 C 
BRANCH  22  24
HETATM   24  O1  UNL     1       8.858  -5.041  11.696  1.00  0.00    -0.296 OA
ATOM     25  H1  UNL     1       9.025  -4.290  11.138  1.00  0.00     0.238 HD
ENDBRANCH  22  24
ENDBRANCH  21  22
ENDBRANCH  19  21
ENDBRANCH   1  19
TORSDOF 5
ENDMDL
MODEL 2
REMARK VINA RESULT: -8.018519536      1.064      1.078
REMARK  5 active torsions:
REMARK  status: ('A' for Active; 'I' for Inactive)
REMARK    1  A    between atoms: N1_2  and  O1_3 
REMARK    2  A    between atoms: N1_2  and  N2_5 
REMARK    3  A    between atoms: N2_5  and  N3_6 
REMARK    4  A    between atoms: N3_6  and  C2_8 
REMARK       I    between atoms: N4_12  and  C5_13 
REMARK       I    between atoms: C5_13  and  N5_14 
REMARK    5  A    between atoms: N8_19  and  N9_21 
ROOT
HETATM    1  C2  UNL     1      12.504  -7.300  12.092  1.00  0.00     0.139 A 
HETATM    2  C3  UNL     1      12.255  -8.658  12.266  1.00  0.00     0.127 A 
HETATM    3  C4  UNL     1      13.381  -9.268  12.779  1.00  0.00     0.286 A 
HETATM    4  O2  UNL     1      13.518 -10.486  13.062  1.00  0.00    -0.266 OA
HETATM    5  N4  UNL     1      14.290  -8.292  12.913  1.00  0.00    -0.045 N 
HETATM    6  C5  UNL     1      15.610  -8.444  13.409  1.00  0.00     0.723 C 
HETATM    7  N5  UNL     1      16.671  -8.960  12.658  1.00  0.00    -0.163 N 
ATOM      8  H5  UNL     1      17.517  -9.159  13.192  1.00  0.00     0.186 HD
HETATM    9  C6  UNL     1      16.748  -9.217  11.431  1.00  0.00     0.215 C 
HETATM   10  N6  UNL     1      17.963  -9.744  10.911  1.00  0.00    -0.066 NA
HETATM   11  N7  UNL     1      15.684  -9.006  10.527  1.00  0.00    -0.066 NA
HETATM   12  N8  UNL     1      15.843  -8.084  14.632  1.00  0.00    -0.137 N 
ATOM     13  H8  UNL     1      15.068  -7.708  15.180  1.00  0.00     0.205 HD
HETATM   14  N10 UNL     1      13.778  -7.135  12.510  1.00  0.00    -0.260 N 
ATOM     15  H10 UNL     1      14.277  -6.244  12.515  1.00  0.00     0.190 HD
ENDROOT
BRANCH  12  16
HETATM   16  N9  UNL     1      17.090  -8.181  15.237  1.00  0.00    -0.331 N 
ATOM     17  H92 UNL     1      17.804  -7.517  14.941  1.00  0.00     0.177 HD
ATOM     18  H91 UNL     1      17.318  -8.874  15.951  1.00  0.00     0.177 HD
ENDBRANCH  12  16
BRANCH   1  19
HETATM   19  N3  UNL     1      11.635  -6.291  11.590  1.00  0.00    -0.271 N 
ATOM     20  H3  UNL     1      12.011  -5.555  10.994  1.00  0.00     0.185 HD
BRANCH  19  21
HETATM   21  N2  UNL     1      10.294  -6.295  11.899  1.00  0.00    -0.021 NA
BRANCH  21  22
HETATM   22  N1  UNL     1       9.743  -5.003  11.880  1.00  0.00    -0.096 NA
HETATM   23  C1  UNL     1      10.807  -4.039  11.864  1.00  0.00     0.168 C 
BRANCH  22  24
HETATM   24  O1  UNL     1       8.864  -4.834  10.872  1.00  0.00    -0.296 OA
ATOM     25  H1  UNL     1       9.222  -5.066  10.024  1.00  0.00     0.238 HD
ENDBRANCH  22  24
ENDBRANCH  21  22
ENDBRANCH  19  21
ENDBRANCH   1  19
TORSDOF 5
ENDMDL
MODEL 3
REMARK VINA RESULT: -7.937312620      2.981      6.695
REMARK  5 active torsions:
REMARK  status: ('A' for Active; 'I' for Inactive)
REMARK    1  A    between atoms: N1_2  and  O1_3 
REMARK    2  A    between atoms: N1_2  and  N2_5 
REMARK    3  A    between atoms: N2_5  and  N3_6 
REMARK    4  A    between atoms: N3_6  and  C2_8 
REMARK       I    between atoms: N4_12  and  C5_13 
REMARK       I    between atoms: C5_13  and  N5_14 
REMARK    5  A    between atoms: N8_19  and  N9_21 
ROOT
HETATM    1  C2  UNL     1      17.239  -8.810  13.911  1.00  0.00     0.139 A 
HETATM    2  C3  UNL     1      17.398  -9.090  12.557  1.00  0.00     0.127 A 
HETATM    3  C4  UNL     1      16.236  -8.771  11.885  1.00  0.00     0.286 A 
HETATM    4  O2  UNL     1      16.020  -8.892  10.652  1.00  0.00    -0.266 OA
HETATM    5  N4  UNL     1      15.394  -8.308  12.819  1.00  0.00    -0.045 N 
HETATM    6  C5  UNL     1      14.070  -7.854  12.597  1.00  0.00     0.723 C 
HETATM    7  N5  UNL     1      12.974  -8.704  12.417  1.00  0.00    -0.163 N 
ATOM      8  H5  UNL     1      12.118  -8.241  12.109  1.00  0.00     0.186 HD
HETATM    9  C6  UNL     1      12.875  -9.947  12.575  1.00  0.00     0.215 C 
HETATM   10  N6  UNL     1      11.625 -10.577  12.320  1.00  0.00    -0.066 NA
HETATM   11  N7  UNL     1      13.947 -10.761  13.001  1.00  0.00    -0.066 NA
HETATM   12  N8  UNL     1      13.866  -6.575  12.557  1.00  0.00    -0.137 N 
ATOM     13  H8  UNL     1      14.666  -5.955  12.688  1.00  0.00     0.205 HD
HETATM   14  N10 UNL     1      15.981  -8.330  14.011  1.00  0.00    -0.260 N 
ATOM     15  H10 UNL     1      15.542  -8.026  14.881  1.00  0.00     0.190 HD
ENDROOT
BRANCH  12  16
HETATM   16  N9  UNL     1      12.618  -6.001  12.346  1.00  0.00    -0.331 N 
ATOM     17  H92 UNL     1      12.544  -5.309  11.601  1.00  0.00     0.177 HD
ATOM     18  H91 UNL     1      11.789  -6.237  12.893  1.00  0.00     0.177 HD
ENDBRANCH  12  16
BRANCH   1  19
HETATM   19  N3  UNL     1      18.172  -8.983  14.973  1.00  0.00    -0.271 N 
ATOM     20  H3  UNL     1      19.098  -9.360  14.772  1.00  0.00     0.185 HD
BRANCH  19  21
HETATM   21  N2  UNL     1      17.841  -8.649  16.266  1.00  0.00    -0.021 NA
BRANCH  21  22
HETATM   22  N1  UNL     1      18.969  -8.298  17.027  1.00  0.00    -0.096 NA
HETATM   23  C1  UNL     1      18.757  -7.002  17.610  1.00  0.00     0.168 C 
BRANCH  22  24
HETATM   24  O1  UNL     1      19.288  -9.239  17.937  1.00  0.00    -0.296 OA
ATOM     25  H1  UNL     1      18.538  -9.548  18.430  1.00  0.00     0.238 HD
ENDBRANCH  22  24
ENDBRANCH  21  22
ENDBRANCH  19  21
ENDBRANCH   1  19
TORSDOF 5
ENDMDL
MODEL 4
REMARK VINA RESULT: -7.899491070      1.211      1.215
REMARK  5 active torsions:
REMARK  status: ('A' for Active; 'I' for Inactive)
REMARK    1  A    between atoms: N1_2  and  O1_3 
REMARK    2  A    between atoms: N1_2  and  N2_5 
REMARK    3  A    between atoms: N2_5  and  N3_6 
REMARK    4  A    between atoms: N3_6  and  C2_8 
REMARK       I    between atoms: N4_12  and  C5_13 
REMARK       I    between atoms: C5_13  and  N5_14 
REMARK    5  A    between atoms: N8_19  and  N9_21 
ROOT
HETATM    1  C2  UNL     1      12.614  -8.262  12.371  1.00  0.00     0.139 A 
HETATM    2  C3  UNL     1      12.749  -9.647  12.397  1.00  0.00     0.127 A 
HETATM    3  C4  UNL     1      14.020  -9.976  12.820  1.00  0.00     0.286 A 
HETATM    4  O2  UNL     1      14.492 -11.133  12.964  1.00  0.00    -0.266 OA
HETATM    5  N4  UNL     1      14.638  -8.808  13.046  1.00  0.00    -0.045 N 
HETATM    6  C5  UNL     1      15.971  -8.645  13.500  1.00  0.00     0.723 C 
HETATM    7  N5  UNL     1      17.096  -8.773  12.678  1.00  0.00    -0.163 N 
ATOM      8  H5  UNL     1      17.988  -8.787  13.172  1.00  0.00     0.186 HD
HETATM    9  C6  UNL     1      17.182  -8.872  11.428  1.00  0.00     0.215 C 
HETATM   10  N6  UNL     1      18.468  -8.992  10.833  1.00  0.00    -0.066 NA
HETATM   11  N7  UNL     1      16.059  -8.868  10.571  1.00  0.00    -0.066 NA
HETATM   12  N8  UNL     1      16.155  -8.361  14.750  1.00  0.00    -0.137 N 
ATOM     13  H8  UNL     1      15.335  -8.269  15.350  1.00  0.00     0.205 HD
HETATM   14  N10 UNL     1      13.815  -7.799  12.782  1.00  0.00    -0.260 N 
ATOM     15  H10 UNL     1      14.055  -6.812  12.877  1.00  0.00     0.190 HD
ENDROOT
BRANCH  12  16
HETATM   16  N9  UNL     1      17.409  -8.177  15.320  1.00  0.00    -0.331 N 
ATOM     17  H92 UNL     1      18.114  -7.708  14.751  1.00  0.00     0.177 HD
ATOM     18  H91 UNL     1      17.652  -8.483  16.262  1.00  0.00     0.177 HD
ENDBRANCH  12  16
BRANCH   1  19
HETATM   19  N3  UNL     1      11.483  -7.483  11.999  1.00  0.00    -0.271 N 
ATOM     20  H3  UNL     1      11.505  -6.948  11.131  1.00  0.00     0.185 HD
BRANCH  19  21
HETATM   21  N2  UNL     1      10.361  -7.440  12.794  1.00  0.00    -0.021 NA
BRANCH  21  22
HETATM   22  N1  UNL     1       9.212  -7.870  12.110  1.00  0.00    -0.096 NA
HETATM   23  C1  UNL     1       9.253  -7.374  10.763  1.00  0.00     0.168 C 
BRANCH  22  24
HETATM   24  O1  UNL     1       9.046  -9.206  12.175  1.00  0.00    -0.296 OA
ATOM     25  H1  UNL     1       9.671  -9.684  11.642  1.00  0.00     0.238 HD
ENDBRANCH  22  24
ENDBRANCH  21  22
ENDBRANCH  19  21
ENDBRANCH   1  19
TORSDOF 5
ENDMDL
MODEL 5
REMARK VINA RESULT: -7.871387997      1.569      1.605
REMARK  5 active torsions:
REMARK  status: ('A' for Active; 'I' for Inactive)
REMARK    1  A    between atoms: N1_2  and  O1_3 
REMARK    2  A    between atoms: N1_2  and  N2_5 
REMARK    3  A    between atoms: N2_5  and  N3_6 
REMARK    4  A    between atoms: N3_6  and  C2_8 
REMARK       I    between atoms: N4_12  and  C5_13 
REMARK       I    between atoms: C5_13  and  N5_14 
REMARK    5  A    between atoms: N8_19  and  N9_21 
ROOT
HETATM    1  C2  UNL     1      12.633  -8.286  12.402  1.00  0.00     0.139 A 
HETATM    2  C3  UNL     1      12.773  -9.671  12.421  1.00  0.00     0.127 A 
HETATM    3  C4  UNL     1      14.048  -9.996  12.835  1.00  0.00     0.286 A 
HETATM    4  O2  UNL     1      14.526 -11.152  12.971  1.00  0.00    -0.266 OA
HETATM    5  N4  UNL     1      14.663  -8.827  13.061  1.00  0.00    -0.045 N 
HETATM    6  C5  UNL     1      15.998  -8.659  13.506  1.00  0.00     0.723 C 
HETATM    7  N5  UNL     1      17.118  -8.779  12.677  1.00  0.00    -0.163 N 
ATOM      8  H5  UNL     1      18.014  -8.792  13.164  1.00  0.00     0.186 HD
HETATM    9  C6  UNL     1      17.196  -8.873  11.426  1.00  0.00     0.215 C 
HETATM   10  N6  UNL     1      18.479  -8.985  10.821  1.00  0.00    -0.066 NA
HETATM   11  N7  UNL     1      16.067  -8.870  10.577  1.00  0.00    -0.066 NA
HETATM   12  N8  UNL     1      16.190  -8.380  14.757  1.00  0.00    -0.137 N 
ATOM     13  H8  UNL     1      15.373  -8.293  15.362  1.00  0.00     0.205 HD
HETATM   14  N10 UNL     1      13.834  -7.820  12.807  1.00  0.00    -0.260 N 
ATOM     15  H10 UNL     1      14.071  -6.832  12.904  1.00  0.00     0.190 HD
ENDROOT
BRANCH  12  16
HETATM   16  N9  UNL     1      17.447  -8.192  15.319  1.00  0.00    -0.331 N 
ATOM     17  H92 UNL     1      18.021  -7.441  14.935  1.00  0.00     0.177 HD
ATOM     18  H91 UNL     1      17.815  -8.760  16.082  1.00  0.00     0.177 HD
ENDBRANCH  12  16
BRANCH   1  19
HETATM   19  N3  UNL     1      11.496  -7.510  12.041  1.00  0.00    -0.271 N 
ATOM     20  H3  UNL     1      10.865  -7.850  11.315  1.00  0.00     0.185 HD
BRANCH  19  21
HETATM   21  N2  UNL     1      11.235  -6.307  12.656  1.00  0.00    -0.021 NA
BRANCH  21  22
HETATM   22  N1  UNL     1      11.787  -5.223  11.955  1.00  0.00    -0.096 NA
HETATM   23  C1  UNL     1      10.878  -4.113  12.014  1.00  0.00     0.168 C 
BRANCH  22  24
HETATM   24  O1  UNL     1      13.027  -4.912  12.383  1.00  0.00    -0.296 OA
ATOM     25  H1  UNL     1      13.396  -4.160  11.935  1.00  0.00     0.238 HD
ENDBRANCH  22  24
ENDBRANCH  21  22
ENDBRANCH  19  21
ENDBRANCH   1  19
TORSDOF 5
ENDMDL
