MODEL 1
REMARK VINA RESULT: -8.389980215      0.000      0.000
REMARK  9 active torsions:
REMARK  status: ('A' for Active; 'I' for Inactive)
REMARK    1  A    between atoms: N1_1  and  C1_4 
REMARK    2  A    between atoms: N5_13  and  C4_14 
REMARK    3  A    between atoms: C4_14  and  C5_15 
REMARK    4  A    between atoms: N7_22  and  C9_23 
REMARK    5  A    between atoms: C9_23  and  C10_24 
REMARK    6  A    between atoms: C14_31  and  S1_32 
REMARK    7  A    between atoms: S1_32  and  N9_33 
REMARK    8  A    between atoms: S1_32  and  N10_37 
REMARK    9  A    between atoms: N10_37  and  O3_39 
ROOT
HETATM    1  C5  UNL     1      27.773  74.472  -5.404  1.00  0.00     0.268 C 
HETATM    2  C6  UNL     1      28.827  74.059  -6.422  1.00  0.00     0.270 C 
HETATM    3  N6  UNL     1      28.273  73.339  -7.535  1.00  0.00    -0.071 N 
ATOM      4  H61 UNL     1      28.925  73.225  -8.311  1.00  0.00     0.277 HD
ATOM      5  H62 UNL     1      27.563  73.864  -8.046  1.00  0.00     0.277 HD
HETATM    6  C7  UNL     1      27.786  72.076  -6.993  1.00  0.00     0.262 C 
HETATM    7  C8  UNL     1      27.569  72.144  -5.529  1.00  0.00     0.300 C 
HETATM    8  N7  UNL     1      26.934  73.363  -5.050  1.00  0.00     0.103 N 
ENDROOT
BRANCH   8   9
HETATM    9  C9  UNL     1      26.729  73.171  -3.646  1.00  0.00     0.331 C 
BRANCH   9  10
HETATM   10  C10 UNL     1      25.359  73.298  -3.138  1.00  0.00     0.062 A 
HETATM   11  N8  UNL     1      24.252  73.114  -3.874  1.00  0.00    -0.324 N 
HETATM   12  C11 UNL     1      22.990  73.165  -3.404  1.00  0.00     0.245 A 
ATOM     13  H8  UNL     1      24.377  72.919  -4.867  1.00  0.00     0.169 HD
HETATM   14  O1  UNL     1      22.014  72.981  -4.169  1.00  0.00    -0.268 OA
HETATM   15  C12 UNL     1      22.749  73.422  -2.072  1.00  0.00     0.076 A 
HETATM   16  C13 UNL     1      23.836  73.620  -1.258  1.00  0.00     0.031 A 
HETATM   17  C14 UNL     1      25.123  73.559  -1.781  1.00  0.00     0.084 A 
BRANCH  17  18
HETATM   18  S1  UNL     1      26.476  73.816  -0.732  1.00  0.00     0.157 S 
HETATM   19  O2  UNL     1      27.228  75.026  -1.229  1.00  0.00    -0.222 OA
BRANCH  18  20
HETATM   20  N9  UNL     1      27.478  72.467  -0.488  1.00  0.00    -0.339 N 
ATOM     21  H92 UNL     1      27.773  72.188   0.447  1.00  0.00     0.167 HD
ATOM     22  H91 UNL     1      27.756  71.968  -1.334  1.00  0.00     0.167 HD
ENDBRANCH  18  20
BRANCH  18  23
HETATM   23  N10 UNL     1      25.925  74.216   0.712  1.00  0.00    -0.207 N 
ATOM     24  H10 UNL     1      25.676  75.182   0.932  1.00  0.00     0.206 HD
BRANCH  23  25
HETATM   25  O3  UNL     1      25.795  73.219   1.652  1.00  0.00    -0.281 OA
ATOM     26  H3  UNL     1      26.585  72.782   1.950  1.00  0.00     0.245 HD
ENDBRANCH  23  25
ENDBRANCH  18  23
ENDBRANCH  17  18
ENDBRANCH   9  10
ENDBRANCH   8   9
BRANCH   1  27
HETATM   27  C4  UNL     1      27.176  75.761  -5.764  1.00  0.00     0.189 C 
BRANCH  27  28
HETATM   28  N5  UNL     1      27.786  76.930  -5.131  1.00  0.00    -0.249 N 
HETATM   29  C3  UNL     1      27.367  77.376  -3.896  1.00  0.00     0.219 A 
HETATM   30  N4  UNL     1      28.056  78.461  -3.605  1.00  0.00    -0.183 N 
HETATM   31  C2  UNL     1      28.913  78.734  -4.621  1.00  0.00     0.734 A 
ATOM     32  H4  UNL     1      27.960  79.009  -2.749  1.00  0.00     0.185 HD
HETATM   33  N3  UNL     1      29.850  79.582  -5.064  1.00  0.00    -0.115 N 
HETATM   34  N11 UNL     1      28.707  77.763  -5.536  1.00  0.00     0.095 N 
HETATM   35  N2  UNL     1      30.253  79.183  -6.247  1.00  0.00    -0.116 N 
ATOM     36  H3  UNL     1      30.194  80.403  -4.565  1.00  0.00     0.206 HD
HETATM   37  C1  UNL     1      29.544  78.047  -6.550  1.00  0.00     0.727 A 
ATOM     38  H2  UNL     1      30.959  79.632  -6.830  1.00  0.00     0.206 HD
BRANCH  37  39
HETATM   39  N1  UNL     1      29.721  77.452  -7.659  1.00  0.00    -0.231 N 
ATOM     40  H12 UNL     1      30.571  77.065  -8.071  1.00  0.00     0.174 HD
ATOM     41  H11 UNL     1      28.936  77.283  -8.288  1.00  0.00     0.174 HD
ENDBRANCH  37  39
ENDBRANCH  27  28
ENDBRANCH   1  27
TORSDOF 9
ENDMDL
MODEL 2
REMARK VINA RESULT: -8.217106222      1.735      2.156
REMARK  9 active torsions:
REMARK  status: ('A' for Active; 'I' for Inactive)
REMARK    1  A    between atoms: N1_1  and  C1_4 
REMARK    2  A    between atoms: N5_13  and  C4_14 
REMARK    3  A    between atoms: C4_14  and  C5_15 
REMARK    4  A    between atoms: N7_22  and  C9_23 
REMARK    5  A    between atoms: C9_23  and  C10_24 
REMARK    6  A    between atoms: C14_31  and  S1_32 
REMARK    7  A    between atoms: S1_32  and  N9_33 
REMARK    8  A    between atoms: S1_32  and  N10_37 
REMARK    9  A    between atoms: N10_37  and  O3_39 
ROOT
HETATM    1  C5  UNL     1      29.075  75.565  -5.563  1.00  0.00     0.268 C 
HETATM    2  C6  UNL     1      30.228  75.257  -6.508  1.00  0.00     0.270 C 
HETATM    3  N6  UNL     1      29.826  74.463  -7.636  1.00  0.00    -0.071 N 
ATOM      4  H61 UNL     1      30.532  74.410  -8.370  1.00  0.00     0.277 HD
ATOM      5  H62 UNL     1      29.095  74.897  -8.199  1.00  0.00     0.277 HD
HETATM    6  C7  UNL     1      29.449  73.161  -7.095  1.00  0.00     0.262 C 
HETATM    7  C8  UNL     1      29.138  73.227  -5.649  1.00  0.00     0.300 C 
HETATM    8  N7  UNL     1      28.344  74.375  -5.235  1.00  0.00     0.103 N 
ENDROOT
BRANCH   8   9
HETATM    9  C9  UNL     1      28.077  74.182  -3.841  1.00  0.00     0.331 C 
BRANCH   9  10
HETATM   10  C10 UNL     1      26.684  73.943  -3.445  1.00  0.00     0.062 A 
HETATM   11  N8  UNL     1      25.749  73.401  -4.239  1.00  0.00    -0.324 N 
HETATM   12  C11 UNL     1      24.485  73.118  -3.867  1.00  0.00     0.245 A 
ATOM     13  H8  UNL     1      26.015  73.186  -5.199  1.00  0.00     0.169 HD
HETATM   14  O1  UNL     1      23.676  72.611  -4.680  1.00  0.00    -0.268 OA
HETATM   15  C12 UNL     1      24.057  73.382  -2.584  1.00  0.00     0.076 A 
HETATM   16  C13 UNL     1      24.963  73.936  -1.715  1.00  0.00     0.031 A 
HETATM   17  C14 UNL     1      26.259  74.214  -2.138  1.00  0.00     0.084 A 
BRANCH  17  18
HETATM   18  S1  UNL     1      27.380  74.917  -1.023  1.00  0.00     0.157 S 
HETATM   19  O2  UNL     1      28.716  74.245  -1.217  1.00  0.00    -0.222 OA
BRANCH  18  20
HETATM   20  N9  UNL     1      26.880  74.940   0.600  1.00  0.00    -0.339 N 
ATOM     21  H92 UNL     1      27.542  75.103   1.358  1.00  0.00     0.167 HD
ATOM     22  H91 UNL     1      25.883  74.781   0.754  1.00  0.00     0.167 HD
ENDBRANCH  18  20
BRANCH  18  23
HETATM   23  N10 UNL     1      27.605  76.445  -1.430  1.00  0.00    -0.207 N 
ATOM     24  H10 UNL     1      28.514  76.894  -1.309  1.00  0.00     0.206 HD
BRANCH  23  25
HETATM   25  O3  UNL     1      26.535  77.138  -1.950  1.00  0.00    -0.281 OA
ATOM     26  H3  UNL     1      25.668  76.930  -1.623  1.00  0.00     0.245 HD
ENDBRANCH  23  25
ENDBRANCH  18  23
ENDBRANCH  17  18
ENDBRANCH   9  10
ENDBRANCH   8   9
BRANCH   1  27
HETATM   27  C4  UNL     1      28.364  76.774  -5.986  1.00  0.00     0.189 C 
BRANCH  27  28
HETATM   28  N5  UNL     1      29.088  78.028  -5.782  1.00  0.00    -0.249 N 
HETATM   29  C3  UNL     1      29.322  78.523  -4.518  1.00  0.00     0.219 A 
HETATM   30  N4  UNL     1      29.946  79.677  -4.646  1.00  0.00    -0.183 N 
HETATM   31  C2  UNL     1      30.123  79.947  -5.964  1.00  0.00     0.734 A 
ATOM     32  H4  UNL     1      30.247  80.274  -3.875  1.00  0.00     0.185 HD
HETATM   33  N3  UNL     1      30.604  80.834  -6.845  1.00  0.00    -0.115 N 
HETATM   34  N11 UNL     1      29.577  78.901  -6.621  1.00  0.00     0.095 N 
HETATM   35  N2  UNL     1      30.379  80.387  -8.057  1.00  0.00    -0.116 N 
ATOM     36  H3  UNL     1      31.068  81.711  -6.612  1.00  0.00     0.206 HD
HETATM   37  C1  UNL     1      29.737  79.180  -7.928  1.00  0.00     0.727 A 
ATOM     38  H2  UNL     1      30.633  80.849  -8.930  1.00  0.00     0.206 HD
BRANCH  37  39
HETATM   39  N1  UNL     1      29.378  78.526  -8.957  1.00  0.00    -0.231 N 
ATOM     40  H12 UNL     1      29.907  78.265  -9.789  1.00  0.00     0.174 HD
ATOM     41  H11 UNL     1      28.430  78.157  -9.031  1.00  0.00     0.174 HD
ENDBRANCH  37  39
ENDBRANCH  27  28
ENDBRANCH   1  27
TORSDOF 9
ENDMDL
MODEL 3
REMARK VINA RESULT: -8.213529671      3.945      7.393
REMARK  9 active torsions:
REMARK  status: ('A' for Active; 'I' for Inactive)
REMARK    1  A    between atoms: N1_1  and  C1_4 
REMARK    2  A    between atoms: N5_13  and  C4_14 
REMARK    3  A    between atoms: C4_14  and  C5_15 
REMARK    4  A    between atoms: N7_22  and  C9_23 
REMARK    5  A    between atoms: C9_23  and  C10_24 
REMARK    6  A    between atoms: C14_31  and  S1_32 
REMARK    7  A    between atoms: S1_32  and  N9_33 
REMARK    8  A    between atoms: S1_32  and  N10_37 
REMARK    9  A    between atoms: N10_37  and  O3_39 
ROOT
HETATM    1  C5  UNL     1      23.632  73.979  -1.037  1.00  0.00     0.268 C 
HETATM    2  C6  UNL     1      22.262  74.221  -1.654  1.00  0.00     0.270 C 
HETATM    3  N6  UNL     1      21.847  73.152  -2.520  1.00  0.00    -0.071 N 
ATOM      4  H61 UNL     1      20.863  73.203  -2.786  1.00  0.00     0.277 HD
ATOM      5  H62 UNL     1      21.801  72.245  -2.054  1.00  0.00     0.277 HD
HETATM    6  C7  UNL     1      22.760  73.178  -3.657  1.00  0.00     0.262 C 
HETATM    7  C8  UNL     1      24.019  73.893  -3.343  1.00  0.00     0.300 C 
HETATM    8  N7  UNL     1      24.591  73.602  -2.036  1.00  0.00     0.103 N 
ENDROOT
BRANCH   8   9
HETATM    9  C9  UNL     1      25.837  74.307  -1.990  1.00  0.00     0.331 C 
BRANCH   9  10
HETATM   10  C10 UNL     1      27.051  73.559  -2.337  1.00  0.00     0.062 A 
HETATM   11  N8  UNL     1      27.253  72.935  -3.507  1.00  0.00    -0.324 N 
HETATM   12  C11 UNL     1      28.388  72.299  -3.861  1.00  0.00     0.245 A 
ATOM     13  H8  UNL     1      26.489  72.942  -4.181  1.00  0.00     0.169 HD
HETATM   14  O1  UNL     1      28.487  71.740  -4.979  1.00  0.00    -0.268 OA
HETATM   15  C12 UNL     1      29.462  72.251  -2.999  1.00  0.00     0.076 A 
HETATM   16  C13 UNL     1      29.325  72.872  -1.782  1.00  0.00     0.031 A 
HETATM   17  C14 UNL     1      28.138  73.517  -1.454  1.00  0.00     0.084 A 
BRANCH  17  18
HETATM   18  S1  UNL     1      27.992  74.287   0.089  1.00  0.00     0.157 S 
HETATM   19  O2  UNL     1      26.966  73.529   0.894  1.00  0.00    -0.222 OA
BRANCH  18  20
HETATM   20  N9  UNL     1      27.697  75.959   0.046  1.00  0.00    -0.339 N 
ATOM     21  H92 UNL     1      27.435  76.430  -0.820  1.00  0.00     0.167 HD
ATOM     22  H91 UNL     1      27.800  76.446   0.937  1.00  0.00     0.167 HD
ENDBRANCH  18  20
BRANCH  18  23
HETATM   23  N10 UNL     1      29.371  74.109   0.874  1.00  0.00    -0.207 N 
ATOM     24  H10 UNL     1      30.047  73.397   0.595  1.00  0.00     0.206 HD
BRANCH  23  25
HETATM   25  O3  UNL     1      29.619  74.944   1.940  1.00  0.00    -0.281 OA
ATOM     26  H3  UNL     1      30.266  74.670   2.580  1.00  0.00     0.245 HD
ENDBRANCH  23  25
ENDBRANCH  18  23
ENDBRANCH  17  18
ENDBRANCH   9  10
ENDBRANCH   8   9
BRANCH   1  27
HETATM   27  C4  UNL     1      23.517  73.206   0.202  1.00  0.00     0.189 C 
BRANCH  27  28
HETATM   28  N5  UNL     1      22.693  73.817   1.245  1.00  0.00    -0.249 N 
HETATM   29  C3  UNL     1      21.321  73.692   1.239  1.00  0.00     0.219 A 
HETATM   30  N4  UNL     1      20.850  74.379   2.261  1.00  0.00    -0.183 N 
HETATM   31  C2  UNL     1      21.882  74.949   2.932  1.00  0.00     0.734 A 
ATOM     32  H4  UNL     1      19.864  74.467   2.508  1.00  0.00     0.185 HD
HETATM   33  N3  UNL     1      22.216  75.734   3.965  1.00  0.00    -0.115 N 
HETATM   34  N11 UNL     1      22.995  74.573   2.266  1.00  0.00     0.095 N 
HETATM   35  N2  UNL     1      23.520  75.877   3.980  1.00  0.00    -0.116 N 
ATOM     36  H3  UNL     1      21.564  76.152   4.629  1.00  0.00     0.206 HD
HETATM   37  C1  UNL     1      24.016  75.155   2.922  1.00  0.00     0.727 A 
ATOM     38  H2  UNL     1      24.062  76.421   4.651  1.00  0.00     0.206 HD
BRANCH  37  39
HETATM   39  N1  UNL     1      25.264  75.133   2.685  1.00  0.00    -0.231 N 
ATOM     40  H12 UNL     1      25.887  75.874   2.365  1.00  0.00     0.174 HD
ATOM     41  H11 UNL     1      25.803  74.279   2.828  1.00  0.00     0.174 HD
ENDBRANCH  37  39
ENDBRANCH  27  28
ENDBRANCH   1  27
TORSDOF 9
ENDMDL
MODEL 4
REMARK VINA RESULT: -8.192034359      1.715      2.008
REMARK  9 active torsions:
REMARK  status: ('A' for Active; 'I' for Inactive)
REMARK    1  A    between atoms: N1_1  and  C1_4 
REMARK    2  A    between atoms: N5_13  and  C4_14 
REMARK    3  A    between atoms: C4_14  and  C5_15 
REMARK    4  A    between atoms: N7_22  and  C9_23 
REMARK    5  A    between atoms: C9_23  and  C10_24 
REMARK    6  A    between atoms: C14_31  and  S1_32 
REMARK    7  A    between atoms: S1_32  and  N9_33 
REMARK    8  A    between atoms: S1_32  and  N10_37 
REMARK    9  A    between atoms: N10_37  and  O3_39 
ROOT
HETATM    1  C5  UNL     1      28.916  75.619  -5.462  1.00  0.00     0.268 C 
HETATM    2  C6  UNL     1      29.852  74.967  -6.470  1.00  0.00     0.270 C 
HETATM    3  N6  UNL     1      29.175  74.051  -7.345  1.00  0.00    -0.071 N 
ATOM      4  H61 UNL     1      29.741  73.754  -8.140  1.00  0.00     0.277 HD
ATOM      5  H62 UNL     1      28.422  74.481  -7.882  1.00  0.00     0.277 HD
HETATM    6  C7  UNL     1      28.731  72.945  -6.502  1.00  0.00     0.262 C 
HETATM    7  C8  UNL     1      28.670  73.325  -5.072  1.00  0.00     0.300 C 
HETATM    8  N7  UNL     1      28.104  74.639  -4.800  1.00  0.00     0.103 N 
ENDROOT
BRANCH   8   9
HETATM    9  C9  UNL     1      28.045  74.750  -3.374  1.00  0.00     0.331 C 
BRANCH   9  10
HETATM   10  C10 UNL     1      26.805  74.328  -2.713  1.00  0.00     0.062 A 
HETATM   11  N8  UNL     1      25.579  74.441  -3.246  1.00  0.00    -0.324 N 
HETATM   12  C11 UNL     1      24.441  74.000  -2.676  1.00  0.00     0.245 A 
ATOM     13  H8  UNL     1      25.504  74.898  -4.154  1.00  0.00     0.169 HD
HETATM   14  O1  UNL     1      23.336  74.151  -3.250  1.00  0.00    -0.268 OA
HETATM   15  C12 UNL     1      24.469  73.373  -1.449  1.00  0.00     0.076 A 
HETATM   16  C13 UNL     1      25.692  73.220  -0.844  1.00  0.00     0.031 A 
HETATM   17  C14 UNL     1      26.844  73.690  -1.466  1.00  0.00     0.084 A 
BRANCH  17  18
HETATM   18  S1  UNL     1      28.372  73.489  -0.677  1.00  0.00     0.157 S 
HETATM   19  O2  UNL     1      28.907  74.858  -0.340  1.00  0.00    -0.222 OA
BRANCH  18  20
HETATM   20  N9  UNL     1      29.498  72.522  -1.503  1.00  0.00    -0.339 N 
ATOM     21  H92 UNL     1      29.386  72.306  -2.494  1.00  0.00     0.167 HD
ATOM     22  H91 UNL     1      30.280  72.183  -0.943  1.00  0.00     0.167 HD
ENDBRANCH  18  20
BRANCH  18  23
HETATM   23  N10 UNL     1      28.124  72.767   0.725  1.00  0.00    -0.207 N 
ATOM     24  H10 UNL     1      27.213  72.373   0.961  1.00  0.00     0.206 HD
BRANCH  23  25
HETATM   25  O3  UNL     1      29.179  72.692   1.607  1.00  0.00    -0.281 OA
ATOM     26  H3  UNL     1      29.104  73.157   2.432  1.00  0.00     0.245 HD
ENDBRANCH  23  25
ENDBRANCH  18  23
ENDBRANCH  17  18
ENDBRANCH   9  10
ENDBRANCH   8   9
BRANCH   1  27
HETATM   27  C4  UNL     1      28.302  76.825  -6.025  1.00  0.00     0.189 C 
BRANCH  27  28
HETATM   28  N5  UNL     1      29.061  78.060  -5.832  1.00  0.00    -0.249 N 
HETATM   29  C3  UNL     1      29.299  78.566  -4.573  1.00  0.00     0.219 A 
HETATM   30  N4  UNL     1      29.958  79.699  -4.711  1.00  0.00    -0.183 N 
HETATM   31  C2  UNL     1      30.154  79.945  -6.031  1.00  0.00     0.734 A 
ATOM     32  H4  UNL     1      30.271  80.297  -3.946  1.00  0.00     0.185 HD
HETATM   33  N3  UNL     1      30.667  80.805  -6.920  1.00  0.00    -0.115 N 
HETATM   34  N11 UNL     1      29.582  78.907  -6.679  1.00  0.00     0.095 N 
HETATM   35  N2  UNL     1      30.439  80.349  -8.128  1.00  0.00    -0.116 N 
ATOM     36  H3  UNL     1      31.156  81.672  -6.695  1.00  0.00     0.206 HD
HETATM   37  C1  UNL     1      29.761  79.163  -7.988  1.00  0.00     0.727 A 
ATOM     38  H2  UNL     1      30.713  80.791  -9.005  1.00  0.00     0.206 HD
BRANCH  37  39
HETATM   39  N1  UNL     1      29.391  78.506  -9.011  1.00  0.00    -0.231 N 
ATOM     40  H12 UNL     1      29.853  78.372  -9.910  1.00  0.00     0.174 HD
ATOM     41  H11 UNL     1      28.511  77.991  -9.005  1.00  0.00     0.174 HD
ENDBRANCH  37  39
ENDBRANCH  27  28
ENDBRANCH   1  27
TORSDOF 9
ENDMDL
MODEL 5
REMARK VINA RESULT: -7.978635381      4.113      6.882
REMARK  9 active torsions:
REMARK  status: ('A' for Active; 'I' for Inactive)
REMARK    1  A    between atoms: N1_1  and  C1_4 
REMARK    2  A    between atoms: N5_13  and  C4_14 
REMARK    3  A    between atoms: C4_14  and  C5_15 
REMARK    4  A    between atoms: N7_22  and  C9_23 
REMARK    5  A    between atoms: C9_23  and  C10_24 
REMARK    6  A    between atoms: C14_31  and  S1_32 
REMARK    7  A    between atoms: S1_32  and  N9_33 
REMARK    8  A    between atoms: S1_32  and  N10_37 
REMARK    9  A    between atoms: N10_37  and  O3_39 
ROOT
HETATM    1  C5  UNL     1      27.427  74.298  -3.881  1.00  0.00     0.268 C 
HETATM    2  C6  UNL     1      26.343  75.244  -3.384  1.00  0.00     0.270 C 
HETATM    3  N6  UNL     1      25.637  74.730  -2.244  1.00  0.00    -0.071 N 
ATOM      4  H61 UNL     1      25.047  75.423  -1.784  1.00  0.00     0.277 HD
ATOM      5  H62 UNL     1      26.241  74.533  -1.445  1.00  0.00     0.277 HD
HETATM    6  C7  UNL     1      24.902  73.563  -2.720  1.00  0.00     0.262 C 
HETATM    7  C8  UNL     1      25.466  73.025  -3.980  1.00  0.00     0.300 C 
HETATM    8  N7  UNL     1      26.920  72.965  -4.035  1.00  0.00     0.103 N 
ENDROOT
BRANCH   8   9
HETATM    9  C9  UNL     1      27.236  72.325  -5.276  1.00  0.00     0.331 C 
BRANCH   9  10
HETATM   10  C10 UNL     1      28.440  71.486  -5.318  1.00  0.00     0.062 A 
HETATM   11  N8  UNL     1      28.690  70.470  -4.479  1.00  0.00    -0.324 N 
HETATM   12  C11 UNL     1      29.760  69.653  -4.547  1.00  0.00     0.245 A 
ATOM     13  H8  UNL     1      28.018  70.303  -3.731  1.00  0.00     0.169 HD
HETATM   14  O1  UNL     1      29.913  68.727  -3.716  1.00  0.00    -0.268 OA
HETATM   15  C12 UNL     1      30.708  69.821  -5.533  1.00  0.00     0.076 A 
HETATM   16  C13 UNL     1      30.515  70.843  -6.430  1.00  0.00     0.031 A 
HETATM   17  C14 UNL     1      29.397  71.664  -6.325  1.00  0.00     0.084 A 
BRANCH  17  18
HETATM   18  S1  UNL     1      29.182  72.948  -7.467  1.00  0.00     0.157 S 
HETATM   19  O2  UNL     1      29.404  74.255  -6.747  1.00  0.00    -0.222 OA
BRANCH  18  20
HETATM   20  N9  UNL     1      27.726  72.912  -8.340  1.00  0.00    -0.339 N 
ATOM     21  H92 UNL     1      27.253  73.771  -8.621  1.00  0.00     0.167 HD
ATOM     22  H91 UNL     1      27.368  71.981  -8.558  1.00  0.00     0.167 HD
ENDBRANCH  18  20
BRANCH  18  23
HETATM   23  N10 UNL     1      30.345  72.855  -8.556  1.00  0.00    -0.207 N 
ATOM     24  H10 UNL     1      30.327  72.141  -9.286  1.00  0.00     0.206 HD
BRANCH  23  25
HETATM   25  O3  UNL     1      31.374  73.767  -8.481  1.00  0.00    -0.281 OA
ATOM     26  H3  UNL     1      32.139  73.534  -7.968  1.00  0.00     0.245 HD
ENDBRANCH  23  25
ENDBRANCH  18  23
ENDBRANCH  17  18
ENDBRANCH   9  10
ENDBRANCH   8   9
BRANCH   1  27
HETATM   27  C4  UNL     1      28.687  74.529  -3.170  1.00  0.00     0.189 C 
BRANCH  27  28
HETATM   28  N5  UNL     1      28.850  73.775  -1.927  1.00  0.00    -0.249 N 
HETATM   29  C3  UNL     1      29.245  72.455  -1.937  1.00  0.00     0.219 A 
HETATM   30  N4  UNL     1      29.258  72.029  -0.689  1.00  0.00    -0.183 N 
HETATM   31  C2  UNL     1      28.879  73.040   0.134  1.00  0.00     0.734 A 
ATOM     32  H4  UNL     1      29.513  71.088  -0.389  1.00  0.00     0.185 HD
HETATM   33  N3  UNL     1      28.642  73.386   1.405  1.00  0.00    -0.115 N 
HETATM   34  N11 UNL     1      28.638  74.092  -0.678  1.00  0.00     0.095 N 
HETATM   35  N2  UNL     1      28.250  74.637   1.435  1.00  0.00    -0.116 N 
ATOM     36  H3  UNL     1      28.748  72.777   2.217  1.00  0.00     0.206 HD
HETATM   37  C1  UNL     1      28.244  75.087   0.138  1.00  0.00     0.727 A 
ATOM     38  H2  UNL     1      27.998  75.174   2.265  1.00  0.00     0.206 HD
BRANCH  37  39
HETATM   39  N1  UNL     1      27.882  76.275  -0.132  1.00  0.00    -0.231 N 
ATOM     40  H12 UNL     1      27.224  76.622  -0.829  1.00  0.00     0.174 HD
ATOM     41  H11 UNL     1      28.253  77.063   0.400  1.00  0.00     0.174 HD
ENDBRANCH  37  39
ENDBRANCH  27  28
ENDBRANCH   1  27
TORSDOF 9
ENDMDL
