MODEL 1
REMARK VINA RESULT: -7.498080087      0.000      0.000
REMARK  3 active torsions:
REMARK  status: ('A' for Active; 'I' for Inactive)
REMARK    1  A    between atoms: C2_2  and  C3_3 
REMARK    2  A    between atoms: C3_3  and  C4_4 
REMARK    3  A    between atoms: N1_7  and  C7_8 
ROOT
HETATM    1  C7  UNL     1      30.525  -4.614  61.946  1.00  0.00     0.223 C 
HETATM    2  C8  UNL     1      29.729  -3.353  62.011  1.00  0.00     0.039 C 
HETATM    3  C9  UNL     1      30.094  -2.392  60.939  1.00  0.00     0.046 C 
HETATM    4  C10 UNL     1      31.471  -2.584  60.374  1.00  0.00     0.099 C 
HETATM    5  C11 UNL     1      31.693  -4.016  59.903  1.00  0.00     0.046 C 
HETATM    6  C12 UNL     1      30.663  -4.967  60.475  1.00  0.00     0.039 C 
HETATM    7  N2  UNL     1      31.766  -1.719  59.310  1.00  0.00    -0.360 N 
ATOM      8  H2  UNL     1      31.261  -1.826  58.431  1.00  0.00     0.162 HD
HETATM    9  C13 UNL     1      32.622  -0.832  59.407  1.00  0.00     0.080 C 
HETATM   10  C14 UNL     1      32.924   0.092  58.239  1.00  0.00     0.089 C 
HETATM   11  N3  UNL     1      33.312  -0.702  60.637  1.00  0.00    -0.318 N 
ATOM     12  H3  UNL     1      33.972   0.025  60.913  1.00  0.00     0.175 HD
HETATM   13  S1  UNL     1      32.766  -2.093  61.582  1.00  0.00    -0.022 SA
ENDROOT
BRANCH   1  14
HETATM   14  N1  UNL     1      30.036  -5.696  62.739  1.00  0.00     0.093 N 
HETATM   15  C6  UNL     1      31.091  -6.024  63.685  1.00  0.00     0.273 C 
HETATM   16  C5  UNL     1      31.392  -7.484  63.666  1.00  0.00     0.035 C 
HETATM   17  C4  UNL     1      30.096  -8.214  64.042  1.00  0.00    -0.011 C 
HETATM   18  C16 UNL     1      29.101  -7.894  62.977  1.00  0.00     0.035 C 
HETATM   19  C15 UNL     1      29.589  -6.839  62.000  1.00  0.00     0.273 C 
BRANCH  17  20
HETATM   20  C3  UNL     1      30.418  -9.676  64.174  1.00  0.00     0.004 C 
BRANCH  20  21
HETATM   21  C2  UNL     1      29.368 -10.537  63.516  1.00  0.00    -0.004 C 
HETATM   22  C1  UNL     1      28.323 -11.010  64.479  1.00  0.00     0.005 C 
ENDBRANCH  20  21
ENDBRANCH  17  20
ENDBRANCH   1  14
TORSDOF 3
ENDMDL
MODEL 2
REMARK VINA RESULT: -7.493991154      3.150      4.344
REMARK  3 active torsions:
REMARK  status: ('A' for Active; 'I' for Inactive)
REMARK    1  A    between atoms: C2_2  and  C3_3 
REMARK    2  A    between atoms: C3_3  and  C4_4 
REMARK    3  A    between atoms: N1_7  and  C7_8 
ROOT
HETATM    1  C7  UNL     1      30.874  -4.483  60.693  1.00  0.00     0.223 C 
HETATM    2  C8  UNL     1      32.273  -4.739  60.239  1.00  0.00     0.039 C 
HETATM    3  C9  UNL     1      33.243  -3.763  60.798  1.00  0.00     0.046 C 
HETATM    4  C10 UNL     1      32.637  -2.457  61.219  1.00  0.00     0.099 C 
HETATM    5  C11 UNL     1      31.472  -2.659  62.180  1.00  0.00     0.046 C 
HETATM    6  C12 UNL     1      30.957  -4.083  62.155  1.00  0.00     0.039 C 
HETATM    7  N2  UNL     1      33.554  -1.579  61.817  1.00  0.00    -0.360 N 
ATOM      8  H2  UNL     1      33.953  -1.823  62.723  1.00  0.00     0.162 HD
HETATM    9  C13 UNL     1      33.891  -0.519  61.277  1.00  0.00     0.080 C 
HETATM   10  C14 UNL     1      34.886   0.415  61.945  1.00  0.00     0.089 C 
HETATM   11  N3  UNL     1      33.323  -0.200  60.020  1.00  0.00    -0.318 N 
ATOM     12  H3  UNL     1      33.560   0.577  59.403  1.00  0.00     0.175 HD
HETATM   13  S1  UNL     1      32.110  -1.462  59.766  1.00  0.00    -0.022 SA
ENDROOT
BRANCH   1  14
HETATM   14  N1  UNL     1      29.942  -5.537  60.451  1.00  0.00     0.093 N 
HETATM   15  C6  UNL     1      30.179  -5.994  59.091  1.00  0.00     0.273 C 
HETATM   16  C5  UNL     1      28.909  -6.036  58.311  1.00  0.00     0.035 C 
HETATM   17  C4  UNL     1      27.968  -7.004  59.040  1.00  0.00    -0.011 C 
HETATM   18  C16 UNL     1      27.709  -6.415  60.386  1.00  0.00     0.035 C 
HETATM   19  C15 UNL     1      28.568  -5.199  60.682  1.00  0.00     0.273 C 
BRANCH  17  20
HETATM   20  C3  UNL     1      26.742  -7.174  58.188  1.00  0.00     0.004 C 
BRANCH  20  21
HETATM   21  C2  UNL     1      27.011  -8.063  56.999  1.00  0.00    -0.004 C 
HETATM   22  C1  UNL     1      25.765  -8.410  56.245  1.00  0.00     0.005 C 
ENDBRANCH  20  21
ENDBRANCH  17  20
ENDBRANCH   1  14
TORSDOF 3
ENDMDL
MODEL 3
REMARK VINA RESULT: -7.417348922      4.026      5.985
REMARK  3 active torsions:
REMARK  status: ('A' for Active; 'I' for Inactive)
REMARK    1  A    between atoms: C2_2  and  C3_3 
REMARK    2  A    between atoms: C3_3  and  C4_4 
REMARK    3  A    between atoms: N1_7  and  C7_8 
ROOT
HETATM    1  C7  UNL     1      29.853  -6.476  60.001  1.00  0.00     0.223 C 
HETATM    2  C8  UNL     1      28.619  -6.682  59.186  1.00  0.00     0.039 C 
HETATM    3  C9  UNL     1      28.870  -7.481  57.960  1.00  0.00     0.046 C 
HETATM    4  C10 UNL     1      30.293  -7.457  57.484  1.00  0.00     0.099 C 
HETATM    5  C11 UNL     1      31.263  -7.858  58.588  1.00  0.00     0.046 C 
HETATM    6  C12 UNL     1      30.625  -7.782  59.959  1.00  0.00     0.039 C 
HETATM    7  N2  UNL     1      30.526  -8.280  56.372  1.00  0.00    -0.360 N 
ATOM      8  H2  UNL     1      30.453  -9.291  56.481  1.00  0.00     0.162 HD
HETATM    9  C13 UNL     1      30.818  -7.814  55.264  1.00  0.00     0.080 C 
HETATM   10  C14 UNL     1      31.067  -8.727  54.075  1.00  0.00     0.089 C 
HETATM   11  N3  UNL     1      30.915  -6.407  55.137  1.00  0.00    -0.318 N 
ATOM     12  H3  UNL     1      31.052  -5.862  54.286  1.00  0.00     0.175 HD
HETATM   13  S1  UNL     1      30.743  -5.815  56.794  1.00  0.00    -0.022 SA
ENDROOT
BRANCH   1  14
HETATM   14  N1  UNL     1      29.646  -5.987  61.326  1.00  0.00     0.093 N 
HETATM   15  C6  UNL     1      28.682  -4.904  61.222  1.00  0.00     0.273 C 
HETATM   16  C5  UNL     1      29.174  -3.680  61.916  1.00  0.00     0.035 C 
HETATM   17  C4  UNL     1      29.391  -4.057  63.387  1.00  0.00    -0.011 C 
HETATM   18  C16 UNL     1      30.453  -5.105  63.408  1.00  0.00     0.035 C 
HETATM   19  C15 UNL     1      30.836  -5.595  62.022  1.00  0.00     0.273 C 
BRANCH  17  20
HETATM   20  C3  UNL     1      29.743  -2.800  64.132  1.00  0.00     0.004 C 
BRANCH  20  21
HETATM   21  C2  UNL     1      31.163  -2.837  64.643  1.00  0.00    -0.004 C 
HETATM   22  C1  UNL     1      31.256  -2.542  66.108  1.00  0.00     0.005 C 
ENDBRANCH  20  21
ENDBRANCH  17  20
ENDBRANCH   1  14
TORSDOF 3
ENDMDL
MODEL 4
REMARK VINA RESULT: -7.144701642      4.249      6.086
REMARK  3 active torsions:
REMARK  status: ('A' for Active; 'I' for Inactive)
REMARK    1  A    between atoms: C2_2  and  C3_3 
REMARK    2  A    between atoms: C3_3  and  C4_4 
REMARK    3  A    between atoms: N1_7  and  C7_8 
ROOT
HETATM    1  C7  UNL     1      30.131  -6.490  59.757  1.00  0.00     0.223 C 
HETATM    2  C8  UNL     1      30.941  -5.544  58.934  1.00  0.00     0.039 C 
HETATM    3  C9  UNL     1      30.925  -5.885  57.489  1.00  0.00     0.046 C 
HETATM    4  C10 UNL     1      30.607  -7.322  57.194  1.00  0.00     0.099 C 
HETATM    5  C11 UNL     1      29.308  -7.760  57.858  1.00  0.00     0.046 C 
HETATM    6  C12 UNL     1      28.881  -6.806  58.954  1.00  0.00     0.039 C 
HETATM    7  N2  UNL     1      30.519  -7.607  55.823  1.00  0.00    -0.360 N 
ATOM      8  H2  UNL     1      29.755  -7.202  55.282  1.00  0.00     0.162 HD
HETATM    9  C13 UNL     1      31.340  -8.335  55.252  1.00  0.00     0.080 C 
HETATM   10  C14 UNL     1      31.222  -8.629  53.767  1.00  0.00     0.089 C 
HETATM   11  N3  UNL     1      32.391  -8.887  56.024  1.00  0.00    -0.318 N 
ATOM     12  H3  UNL     1      33.194  -9.424  55.698  1.00  0.00     0.175 HD
HETATM   13  S1  UNL     1      31.989  -8.430  57.684  1.00  0.00    -0.022 SA
ENDROOT
BRANCH   1  14
HETATM   14  N1  UNL     1      29.848  -6.065  61.091  1.00  0.00     0.093 N 
HETATM   15  C6  UNL     1      28.789  -5.075  60.993  1.00  0.00     0.273 C 
HETATM   16  C5  UNL     1      29.147  -3.833  61.737  1.00  0.00     0.035 C 
HETATM   17  C4  UNL     1      29.364  -4.235  63.201  1.00  0.00    -0.011 C 
HETATM   18  C16 UNL     1      30.520  -5.179  63.218  1.00  0.00     0.035 C 
HETATM   19  C15 UNL     1      30.979  -5.587  61.829  1.00  0.00     0.273 C 
BRANCH  17  20
HETATM   20  C3  UNL     1      29.579  -2.976  63.992  1.00  0.00     0.004 C 
BRANCH  20  21
HETATM   21  C2  UNL     1      31.019  -2.825  64.417  1.00  0.00    -0.004 C 
HETATM   22  C1  UNL     1      31.165  -2.580  65.887  1.00  0.00     0.005 C 
ENDBRANCH  20  21
ENDBRANCH  17  20
ENDBRANCH   1  14
TORSDOF 3
ENDMDL
MODEL 5
REMARK VINA RESULT: -7.120673910      3.665      5.073
REMARK  3 active torsions:
REMARK  status: ('A' for Active; 'I' for Inactive)
REMARK    1  A    between atoms: C2_2  and  C3_3 
REMARK    2  A    between atoms: C3_3  and  C4_4 
REMARK    3  A    between atoms: N1_7  and  C7_8 
ROOT
HETATM    1  C7  UNL     1      29.924  -5.224  62.106  1.00  0.00     0.223 C 
HETATM    2  C8  UNL     1      29.044  -4.504  63.074  1.00  0.00     0.039 C 
HETATM    3  C9  UNL     1      29.750  -3.404  63.779  1.00  0.00     0.046 C 
HETATM    4  C10 UNL     1      31.242  -3.554  63.828  1.00  0.00     0.099 C 
HETATM    5  C11 UNL     1      31.834  -3.762  62.439  1.00  0.00     0.046 C 
HETATM    6  C12 UNL     1      30.782  -4.169  61.429  1.00  0.00     0.039 C 
HETATM    7  N2  UNL     1      31.896  -2.468  64.427  1.00  0.00    -0.360 N 
ATOM      8  H2  UNL     1      31.883  -1.562  63.958  1.00  0.00     0.162 HD
HETATM    9  C13 UNL     1      32.489  -2.576  65.507  1.00  0.00     0.080 C 
HETATM   10  C14 UNL     1      33.190  -1.384  66.136  1.00  0.00     0.089 C 
HETATM   11  N3  UNL     1      32.495  -3.843  66.140  1.00  0.00    -0.318 N 
ATOM     12  H3  UNL     1      32.851  -4.080  67.066  1.00  0.00     0.175 HD
HETATM   13  S1  UNL     1      31.743  -4.917  64.954  1.00  0.00    -0.022 SA
ENDROOT
BRANCH   1  14
HETATM   14  N1  UNL     1      29.256  -6.083  61.181  1.00  0.00     0.093 N 
HETATM   15  C6  UNL     1      30.255  -6.504  60.214  1.00  0.00     0.273 C 
HETATM   16  C5  UNL     1      29.778  -6.282  58.819  1.00  0.00     0.035 C 
HETATM   17  C4  UNL     1      28.494  -7.103  58.649  1.00  0.00    -0.011 C 
HETATM   18  C16 UNL     1      27.500  -6.548  59.612  1.00  0.00     0.035 C 
HETATM   19  C15 UNL     1      28.094  -5.520  60.559  1.00  0.00     0.273 C 
BRANCH  17  20
HETATM   20  C3  UNL     1      28.081  -7.010  57.207  1.00  0.00     0.004 C 
BRANCH  20  21
HETATM   21  C2  UNL     1      27.416  -8.281  56.737  1.00  0.00    -0.004 C 
HETATM   22  C1  UNL     1      25.922  -8.184  56.740  1.00  0.00     0.005 C 
ENDBRANCH  20  21
ENDBRANCH  17  20
ENDBRANCH   1  14
TORSDOF 3
ENDMDL
