MODEL 1
REMARK VINA RESULT: -7.887681290      0.000      0.000
REMARK  6 active torsions:
REMARK  status: ('A' for Active; 'I' for Inactive)
REMARK    1  A    between atoms: C2_2  and  C3_3 
REMARK    2  A    between atoms: C3_3  and  O1_5 
REMARK    3  A    between atoms: O1_5  and  C5_6 
REMARK    4  A    between atoms: C5_6  and  C6_8 
REMARK    5  A    between atoms: C10_12  and  C12_14 
REMARK    6  A    between atoms: C12_14  and  C13_15 
ROOT
HETATM    1  C6  UNL     1      30.674  -4.782  63.075  1.00  0.00     0.051 C 
HETATM    2  C7  UNL     1      30.754  -3.279  62.835  1.00  0.00     0.026 C 
HETATM    3  C8  UNL     1      29.216  -5.132  63.140  1.00  0.00     0.021 C 
HETATM    4  C9  UNL     1      28.891  -6.469  62.535  1.00  0.00     0.018 C 
HETATM    5  C10 UNL     1      29.298  -6.610  61.104  1.00  0.00     0.019 C 
HETATM    6  C11 UNL     1      29.939  -7.967  60.902  1.00  0.00     0.023 C 
HETATM    7  C17 UNL     1      30.395  -5.623  60.839  1.00  0.00     0.136 C 
HETATM    8  O4  UNL     1      30.516  -4.983  59.830  1.00  0.00    -0.297 OA
HETATM    9  C18 UNL     1      31.390  -5.450  61.931  1.00  0.00     0.098 C 
ENDROOT
BRANCH   1  10
HETATM   10  C5  UNL     1      31.356  -5.071  64.368  1.00  0.00     0.268 C 
HETATM   11  O2  UNL     1      31.328  -4.180  65.270  1.00  0.00    -0.264 OA
BRANCH  10  12
HETATM   12  O1  UNL     1      32.009  -6.236  64.646  1.00  0.00    -0.316 OA
BRANCH  12  13
HETATM   13  C3  UNL     1      31.783  -7.050  65.782  1.00  0.00     0.127 C 
HETATM   14  C4  UNL     1      32.924  -6.856  66.778  1.00  0.00     0.040 C 
BRANCH  13  15
HETATM   15  C2  UNL     1      31.874  -8.489  65.311  1.00  0.00     0.027 C 
HETATM   16  C1  UNL     1      30.654  -8.868  64.490  1.00  0.00     0.007 C 
ENDBRANCH  13  15
ENDBRANCH  12  13
ENDBRANCH  10  12
ENDBRANCH   1  10
BRANCH   5  17
HETATM   17  C12 UNL     1      28.179  -6.466  60.117  1.00  0.00     0.052 C 
BRANCH  17  18
HETATM   18  C13 UNL     1      28.432  -7.200  58.853  1.00  0.00     0.157 A 
HETATM   19  O3  UNL     1      28.134  -6.483  57.625  1.00  0.00    -0.370 OA
HETATM   20  C14 UNL     1      27.436  -7.746  57.983  1.00  0.00     0.080 A 
HETATM   21  C15 UNL     1      27.827  -8.823  57.005  1.00  0.00     0.048 C 
HETATM   22  C16 UNL     1      25.969  -7.491  58.082  1.00  0.00     0.048 C 
ENDBRANCH  17  18
ENDBRANCH   5  17
TORSDOF 6
ENDMDL
MODEL 2
REMARK VINA RESULT: -7.600816595      1.036      1.135
REMARK  6 active torsions:
REMARK  status: ('A' for Active; 'I' for Inactive)
REMARK    1  A    between atoms: C2_2  and  C3_3 
REMARK    2  A    between atoms: C3_3  and  O1_5 
REMARK    3  A    between atoms: O1_5  and  C5_6 
REMARK    4  A    between atoms: C5_6  and  C6_8 
REMARK    5  A    between atoms: C10_12  and  C12_14 
REMARK    6  A    between atoms: C12_14  and  C13_15 
ROOT
HETATM    1  C6  UNL     1      30.686  -4.326  62.603  1.00  0.00     0.051 C 
HETATM    2  C7  UNL     1      31.093  -3.002  61.969  1.00  0.00     0.026 C 
HETATM    3  C8  UNL     1      29.223  -4.508  62.320  1.00  0.00     0.021 C 
HETATM    4  C9  UNL     1      28.833  -5.938  62.065  1.00  0.00     0.018 C 
HETATM    5  C10 UNL     1      29.567  -6.581  60.933  1.00  0.00     0.019 C 
HETATM    6  C11 UNL     1      29.985  -7.978  61.343  1.00  0.00     0.023 C 
HETATM    7  C17 UNL     1      30.854  -5.837  60.738  1.00  0.00     0.136 C 
HETATM    8  O4  UNL     1      31.346  -5.581  59.673  1.00  0.00    -0.297 OA
HETATM    9  C18 UNL     1      31.544  -5.395  61.980  1.00  0.00     0.098 C 
ENDROOT
BRANCH   1  10
HETATM   10  C5  UNL     1      30.943  -4.226  64.067  1.00  0.00     0.268 C 
HETATM   11  O2  UNL     1      30.254  -3.402  64.740  1.00  0.00    -0.264 OA
BRANCH  10  12
HETATM   12  O1  UNL     1      31.876  -4.967  64.732  1.00  0.00    -0.316 OA
BRANCH  12  13
HETATM   13  C3  UNL     1      31.592  -6.000  65.658  1.00  0.00     0.127 C 
HETATM   14  C4  UNL     1      32.349  -5.738  66.958  1.00  0.00     0.040 C 
BRANCH  13  15
HETATM   15  C2  UNL     1      32.174  -7.275  65.079  1.00  0.00     0.027 C 
HETATM   16  C1  UNL     1      31.095  -8.326  64.891  1.00  0.00     0.007 C 
ENDBRANCH  13  15
ENDBRANCH  12  13
ENDBRANCH  10  12
ENDBRANCH   1  10
BRANCH   5  17
HETATM   17  C12 UNL     1      28.789  -6.679  59.656  1.00  0.00     0.052 C 
BRANCH  17  18
HETATM   18  C13 UNL     1      29.515  -7.423  58.598  1.00  0.00     0.157 A 
HETATM   19  O3  UNL     1      29.580  -6.784  57.295  1.00  0.00    -0.370 OA
HETATM   20  C14 UNL     1      28.920  -8.103  57.488  1.00  0.00     0.080 A 
HETATM   21  C15 UNL     1      29.710  -9.163  56.769  1.00  0.00     0.048 C 
HETATM   22  C16 UNL     1      27.487  -8.004  57.083  1.00  0.00     0.048 C 
ENDBRANCH  17  18
ENDBRANCH   5  17
TORSDOF 6
ENDMDL
MODEL 3
REMARK VINA RESULT: -7.429375482      1.349      6.822
REMARK  6 active torsions:
REMARK  status: ('A' for Active; 'I' for Inactive)
REMARK    1  A    between atoms: C2_2  and  C3_3 
REMARK    2  A    between atoms: C3_3  and  O1_5 
REMARK    3  A    between atoms: O1_5  and  C5_6 
REMARK    4  A    between atoms: C5_6  and  C6_8 
REMARK    5  A    between atoms: C10_12  and  C12_14 
REMARK    6  A    between atoms: C12_14  and  C13_15 
ROOT
HETATM    1  C6  UNL     1      29.531  -6.652  60.574  1.00  0.00     0.051 C 
HETATM    2  C7  UNL     1      30.352  -7.903  60.285  1.00  0.00     0.026 C 
HETATM    3  C8  UNL     1      29.110  -6.735  62.012  1.00  0.00     0.021 C 
HETATM    4  C9  UNL     1      29.082  -5.403  62.709  1.00  0.00     0.018 C 
HETATM    5  C10 UNL     1      30.387  -4.673  62.689  1.00  0.00     0.019 C 
HETATM    6  C11 UNL     1      30.134  -3.214  62.371  1.00  0.00     0.023 C 
HETATM    7  C17 UNL     1      31.184  -5.188  61.528  1.00  0.00     0.136 C 
HETATM    8  O4  UNL     1      32.369  -5.383  61.540  1.00  0.00    -0.297 OA
HETATM    9  C18 UNL     1      30.415  -5.468  60.286  1.00  0.00     0.098 C 
ENDROOT
BRANCH   1  10
HETATM   10  C5  UNL     1      28.350  -6.666  59.666  1.00  0.00     0.268 C 
HETATM   11  O2  UNL     1      27.196  -6.730  60.186  1.00  0.00    -0.264 OA
BRANCH  10  12
HETATM   12  O1  UNL     1      28.431  -6.612  58.305  1.00  0.00    -0.316 OA
BRANCH  12  13
HETATM   13  C3  UNL     1      28.392  -7.731  57.438  1.00  0.00     0.127 C 
HETATM   14  C4  UNL     1      29.470  -7.580  56.368  1.00  0.00     0.040 C 
BRANCH  13  15
HETATM   15  C2  UNL     1      27.063  -7.671  56.709  1.00  0.00     0.027 C 
HETATM   16  C1  UNL     1      26.070  -8.647  57.314  1.00  0.00     0.007 C 
ENDBRANCH  13  15
ENDBRANCH  12  13
ENDBRANCH  10  12
ENDBRANCH   1  10
BRANCH   5  17
HETATM   17  C12 UNL     1      31.165  -4.748  63.968  1.00  0.00     0.052 C 
BRANCH  17  18
HETATM   18  C13 UNL     1      31.761  -6.087  64.197  1.00  0.00     0.157 A 
HETATM   19  O3  UNL     1      30.950  -7.029  64.948  1.00  0.00    -0.370 OA
HETATM   20  C14 UNL     1      32.279  -6.576  65.439  1.00  0.00     0.080 A 
HETATM   21  C15 UNL     1      33.235  -7.739  65.427  1.00  0.00     0.048 C 
HETATM   22  C16 UNL     1      32.117  -5.908  66.764  1.00  0.00     0.048 C 
ENDBRANCH  17  18
ENDBRANCH   5  17
TORSDOF 6
ENDMDL
MODEL 4
REMARK VINA RESULT: -7.419662360      1.131      1.618
REMARK  6 active torsions:
REMARK  status: ('A' for Active; 'I' for Inactive)
REMARK    1  A    between atoms: C2_2  and  C3_3 
REMARK    2  A    between atoms: C3_3  and  O1_5 
REMARK    3  A    between atoms: O1_5  and  C5_6 
REMARK    4  A    between atoms: C5_6  and  C6_8 
REMARK    5  A    between atoms: C10_12  and  C12_14 
REMARK    6  A    between atoms: C12_14  and  C13_15 
ROOT
HETATM    1  C6  UNL     1      30.618  -5.605  63.227  1.00  0.00     0.051 C 
HETATM    2  C7  UNL     1      30.407  -4.146  63.612  1.00  0.00     0.026 C 
HETATM    3  C8  UNL     1      29.253  -6.216  63.087  1.00  0.00     0.021 C 
HETATM    4  C9  UNL     1      29.159  -7.233  61.985  1.00  0.00     0.018 C 
HETATM    5  C10 UNL     1      29.530  -6.710  60.634  1.00  0.00     0.019 C 
HETATM    6  C11 UNL     1      30.404  -7.727  59.930  1.00  0.00     0.023 C 
HETATM    7  C17 UNL     1      30.413  -5.514  60.831  1.00  0.00     0.136 C 
HETATM    8  O4  UNL     1      30.374  -4.513  60.169  1.00  0.00    -0.297 OA
HETATM    9  C18 UNL     1      31.400  -5.612  61.940  1.00  0.00     0.098 C 
ENDROOT
BRANCH   1  10
HETATM   10  C5  UNL     1      31.390  -6.256  64.321  1.00  0.00     0.268 C 
HETATM   11  O2  UNL     1      31.397  -7.522  64.377  1.00  0.00    -0.264 OA
BRANCH  10  12
HETATM   12  O1  UNL     1      32.095  -5.575  65.270  1.00  0.00    -0.316 OA
BRANCH  12  13
HETATM   13  C3  UNL     1      31.905  -5.688  66.668  1.00  0.00     0.127 C 
HETATM   14  C4  UNL     1      31.777  -4.294  67.277  1.00  0.00     0.040 C 
BRANCH  13  15
HETATM   15  C2  UNL     1      33.183  -6.279  67.234  1.00  0.00     0.027 C 
HETATM   16  C1  UNL     1      33.075  -7.789  67.351  1.00  0.00     0.007 C 
ENDBRANCH  13  15
ENDBRANCH  12  13
ENDBRANCH  10  12
ENDBRANCH   1  10
BRANCH   5  17
HETATM   17  C12 UNL     1      28.366  -6.393  59.744  1.00  0.00     0.052 C 
BRANCH  17  18
HETATM   18  C13 UNL     1      28.354  -7.210  58.505  1.00  0.00     0.157 A 
HETATM   19  O3  UNL     1      27.858  -6.551  57.309  1.00  0.00    -0.370 OA
HETATM   20  C14 UNL     1      27.194  -7.758  57.871  1.00  0.00     0.080 A 
HETATM   21  C15 UNL     1      27.358  -8.906  56.911  1.00  0.00     0.048 C 
HETATM   22  C16 UNL     1      25.781  -7.428  58.222  1.00  0.00     0.048 C 
ENDBRANCH  17  18
ENDBRANCH   5  17
TORSDOF 6
ENDMDL
MODEL 5
REMARK VINA RESULT: -7.311993111      6.677      9.813
REMARK  6 active torsions:
REMARK  status: ('A' for Active; 'I' for Inactive)
REMARK    1  A    between atoms: C2_2  and  C3_3 
REMARK    2  A    between atoms: C3_3  and  O1_5 
REMARK    3  A    between atoms: O1_5  and  C5_6 
REMARK    4  A    between atoms: C5_6  and  C6_8 
REMARK    5  A    between atoms: C10_12  and  C12_14 
REMARK    6  A    between atoms: C12_14  and  C13_15 
ROOT
HETATM    1  C6  UNL     1      31.675  -1.052  70.425  1.00  0.00     0.051 C 
HETATM    2  C7  UNL     1      31.508  -1.550  71.855  1.00  0.00     0.026 C 
HETATM    3  C8  UNL     1      33.014  -1.540  69.952  1.00  0.00     0.021 C 
HETATM    4  C9  UNL     1      33.035  -1.924  68.499  1.00  0.00     0.018 C 
HETATM    5  C10 UNL     1      32.043  -2.981  68.129  1.00  0.00     0.019 C 
HETATM    6  C11 UNL     1      31.371  -2.596  66.828  1.00  0.00     0.023 C 
HETATM    7  C17 UNL     1      30.946  -2.958  69.151  1.00  0.00     0.136 C 
HETATM    8  O4  UNL     1      30.401  -3.930  69.597  1.00  0.00    -0.297 OA
HETATM    9  C18 UNL     1      30.528  -1.611  69.626  1.00  0.00     0.098 C 
ENDROOT
BRANCH   1  10
HETATM   10  C5  UNL     1      31.625   0.436  70.455  1.00  0.00     0.268 C 
HETATM   11  O2  UNL     1      30.857   1.025  69.636  1.00  0.00    -0.264 OA
BRANCH  10  12
HETATM   12  O1  UNL     1      32.352   1.210  71.312  1.00  0.00    -0.316 OA
BRANCH  12  13
HETATM   13  C3  UNL     1      31.892   2.394  71.937  1.00  0.00     0.127 C 
HETATM   14  C4  UNL     1      32.912   3.509  71.724  1.00  0.00     0.040 C 
BRANCH  13  15
HETATM   15  C2  UNL     1      31.873   2.119  73.429  1.00  0.00     0.027 C 
HETATM   16  C1  UNL     1      30.545   1.516  73.851  1.00  0.00     0.007 C 
ENDBRANCH  13  15
ENDBRANCH  12  13
ENDBRANCH  10  12
ENDBRANCH   1  10
BRANCH   5  17
HETATM   17  C12 UNL     1      32.621  -4.355  67.973  1.00  0.00     0.052 C 
BRANCH  17  18
HETATM   18  C13 UNL     1      31.963  -5.133  66.895  1.00  0.00     0.157 A 
HETATM   19  O3  UNL     1      31.345  -6.386  67.294  1.00  0.00    -0.370 OA
HETATM   20  C14 UNL     1      32.457  -6.340  66.307  1.00  0.00     0.080 A 
HETATM   21  C15 UNL     1      31.939  -6.764  64.958  1.00  0.00     0.048 C 
HETATM   22  C16 UNL     1      33.607  -7.141  66.818  1.00  0.00     0.048 C 
ENDBRANCH  17  18
ENDBRANCH   5  17
TORSDOF 6
ENDMDL
