MODEL 1
REMARK VINA RESULT: -7.587592833      0.000      0.000
REMARK  6 active torsions:
REMARK  status: ('A' for Active; 'I' for Inactive)
REMARK    1  A    between atoms: C3_5  and  O1_6 
REMARK    2  A    between atoms: C4_8  and  N2_9 
REMARK    3  A    between atoms: N2_9  and  N3_11 
REMARK    4  A    between atoms: N3_11  and  C5_12 
REMARK    5  A    between atoms: C7_16  and  C8_17 
REMARK    6  A    between atoms: C14_23  and  O2_24 
ROOT
HETATM    1  C5  UNL     1      23.443  20.926   2.828  1.00  0.00     0.181 A 
HETATM    2  C6  UNL     1      24.625  20.894   3.594  1.00  0.00     0.138 A 
HETATM    3  N4  UNL     1      24.279  20.553   4.852  1.00  0.00    -0.363 N 
ATOM      4  H4  UNL     1      24.940  20.455   5.622  1.00  0.00     0.165 HD
HETATM    5  C7  UNL     1      22.957  20.359   4.961  1.00  0.00     0.050 A 
HETATM    6  C14 UNL     1      22.420  20.581   3.734  1.00  0.00     0.133 A 
ENDROOT
BRANCH   1   7
HETATM    7  N3  UNL     1      23.296  21.258   1.533  1.00  0.00    -0.321 NA
BRANCH   7   8
HETATM    8  N2  UNL     1      23.237  21.805   0.560  1.00  0.00    -0.231 N 
ATOM      9  H2  UNL     1      22.652  21.253  -0.068  1.00  0.00     0.202 HD
BRANCH   8  10
HETATM   10  C4  UNL     1      23.644  22.938  -0.135  1.00  0.00     0.119 A 
HETATM   11  C3  UNL     1      24.502  23.039  -1.212  1.00  0.00     0.170 A 
HETATM   12  N1  UNL     1      24.610  24.343  -1.572  1.00  0.00    -0.339 N 
HETATM   13  C2  UNL     1      23.844  25.069  -0.751  1.00  0.00     0.015 A 
ATOM     14  H1  UNL     1      25.179  24.706  -2.337  1.00  0.00     0.168 HD
HETATM   15  C1  UNL     1      23.666  26.567  -0.769  1.00  0.00     0.069 C 
HETATM   16  C15 UNL     1      23.224  24.244   0.157  1.00  0.00    -0.006 A 
HETATM   17  C16 UNL     1      22.291  24.618   1.247  1.00  0.00     0.053 C 
BRANCH  11  18
HETATM   18  O1  UNL     1      25.167  22.022  -1.862  1.00  0.00    -0.344 OA
ATOM     19  H1  UNL     1      24.789  21.534  -2.584  1.00  0.00     0.219 HD
ENDBRANCH  11  18
ENDBRANCH   8  10
ENDBRANCH   7   8
ENDBRANCH   1   7
BRANCH   6  20
HETATM   20  O2  UNL     1      21.081  20.476   3.451  1.00  0.00    -0.356 OA
ATOM     21  H2  UNL     1      20.594  19.672   3.310  1.00  0.00     0.218 HD
ENDBRANCH   6  20
BRANCH   5  22
HETATM   22  C8  UNL     1      22.273  19.956   6.230  1.00  0.00     0.038 C 
HETATM   23  C9  UNL     1      21.464  21.120   6.700  1.00  0.00     0.011 C 
HETATM   24  C10 UNL     1      21.174  21.263   8.135  1.00  0.00     0.001 C 
HETATM   25  C11 UNL     1      22.171  20.583   9.045  1.00  0.00     0.000 C 
HETATM   26  C12 UNL     1      23.513  20.476   8.377  1.00  0.00     0.001 C 
HETATM   27  C13 UNL     1      23.352  19.557   7.197  1.00  0.00     0.011 C 
ENDBRANCH   5  22
TORSDOF 6
ENDMDL
MODEL 2
REMARK VINA RESULT: -7.436586800      3.598      5.474
REMARK  6 active torsions:
REMARK  status: ('A' for Active; 'I' for Inactive)
REMARK    1  A    between atoms: C3_5  and  O1_6 
REMARK    2  A    between atoms: C4_8  and  N2_9 
REMARK    3  A    between atoms: N2_9  and  N3_11 
REMARK    4  A    between atoms: N3_11  and  C5_12 
REMARK    5  A    between atoms: C7_16  and  C8_17 
REMARK    6  A    between atoms: C14_23  and  O2_24 
ROOT
HETATM    1  C5  UNL     1      21.526  20.188   4.996  1.00  0.00     0.181 A 
HETATM    2  C6  UNL     1      20.766  20.163   6.181  1.00  0.00     0.138 A 
HETATM    3  N4  UNL     1      19.684  19.395   5.948  1.00  0.00    -0.363 N 
ATOM      4  H4  UNL     1      18.956  19.203   6.637  1.00  0.00     0.165 HD
HETATM    5  C7  UNL     1      19.683  18.915   4.696  1.00  0.00     0.050 A 
HETATM    6  C14 UNL     1      20.803  19.385   4.090  1.00  0.00     0.133 A 
ENDROOT
BRANCH   1   7
HETATM    7  N3  UNL     1      22.664  20.861   4.746  1.00  0.00    -0.321 NA
BRANCH   7   8
HETATM    8  N2  UNL     1      23.649  21.201   4.342  1.00  0.00    -0.231 N 
ATOM      9  H2  UNL     1      24.000  21.932   4.962  1.00  0.00     0.202 HD
BRANCH   8  10
HETATM   10  C4  UNL     1      24.585  21.025   3.330  1.00  0.00     0.119 A 
HETATM   11  C3  UNL     1      24.394  20.982   1.963  1.00  0.00     0.170 A 
HETATM   12  N1  UNL     1      25.592  20.794   1.353  1.00  0.00    -0.339 N 
HETATM   13  C2  UNL     1      26.535  20.717   2.298  1.00  0.00     0.015 A 
ATOM     14  H1  UNL     1      25.746  20.724   0.347  1.00  0.00     0.168 HD
HETATM   15  C1  UNL     1      28.013  20.499   2.086  1.00  0.00     0.069 C 
HETATM   16  C15 UNL     1      25.962  20.855   3.540  1.00  0.00    -0.006 A 
HETATM   17  C16 UNL     1      26.628  20.832   4.865  1.00  0.00     0.053 C 
BRANCH  11  18
HETATM   18  O1  UNL     1      23.210  21.106   1.270  1.00  0.00    -0.344 OA
ATOM     19  H1  UNL     1      22.570  20.408   1.209  1.00  0.00     0.219 HD
ENDBRANCH  11  18
ENDBRANCH   8  10
ENDBRANCH   7   8
ENDBRANCH   1   7
BRANCH   6  20
HETATM   20  O2  UNL     1      21.150  19.104   2.792  1.00  0.00    -0.356 OA
ATOM     21  H2  UNL     1      21.630  19.672   2.200  1.00  0.00     0.218 HD
ENDBRANCH   6  20
BRANCH   5  22
HETATM   22  C8  UNL     1      18.620  18.017   4.145  1.00  0.00     0.038 C 
HETATM   23  C9  UNL     1      18.520  18.278   2.678  1.00  0.00     0.011 C 
HETATM   24  C10 UNL     1      17.246  18.026   1.987  1.00  0.00     0.001 C 
HETATM   25  C11 UNL     1      16.027  18.089   2.879  1.00  0.00     0.000 C 
HETATM   26  C12 UNL     1      16.279  18.984   4.061  1.00  0.00     0.001 C 
HETATM   27  C13 UNL     1      17.354  18.334   4.891  1.00  0.00     0.011 C 
ENDBRANCH   5  22
TORSDOF 6
ENDMDL
MODEL 3
REMARK VINA RESULT: -7.260225591      3.438      4.571
REMARK  6 active torsions:
REMARK  status: ('A' for Active; 'I' for Inactive)
REMARK    1  A    between atoms: C3_5  and  O1_6 
REMARK    2  A    between atoms: C4_8  and  N2_9 
REMARK    3  A    between atoms: N2_9  and  N3_11 
REMARK    4  A    between atoms: N3_11  and  C5_12 
REMARK    5  A    between atoms: C7_16  and  C8_17 
REMARK    6  A    between atoms: C14_23  and  O2_24 
ROOT
HETATM    1  C5  UNL     1      21.704  20.459   4.720  1.00  0.00     0.181 A 
HETATM    2  C6  UNL     1      21.066  20.487   5.976  1.00  0.00     0.138 A 
HETATM    3  N4  UNL     1      19.991  19.678   5.899  1.00  0.00    -0.363 N 
ATOM      4  H4  UNL     1      19.343  19.509   6.668  1.00  0.00     0.165 HD
HETATM    5  C7  UNL     1      19.882  19.122   4.684  1.00  0.00     0.050 A 
HETATM    6  C14 UNL     1      20.921  19.583   3.941  1.00  0.00     0.133 A 
ENDROOT
BRANCH   1   7
HETATM    7  N3  UNL     1      22.790  21.145   4.318  1.00  0.00    -0.321 NA
BRANCH   7   8
HETATM    8  N2  UNL     1      23.588  21.642   3.716  1.00  0.00    -0.231 N 
ATOM      9  H2  UNL     1      24.142  22.215   4.353  1.00  0.00     0.202 HD
BRANCH   8  10
HETATM   10  C4  UNL     1      24.128  21.789   2.443  1.00  0.00     0.119 A 
HETATM   11  C3  UNL     1      25.084  21.022   1.807  1.00  0.00     0.170 A 
HETATM   12  N1  UNL     1      25.308  21.530   0.568  1.00  0.00    -0.339 N 
HETATM   13  C2  UNL     1      24.519  22.598   0.404  1.00  0.00     0.015 A 
ATOM     14  H1  UNL     1      25.964  21.161  -0.119  1.00  0.00     0.168 HD
HETATM   15  C1  UNL     1      24.439  23.485  -0.813  1.00  0.00     0.069 C 
HETATM   16  C15 UNL     1      23.768  22.799   1.538  1.00  0.00    -0.006 A 
HETATM   17  C16 UNL     1      22.766  23.862   1.798  1.00  0.00     0.053 C 
BRANCH  11  18
HETATM   18  O1  UNL     1      25.738  19.912   2.293  1.00  0.00    -0.344 OA
ATOM     19  H1  UNL     1      25.838  19.734   3.221  1.00  0.00     0.219 HD
ENDBRANCH  11  18
ENDBRANCH   8  10
ENDBRANCH   7   8
ENDBRANCH   1   7
BRANCH   6  20
HETATM   20  O2  UNL     1      21.146  19.232   2.633  1.00  0.00    -0.356 OA
ATOM     21  H2  UNL     1      20.521  18.832   2.040  1.00  0.00     0.218 HD
ENDBRANCH   6  20
BRANCH   5  22
HETATM   22  C8  UNL     1      18.799  18.164   4.296  1.00  0.00     0.038 C 
HETATM   23  C9  UNL     1      18.690  18.180   2.807  1.00  0.00     0.011 C 
HETATM   24  C10 UNL     1      17.405  17.840   2.176  1.00  0.00     0.001 C 
HETATM   25  C11 UNL     1      16.197  18.071   3.053  1.00  0.00     0.000 C 
HETATM   26  C12 UNL     1      16.475  19.145   4.068  1.00  0.00     0.001 C 
HETATM   27  C13 UNL     1      17.546  18.623   4.987  1.00  0.00     0.011 C 
ENDBRANCH   5  22
TORSDOF 6
ENDMDL
MODEL 4
REMARK VINA RESULT: -7.242263133      1.589      1.772
REMARK  6 active torsions:
REMARK  status: ('A' for Active; 'I' for Inactive)
REMARK    1  A    between atoms: C3_5  and  O1_6 
REMARK    2  A    between atoms: C4_8  and  N2_9 
REMARK    3  A    between atoms: N2_9  and  N3_11 
REMARK    4  A    between atoms: N3_11  and  C5_12 
REMARK    5  A    between atoms: C7_16  and  C8_17 
REMARK    6  A    between atoms: C14_23  and  O2_24 
ROOT
HETATM    1  C5  UNL     1      23.337  21.346   2.845  1.00  0.00     0.181 A 
HETATM    2  C6  UNL     1      24.566  21.037   3.461  1.00  0.00     0.138 A 
HETATM    3  N4  UNL     1      24.289  20.534   4.680  1.00  0.00    -0.363 N 
ATOM      4  H4  UNL     1      24.995  20.225   5.348  1.00  0.00     0.165 HD
HETATM    5  C7  UNL     1      22.968  20.491   4.904  1.00  0.00     0.050 A 
HETATM    6  C14 UNL     1      22.360  20.982   3.794  1.00  0.00     0.133 A 
ENDROOT
BRANCH   1   7
HETATM    7  N3  UNL     1      23.123  21.908   1.642  1.00  0.00    -0.321 NA
BRANCH   7   8
HETATM    8  N2  UNL     1      22.891  22.615   0.808  1.00  0.00    -0.231 N 
ATOM      9  H2  UNL     1      22.613  22.057   0.000  1.00  0.00     0.202 HD
BRANCH   8  10
HETATM   10  C4  UNL     1      22.829  23.953   0.435  1.00  0.00     0.119 A 
HETATM   11  C3  UNL     1      23.450  25.047   1.005  1.00  0.00     0.170 A 
HETATM   12  N1  UNL     1      23.108  26.162   0.310  1.00  0.00    -0.339 N 
HETATM   13  C2  UNL     1      22.288  25.802  -0.683  1.00  0.00     0.015 A 
ATOM     14  H1  UNL     1      23.423  27.111   0.511  1.00  0.00     0.168 HD
HETATM   15  C1  UNL     1      21.648  26.712  -1.702  1.00  0.00     0.069 C 
HETATM   16  C15 UNL     1      22.085  24.442  -0.649  1.00  0.00    -0.006 A 
HETATM   17  C16 UNL     1      21.250  23.617  -1.556  1.00  0.00     0.053 C 
BRANCH  11  18
HETATM   18  O1  UNL     1      24.290  25.069   2.096  1.00  0.00    -0.344 OA
ATOM     19  H1  UNL     1      24.909  24.375   2.287  1.00  0.00     0.219 HD
ENDBRANCH  11  18
ENDBRANCH   8  10
ENDBRANCH   7   8
ENDBRANCH   1   7
BRANCH   6  20
HETATM   20  O2  UNL     1      21.000  21.094   3.648  1.00  0.00    -0.356 OA
ATOM     21  H2  UNL     1      20.419  20.454   3.254  1.00  0.00     0.218 HD
ENDBRANCH   6  20
BRANCH   5  22
HETATM   22  C8  UNL     1      22.349  19.967   6.163  1.00  0.00     0.038 C 
HETATM   23  C9  UNL     1      21.492  21.049   6.732  1.00  0.00     0.011 C 
HETATM   24  C10 UNL     1      21.242  21.081   8.182  1.00  0.00     0.001 C 
HETATM   25  C11 UNL     1      22.304  20.402   9.015  1.00  0.00     0.000 C 
HETATM   26  C12 UNL     1      23.628  20.416   8.303  1.00  0.00     0.001 C 
HETATM   27  C13 UNL     1      23.480  19.568   7.069  1.00  0.00     0.011 C 
ENDBRANCH   5  22
TORSDOF 6
ENDMDL
MODEL 5
REMARK VINA RESULT: -7.071428945      3.565      7.395
REMARK  6 active torsions:
REMARK  status: ('A' for Active; 'I' for Inactive)
REMARK    1  A    between atoms: C3_5  and  O1_6 
REMARK    2  A    between atoms: C4_8  and  N2_9 
REMARK    3  A    between atoms: N2_9  and  N3_11 
REMARK    4  A    between atoms: N3_11  and  C5_12 
REMARK    5  A    between atoms: C7_16  and  C8_17 
REMARK    6  A    between atoms: C14_23  and  O2_24 
ROOT
HETATM    1  C5  UNL     1      23.522  20.497   2.716  1.00  0.00     0.181 A 
HETATM    2  C6  UNL     1      24.438  20.595   3.781  1.00  0.00     0.138 A 
HETATM    3  N4  UNL     1      25.579  21.113   3.283  1.00  0.00    -0.363 N 
ATOM      4  H4  UNL     1      26.417  21.293   3.836  1.00  0.00     0.165 HD
HETATM    5  C7  UNL     1      25.472  21.362   1.970  1.00  0.00     0.050 A 
HETATM    6  C14 UNL     1      24.220  20.994   1.596  1.00  0.00     0.133 A 
ENDROOT
BRANCH   1   7
HETATM    7  N3  UNL     1      22.272  19.998   2.731  1.00  0.00    -0.321 NA
BRANCH   7   8
HETATM    8  N2  UNL     1      21.366  19.366   2.897  1.00  0.00    -0.231 N 
ATOM      9  H2  UNL     1      21.306  18.704   2.123  1.00  0.00     0.202 HD
BRANCH   8  10
HETATM   10  C4  UNL     1      20.287  19.124   3.739  1.00  0.00     0.119 A 
HETATM   11  C3  UNL     1      20.165  19.369   5.093  1.00  0.00     0.170 A 
HETATM   12  N1  UNL     1      18.933  18.976   5.506  1.00  0.00    -0.339 N 
HETATM   13  C2  UNL     1      18.273  18.490   4.449  1.00  0.00     0.015 A 
ATOM     14  H1  UNL     1      18.573  19.041   6.458  1.00  0.00     0.168 HD
HETATM   15  C1  UNL     1      16.873  17.927   4.438  1.00  0.00     0.069 C 
HETATM   16  C15 UNL     1      19.069  18.561   3.330  1.00  0.00    -0.006 A 
HETATM   17  C16 UNL     1      18.746  18.134   1.947  1.00  0.00     0.053 C 
BRANCH  11  18
HETATM   18  O1  UNL     1      21.101  19.920   5.940  1.00  0.00    -0.344 OA
ATOM     19  H1  UNL     1      21.815  20.469   5.638  1.00  0.00     0.219 HD
ENDBRANCH  11  18
ENDBRANCH   8  10
ENDBRANCH   7   8
ENDBRANCH   1   7
BRANCH   6  20
HETATM   20  O2  UNL     1      23.737  21.102   0.316  1.00  0.00    -0.356 OA
ATOM     21  H2  UNL     1      23.021  21.656   0.027  1.00  0.00     0.218 HD
ENDBRANCH   6  20
BRANCH   5  22
HETATM   22  C8  UNL     1      26.567  21.954   1.139  1.00  0.00     0.038 C 
HETATM   23  C9  UNL     1      27.865  21.646   1.810  1.00  0.00     0.011 C 
HETATM   24  C10 UNL     1      29.014  22.541   1.602  1.00  0.00     0.001 C 
HETATM   25  C11 UNL     1      28.644  23.956   1.224  1.00  0.00     0.000 C 
HETATM   26  C12 UNL     1      27.280  24.307   1.750  1.00  0.00     0.001 C 
HETATM   27  C13 UNL     1      26.288  23.427   1.039  1.00  0.00     0.011 C 
ENDBRANCH   5  22
TORSDOF 6
ENDMDL
