MODEL 1
REMARK VINA RESULT: -6.750569388      0.000      0.000
REMARK  4 active torsions:
REMARK  status: ('A' for Active; 'I' for Inactive)
REMARK    1  A    between atoms: C5_7  and  N2_8 
REMARK    2  A    between atoms: N2_8  and  C6_10 
REMARK    3  A    between atoms: C17_24  and  N4_25 
REMARK    4  A    between atoms: N4_25  and  O1_27 
ROOT
HETATM    1  C6  UNL     1      24.527  19.940   5.365  1.00  0.00     0.284 C 
HETATM    2  C7  UNL     1      24.731  19.498   6.798  1.00  0.00     0.054 C 
HETATM    3  C8  UNL     1      26.025  18.681   6.912  1.00  0.00     0.004 C 
HETATM    4  C9  UNL     1      26.837  19.196   8.052  1.00  0.00     0.000 C 
HETATM    5  C10 UNL     1      28.305  19.294   7.744  1.00  0.00     0.000 C 
HETATM    6  C11 UNL     1      28.659  20.578   7.020  1.00  0.00     0.000 C 
HETATM    7  C12 UNL     1      29.032  20.317   5.600  1.00  0.00     0.000 C 
HETATM    8  C13 UNL     1      28.335  21.212   4.611  1.00  0.00     0.006 C 
HETATM    9  C14 UNL     1      27.606  20.426   3.533  1.00  0.00     0.007 C 
HETATM   10  C15 UNL     1      28.087  20.860   2.162  1.00  0.00     0.011 C 
HETATM   11  C16 UNL     1      26.096  20.603   3.657  1.00  0.00     0.239 C 
HETATM   12  N3  UNL     1      25.680  20.747   5.014  1.00  0.00    -0.054 N 
ATOM     13  H31 UNL     1      26.456  20.558   5.649  1.00  0.00     0.279 HD
ATOM     14  H32 UNL     1      25.512  21.728   5.236  1.00  0.00     0.279 HD
ENDROOT
BRANCH   1  15
HETATM   15  N2  UNL     1      23.333  20.750   5.257  1.00  0.00    -0.359 N 
ATOM     16  H2  UNL     1      23.445  21.763   5.206  1.00  0.00     0.162 HD
BRANCH  15  17
HETATM   17  C5  UNL     1      22.017  20.223   5.217  1.00  0.00     0.083 A 
HETATM   18  C3  UNL     1      21.090  20.138   6.227  1.00  0.00     0.034 A 
HETATM   19  N1  UNL     1      19.956  19.552   5.752  1.00  0.00    -0.360 N 
HETATM   20  C4  UNL     1      21.251  20.607   7.626  1.00  0.00     0.070 C 
HETATM   21  C2  UNL     1      20.152  19.265   4.455  1.00  0.00     0.036 A 
ATOM     22  H1  UNL     1      19.108  19.364   6.287  1.00  0.00     0.165 HD
HETATM   23  C1  UNL     1      19.167  18.621   3.568  1.00  0.00     0.070 C 
HETATM   24  C17 UNL     1      21.420  19.671   4.102  1.00  0.00     0.104 A 
BRANCH  24  25
HETATM   25  N4  UNL     1      22.040  19.555   2.807  1.00  0.00    -0.265 N 
ATOM     26  H4  UNL     1      21.952  18.683   2.285  1.00  0.00     0.194 HD
BRANCH  25  27
HETATM   27  O1  UNL     1      22.684  20.501   2.312  1.00  0.00    -0.289 OA
ATOM     28  H1  UNL     1      23.164  20.397   1.500  1.00  0.00     0.244 HD
ENDBRANCH  25  27
ENDBRANCH  24  25
ENDBRANCH  15  17
ENDBRANCH   1  15
TORSDOF 4
ENDMDL
MODEL 2
REMARK VINA RESULT: -6.600161335      4.030      5.378
REMARK  4 active torsions:
REMARK  status: ('A' for Active; 'I' for Inactive)
REMARK    1  A    between atoms: C5_7  and  N2_8 
REMARK    2  A    between atoms: N2_8  and  C6_10 
REMARK    3  A    between atoms: C17_24  and  N4_25 
REMARK    4  A    between atoms: N4_25  and  O1_27 
ROOT
HETATM    1  C6  UNL     1      24.078  21.602   2.180  1.00  0.00     0.284 C 
HETATM    2  C7  UNL     1      23.031  21.597   3.273  1.00  0.00     0.054 C 
HETATM    3  C8  UNL     1      23.070  20.260   4.025  1.00  0.00     0.004 C 
HETATM    4  C9  UNL     1      23.101  20.519   5.494  1.00  0.00     0.000 C 
HETATM    5  C10 UNL     1      24.059  19.630   6.237  1.00  0.00     0.000 C 
HETATM    6  C11 UNL     1      25.481  20.154   6.199  1.00  0.00     0.000 C 
HETATM    7  C12 UNL     1      26.353  19.298   5.344  1.00  0.00     0.000 C 
HETATM    8  C13 UNL     1      27.180  20.070   4.351  1.00  0.00     0.006 C 
HETATM    9  C14 UNL     1      26.980  19.579   2.925  1.00  0.00     0.007 C 
HETATM   10  C15 UNL     1      28.315  19.193   2.320  1.00  0.00     0.011 C 
HETATM   11  C16 UNL     1      26.287  20.640   2.076  1.00  0.00     0.239 C 
HETATM   12  N3  UNL     1      25.358  21.414   2.834  1.00  0.00    -0.054 N 
ATOM     13  H31 UNL     1      25.231  21.012   3.763  1.00  0.00     0.279 HD
ATOM     14  H32 UNL     1      25.766  22.313   3.090  1.00  0.00     0.279 HD
ENDROOT
BRANCH   1  15
HETATM   15  N2  UNL     1      24.079  22.877   1.495  1.00  0.00    -0.359 N 
ATOM     16  H2  UNL     1      24.554  23.660   1.944  1.00  0.00     0.162 HD
BRANCH  15  17
HETATM   17  C5  UNL     1      23.462  23.104   0.239  1.00  0.00     0.083 A 
HETATM   18  C3  UNL     1      23.879  22.717  -1.011  1.00  0.00     0.034 A 
HETATM   19  N1  UNL     1      22.987  23.155  -1.942  1.00  0.00    -0.360 N 
HETATM   20  C4  UNL     1      25.097  21.936  -1.341  1.00  0.00     0.070 C 
HETATM   21  C2  UNL     1      22.009  23.814  -1.299  1.00  0.00     0.036 A 
ATOM     22  H1  UNL     1      23.050  23.009  -2.950  1.00  0.00     0.165 HD
HETATM   23  C1  UNL     1      20.844  24.448  -1.941  1.00  0.00     0.070 C 
HETATM   24  C17 UNL     1      22.282  23.795   0.051  1.00  0.00     0.104 A 
BRANCH  24  25
HETATM   25  N4  UNL     1      21.494  24.383   1.105  1.00  0.00    -0.265 N 
ATOM     26  H4  UNL     1      20.505  24.148   1.183  1.00  0.00     0.194 HD
BRANCH  25  27
HETATM   27  O1  UNL     1      22.001  25.175   1.924  1.00  0.00    -0.289 OA
ATOM     28  H1  UNL     1      21.849  25.081   2.856  1.00  0.00     0.244 HD
ENDBRANCH  25  27
ENDBRANCH  24  25
ENDBRANCH  15  17
ENDBRANCH   1  15
TORSDOF 4
ENDMDL
MODEL 3
REMARK VINA RESULT: -6.322729916      2.199      4.024
REMARK  4 active torsions:
REMARK  status: ('A' for Active; 'I' for Inactive)
REMARK    1  A    between atoms: C5_7  and  N2_8 
REMARK    2  A    between atoms: N2_8  and  C6_10 
REMARK    3  A    between atoms: C17_24  and  N4_25 
REMARK    4  A    between atoms: N4_25  and  O1_27 
ROOT
HETATM    1  C6  UNL     1      22.963  20.577   3.254  1.00  0.00     0.284 C 
HETATM    2  C7  UNL     1      22.834  21.369   1.970  1.00  0.00     0.054 C 
HETATM    3  C8  UNL     1      23.794  22.565   1.997  1.00  0.00     0.004 C 
HETATM    4  C9  UNL     1      24.566  22.607   0.720  1.00  0.00     0.000 C 
HETATM    5  C10 UNL     1      26.023  22.925   0.913  1.00  0.00     0.000 C 
HETATM    6  C11 UNL     1      26.839  21.698   1.268  1.00  0.00     0.000 C 
HETATM    7  C12 UNL     1      27.301  21.743   2.686  1.00  0.00     0.000 C 
HETATM    8  C13 UNL     1      27.042  20.474   3.453  1.00  0.00     0.006 C 
HETATM    9  C14 UNL     1      26.259  20.720   4.733  1.00  0.00     0.007 C 
HETATM   10  C15 UNL     1      27.025  20.173   5.921  1.00  0.00     0.011 C 
HETATM   11  C16 UNL     1      24.870  20.096   4.651  1.00  0.00     0.239 C 
HETATM   12  N3  UNL     1      24.341  20.131   3.326  1.00  0.00    -0.054 N 
ATOM     13  H31 UNL     1      24.934  20.697   2.718  1.00  0.00     0.279 HD
ATOM     14  H32 UNL     1      24.449  19.224   2.873  1.00  0.00     0.279 HD
ENDROOT
BRANCH   1  15
HETATM   15  N2  UNL     1      22.093  19.421   3.218  1.00  0.00    -0.359 N 
ATOM     16  H2  UNL     1      22.347  18.651   2.600  1.00  0.00     0.162 HD
BRANCH  15  17
HETATM   17  C5  UNL     1      20.910  19.294   3.990  1.00  0.00     0.083 A 
HETATM   18  C3  UNL     1      20.733  19.489   5.338  1.00  0.00     0.034 A 
HETATM   19  N1  UNL     1      19.433  19.248   5.664  1.00  0.00    -0.360 N 
HETATM   20  C4  UNL     1      21.764  19.908   6.320  1.00  0.00     0.070 C 
HETATM   21  C2  UNL     1      18.784  18.902   4.541  1.00  0.00     0.036 A 
ATOM     22  H1  UNL     1      19.025  19.317   6.596  1.00  0.00     0.165 HD
HETATM   23  C1  UNL     1      17.353  18.558   4.456  1.00  0.00     0.070 C 
HETATM   24  C17 UNL     1      19.677  18.924   3.492  1.00  0.00     0.104 A 
BRANCH  24  25
HETATM   25  N4  UNL     1      19.404  18.619   2.111  1.00  0.00    -0.265 N 
ATOM     26  H4  UNL     1      19.631  19.306   1.392  1.00  0.00     0.194 HD
BRANCH  25  27
HETATM   27  O1  UNL     1      18.894  17.531   1.779  1.00  0.00    -0.289 OA
ATOM     28  H1  UNL     1      17.964  17.458   1.602  1.00  0.00     0.244 HD
ENDBRANCH  25  27
ENDBRANCH  24  25
ENDBRANCH  15  17
ENDBRANCH   1  15
TORSDOF 4
ENDMDL
MODEL 4
REMARK VINA RESULT: -6.312722337      2.293      3.241
REMARK  4 active torsions:
REMARK  status: ('A' for Active; 'I' for Inactive)
REMARK    1  A    between atoms: C5_7  and  N2_8 
REMARK    2  A    between atoms: N2_8  and  C6_10 
REMARK    3  A    between atoms: C17_24  and  N4_25 
REMARK    4  A    between atoms: N4_25  and  O1_27 
ROOT
HETATM    1  C6  UNL     1      23.349  20.691   3.175  1.00  0.00     0.284 C 
HETATM    2  C7  UNL     1      24.283  20.375   4.323  1.00  0.00     0.054 C 
HETATM    3  C8  UNL     1      25.630  19.881   3.779  1.00  0.00     0.004 C 
HETATM    4  C9  UNL     1      26.737  20.621   4.451  1.00  0.00     0.000 C 
HETATM    5  C10 UNL     1      27.835  21.037   3.512  1.00  0.00     0.000 C 
HETATM    6  C11 UNL     1      27.518  22.333   2.791  1.00  0.00     0.000 C 
HETATM    7  C12 UNL     1      27.243  22.098   1.344  1.00  0.00     0.000 C 
HETATM    8  C13 UNL     1      25.989  22.762   0.845  1.00  0.00     0.006 C 
HETATM    9  C14 UNL     1      25.042  21.781   0.172  1.00  0.00     0.007 C 
HETATM   10  C15 UNL     1      24.728  22.248  -1.236  1.00  0.00     0.011 C 
HETATM   11  C16 UNL     1      23.762  21.613   0.985  1.00  0.00     0.239 C 
HETATM   12  N3  UNL     1      23.998  21.722   2.388  1.00  0.00    -0.054 N 
ATOM     13  H31 UNL     1      24.999  21.746   2.583  1.00  0.00     0.279 HD
ATOM     14  H32 UNL     1      23.735  22.649   2.725  1.00  0.00     0.279 HD
ENDROOT
BRANCH   1  15
HETATM   15  N2  UNL     1      22.092  21.201   3.679  1.00  0.00    -0.359 N 
ATOM     16  H2  UNL     1      21.838  22.160   3.445  1.00  0.00     0.162 HD
BRANCH  15  17
HETATM   17  C5  UNL     1      21.192  20.449   4.476  1.00  0.00     0.083 A 
HETATM   18  C3  UNL     1      21.000  20.491   5.835  1.00  0.00     0.034 A 
HETATM   19  N1  UNL     1      20.041  19.590   6.185  1.00  0.00    -0.360 N 
HETATM   20  C4  UNL     1      21.698  21.370   6.806  1.00  0.00     0.070 C 
HETATM   21  C2  UNL     1      19.622  18.978   5.066  1.00  0.00     0.036 A 
ATOM     22  H1  UNL     1      19.701  19.411   7.130  1.00  0.00     0.165 HD
HETATM   23  C1  UNL     1      18.588  17.930   5.005  1.00  0.00     0.070 C 
HETATM   24  C17 UNL     1      20.320  19.492   3.996  1.00  0.00     0.104 A 
BRANCH  24  25
HETATM   25  N4  UNL     1      20.186  19.120   2.610  1.00  0.00    -0.265 N 
ATOM     26  H4  UNL     1      20.768  19.578   1.909  1.00  0.00     0.194 HD
BRANCH  25  27
HETATM   27  O1  UNL     1      19.370  18.248   2.253  1.00  0.00    -0.289 OA
ATOM     28  H1  UNL     1      18.708  17.921   2.850  1.00  0.00     0.244 HD
ENDBRANCH  25  27
ENDBRANCH  24  25
ENDBRANCH  15  17
ENDBRANCH   1  15
TORSDOF 4
ENDMDL
MODEL 5
REMARK VINA RESULT: -6.312399377      3.548      5.454
REMARK  4 active torsions:
REMARK  status: ('A' for Active; 'I' for Inactive)
REMARK    1  A    between atoms: C5_7  and  N2_8 
REMARK    2  A    between atoms: N2_8  and  C6_10 
REMARK    3  A    between atoms: C17_24  and  N4_25 
REMARK    4  A    between atoms: N4_25  and  O1_27 
ROOT
HETATM    1  C6  UNL     1      23.374  21.314   3.268  1.00  0.00     0.284 C 
HETATM    2  C7  UNL     1      21.994  21.371   3.888  1.00  0.00     0.054 C 
HETATM    3  C8  UNL     1      21.729  20.088   4.687  1.00  0.00     0.004 C 
HETATM    4  C9  UNL     1      21.213  20.446   6.040  1.00  0.00     0.000 C 
HETATM    5  C10 UNL     1      21.810  19.619   7.145  1.00  0.00     0.000 C 
HETATM    6  C11 UNL     1      23.151  20.154   7.607  1.00  0.00     0.000 C 
HETATM    7  C12 UNL     1      24.267  19.252   7.197  1.00  0.00     0.000 C 
HETATM    8  C13 UNL     1      25.417  19.965   6.537  1.00  0.00     0.006 C 
HETATM    9  C14 UNL     1      25.756  19.377   5.176  1.00  0.00     0.007 C 
HETATM   10  C15 UNL     1      27.215  18.966   5.140  1.00  0.00     0.011 C 
HETATM   11  C16 UNL     1      25.447  20.371   4.061  1.00  0.00     0.239 C 
HETATM   12  N3  UNL     1      24.314  21.184   4.364  1.00  0.00    -0.054 N 
ATOM     13  H31 UNL     1      23.843  20.845   5.202  1.00  0.00     0.279 HD
ATOM     14  H32 UNL     1      24.610  22.103   4.693  1.00  0.00     0.279 HD
ENDROOT
BRANCH   1  15
HETATM   15  N2  UNL     1      23.650  22.540   2.550  1.00  0.00    -0.359 N 
ATOM     16  H2  UNL     1      23.883  23.370   3.094  1.00  0.00     0.162 HD
BRANCH  15  17
HETATM   17  C5  UNL     1      23.617  22.658   1.137  1.00  0.00     0.083 A 
HETATM   18  C3  UNL     1      24.447  22.086   0.203  1.00  0.00     0.034 A 
HETATM   19  N1  UNL     1      24.061  22.475  -1.044  1.00  0.00    -0.360 N 
HETATM   20  C4  UNL     1      25.588  21.175   0.465  1.00  0.00     0.070 C 
HETATM   21  C2  UNL     1      22.998  23.284  -0.913  1.00  0.00     0.036 A 
ATOM     22  H1  UNL     1      24.501  22.199  -1.922  1.00  0.00     0.165 HD
HETATM   23  C1  UNL     1      22.273  23.925  -2.025  1.00  0.00     0.070 C 
HETATM   24  C17 UNL     1      22.705  23.412   0.427  1.00  0.00     0.104 A 
BRANCH  24  25
HETATM   25  N4  UNL     1      21.642  24.188   1.015  1.00  0.00    -0.265 N 
ATOM     26  H4  UNL     1      20.674  23.967   0.785  1.00  0.00     0.194 HD
BRANCH  25  27
HETATM   27  O1  UNL     1      21.886  25.126   1.799  1.00  0.00    -0.289 OA
ATOM     28  H1  UNL     1      21.917  26.025   1.495  1.00  0.00     0.244 HD
ENDBRANCH  25  27
ENDBRANCH  24  25
ENDBRANCH  15  17
ENDBRANCH   1  15
TORSDOF 4
ENDMDL
