MODEL 1
REMARK VINA RESULT: -7.004756751      0.000      0.000
REMARK  5 active torsions:
REMARK  status: ('A' for Active; 'I' for Inactive)
REMARK    1  A    between atoms: N1_1  and  C1_5 
REMARK    2  A    between atoms: C1_5  and  C2_6 
REMARK    3  A    between atoms: C1_5  and  C3_9 
REMARK       I    between atoms: C3_9  and  N2_11 
REMARK    4  A    between atoms: C7_15  and  C8_16 
REMARK    5  A    between atoms: C8_16  and  C9_17 
ROOT
HETATM    1  C3  UNL     1     -13.939  13.538  22.490  1.00  0.00     0.261 C 
HETATM    2  O3  UNL     1     -12.938  13.458  21.679  1.00  0.00    -0.270 OA
HETATM    3  N2  UNL     1     -15.040  14.283  22.026  1.00  0.00    -0.346 N 
HETATM    4  C4  UNL     1     -14.981  14.972  20.716  1.00  0.00     0.153 C 
HETATM    5  C5  UNL     1     -14.998  16.441  20.911  1.00  0.00    -0.010 C 
HETATM    6  C6  UNL     1     -14.606  17.390  20.156  1.00  0.00    -0.015 C 
HETATM    7  C7  UNL     1     -13.992  17.453  18.818  1.00  0.00     0.110 C 
HETATM    8  C10 UNL     1     -14.730  18.363  17.910  1.00  0.00     0.225 C 
HETATM    9  O6  UNL     1     -14.056  19.259  17.322  1.00  0.00    -0.273 OA
HETATM   10  N3  UNL     1     -16.111  18.341  17.625  1.00  0.00    -0.359 N 
ATOM     11  H3  UNL     1     -16.367  18.263  16.640  1.00  0.00     0.162 HD
HETATM   12  C11 UNL     1     -17.208  18.416  18.566  1.00  0.00     0.150 C 
HETATM   13  C12 UNL     1     -18.171  17.240  18.370  1.00  0.00     0.251 C 
HETATM   14  N4  UNL     1     -19.427  17.664  18.982  1.00  0.00    -0.073 N 
ATOM     15  H41 UNL     1     -19.551  18.674  18.910  1.00  0.00     0.277 HD
ATOM     16  H42 UNL     1     -19.392  17.578  19.998  1.00  0.00     0.277 HD
HETATM   17  C13 UNL     1     -20.569  16.951  18.431  1.00  0.00     0.242 C 
HETATM   18  C14 UNL     1     -21.335  16.381  19.603  1.00  0.00     0.101 C 
HETATM   19  S1  UNL     1     -21.496  14.579  19.388  1.00  0.00    -0.166 SA
HETATM   20  C15 UNL     1     -22.020  13.900  20.975  1.00  0.00     0.101 C 
HETATM   21  C16 UNL     1     -20.865  13.869  21.927  1.00  0.00     0.242 C 
HETATM   22  N5  UNL     1     -19.582  14.139  21.265  1.00  0.00    -0.074 N 
ATOM     23  H51 UNL     1     -19.538  15.054  20.817  1.00  0.00     0.277 HD
ATOM     24  H52 UNL     1     -19.432  13.584  20.422  1.00  0.00     0.277 HD
HETATM   25  C17 UNL     1     -18.572  13.940  22.273  1.00  0.00     0.234 C 
HETATM   26  C18 UNL     1     -17.426  14.956  22.148  1.00  0.00     0.047 C 
HETATM   27  C19 UNL     1     -16.233  14.357  22.822  1.00  0.00     0.128 C 
ENDROOT
BRANCH   1  28
HETATM   28  C1  UNL     1     -13.744  12.832  23.752  1.00  0.00     0.374 C 
BRANCH  28  29
HETATM   29  N1  UNL     1     -13.420  11.450  23.690  1.00  0.00    -0.056 N 
ATOM     30  H13 UNL     1     -12.490  11.259  24.064  1.00  0.00     0.275 HD
ATOM     31  H12 UNL     1     -13.964  10.900  24.356  1.00  0.00     0.275 HD
ATOM     32  H11 UNL     1     -13.526  11.106  22.736  1.00  0.00     0.275 HD
ENDBRANCH  28  29
BRANCH  28  33
HETATM   33  C2  UNL     1     -12.777  13.551  24.650  1.00  0.00     0.214 C 
HETATM   34  O1  UNL     1     -13.234  14.047  25.702  1.00  0.00    -0.646 OA
HETATM   35  O2  UNL     1     -11.439  13.674  24.357  1.00  0.00    -0.646 OA
ENDBRANCH  28  33
ENDBRANCH   1  28
BRANCH   7  36
HETATM   36  C8  UNL     1     -13.654  16.147  18.175  1.00  0.00     0.131 C 
BRANCH  36  37
HETATM   37  C9  UNL     1     -12.185  15.965  18.301  1.00  0.00     0.173 C 
HETATM   38  O4  UNL     1     -11.726  14.959  18.899  1.00  0.00    -0.648 OA
HETATM   39  O5  UNL     1     -11.281  16.867  17.781  1.00  0.00    -0.648 OA
ENDBRANCH  36  37
ENDBRANCH   7  36
TORSDOF 5
ENDMDL
MODEL 2
REMARK VINA RESULT: -7.002967768      6.129      8.332
REMARK  5 active torsions:
REMARK  status: ('A' for Active; 'I' for Inactive)
REMARK    1  A    between atoms: N1_1  and  C1_5 
REMARK    2  A    between atoms: C1_5  and  C2_6 
REMARK    3  A    between atoms: C1_5  and  C3_9 
REMARK       I    between atoms: C3_9  and  N2_11 
REMARK    4  A    between atoms: C7_15  and  C8_16 
REMARK    5  A    between atoms: C8_16  and  C9_17 
ROOT
HETATM    1  C3  UNL     1     -20.819  11.924  13.930  1.00  0.00     0.261 C 
HETATM    2  O3  UNL     1     -20.892  12.741  12.933  1.00  0.00    -0.270 OA
HETATM    3  N2  UNL     1     -20.068  12.374  15.032  1.00  0.00    -0.346 N 
HETATM    4  C4  UNL     1     -19.366  13.678  14.978  1.00  0.00     0.153 C 
HETATM    5  C5  UNL     1     -17.899  13.469  14.992  1.00  0.00    -0.010 C 
HETATM    6  C6  UNL     1     -16.944  14.217  14.602  1.00  0.00    -0.015 C 
HETATM    7  C7  UNL     1     -16.868  15.558  13.995  1.00  0.00     0.110 C 
HETATM    8  C10 UNL     1     -15.949  16.453  14.736  1.00  0.00     0.225 C 
HETATM    9  O6  UNL     1     -15.048  17.036  14.064  1.00  0.00    -0.273 OA
HETATM   10  N3  UNL     1     -15.966  16.731  16.119  1.00  0.00    -0.359 N 
ATOM     11  H3  UNL     1     -16.034  17.715  16.380  1.00  0.00     0.162 HD
HETATM   12  C11 UNL     1     -15.898  15.783  17.210  1.00  0.00     0.150 C 
HETATM   13  C12 UNL     1     -17.070  15.986  18.176  1.00  0.00     0.251 C 
HETATM   14  N4  UNL     1     -16.650  15.363  19.429  1.00  0.00    -0.073 N 
ATOM     15  H41 UNL     1     -15.639  15.425  19.552  1.00  0.00     0.277 HD
ATOM     16  H42 UNL     1     -16.746  14.348  19.388  1.00  0.00     0.277 HD
HETATM   17  C13 UNL     1     -17.356  15.915  20.575  1.00  0.00     0.242 C 
HETATM   18  C14 UNL     1     -17.936  14.744  21.335  1.00  0.00     0.101 C 
HETATM   19  S1  UNL     1     -19.736  14.975  21.501  1.00  0.00    -0.166 SA
HETATM   20  C15 UNL     1     -20.429  13.392  22.017  1.00  0.00     0.101 C 
HETATM   21  C16 UNL     1     -20.471  12.447  20.858  1.00  0.00     0.242 C 
HETATM   22  N5  UNL     1     -20.197  13.113  19.578  1.00  0.00    -0.074 N 
ATOM     23  H51 UNL     1     -19.277  13.552  19.535  1.00  0.00     0.277 HD
ATOM     24  H52 UNL     1     -20.744  13.962  19.433  1.00  0.00     0.277 HD
HETATM   25  C17 UNL     1     -20.407  12.112  18.563  1.00  0.00     0.234 C 
HETATM   26  C18 UNL     1     -19.391  12.234  17.416  1.00  0.00     0.047 C 
HETATM   27  C19 UNL     1     -19.999  11.572  16.220  1.00  0.00     0.128 C 
ENDROOT
BRANCH   1  28
HETATM   28  C1  UNL     1     -21.537  10.669  13.729  1.00  0.00     0.374 C 
BRANCH  28  29
HETATM   29  N1  UNL     1     -22.910  10.747  13.369  1.00  0.00    -0.056 N 
ATOM     30  H13 UNL     1     -23.047  10.638  12.364  1.00  0.00     0.275 HD
ATOM     31  H12 UNL     1     -23.433   9.928  13.681  1.00  0.00     0.275 HD
ATOM     32  H11 UNL     1     -23.316  11.615  13.718  1.00  0.00     0.275 HD
ENDBRANCH  28  29
BRANCH  28  33
HETATM   33  C2  UNL     1     -20.806   9.751  12.790  1.00  0.00     0.214 C 
HETATM   34  O1  UNL     1     -20.328   8.702  13.272  1.00  0.00    -0.646 OA
HETATM   35  O2  UNL     1     -20.654  10.024  11.451  1.00  0.00    -0.646 OA
ENDBRANCH  28  33
ENDBRANCH   1  28
BRANCH   7  36
HETATM   36  C8  UNL     1     -18.169  16.215  13.662  1.00  0.00     0.131 C 
BRANCH  36  37
HETATM   37  C9  UNL     1     -18.376  16.058  12.200  1.00  0.00     0.173 C 
HETATM   38  O4  UNL     1     -19.399  15.466  11.771  1.00  0.00    -0.648 OA
HETATM   39  O5  UNL     1     -17.482  16.543  11.270  1.00  0.00    -0.648 OA
ENDBRANCH  36  37
ENDBRANCH   7  36
TORSDOF 5
ENDMDL
MODEL 3
REMARK VINA RESULT: -6.968262531      4.966      6.329
REMARK  5 active torsions:
REMARK  status: ('A' for Active; 'I' for Inactive)
REMARK    1  A    between atoms: N1_1  and  C1_5 
REMARK    2  A    between atoms: C1_5  and  C2_6 
REMARK    3  A    between atoms: C1_5  and  C3_9 
REMARK       I    between atoms: C3_9  and  N2_11 
REMARK    4  A    between atoms: C7_15  and  C8_16 
REMARK    5  A    between atoms: C8_16  and  C9_17 
ROOT
HETATM    1  C3  UNL     1     -12.182  11.018  15.734  1.00  0.00     0.261 C 
HETATM    2  O3  UNL     1     -11.105  11.724  15.654  1.00  0.00    -0.270 OA
HETATM    3  N2  UNL     1     -13.367  11.740  15.966  1.00  0.00    -0.346 N 
HETATM    4  C4  UNL     1     -13.324  13.208  16.170  1.00  0.00     0.153 C 
HETATM    5  C5  UNL     1     -13.710  13.541  17.561  1.00  0.00    -0.010 C 
HETATM    6  C6  UNL     1     -13.470  14.571  18.272  1.00  0.00    -0.015 C 
HETATM    7  C7  UNL     1     -12.740  15.830  18.045  1.00  0.00     0.110 C 
HETATM    8  C10 UNL     1     -13.563  17.018  18.374  1.00  0.00     0.225 C 
HETATM    9  O6  UNL     1     -13.058  17.866  19.167  1.00  0.00    -0.273 OA
HETATM   10  N3  UNL     1     -14.858  17.312  17.897  1.00  0.00    -0.359 N 
ATOM     11  H3  UNL     1     -14.973  18.213  17.432  1.00  0.00     0.162 HD
HETATM   12  C11 UNL     1     -16.042  16.484  17.991  1.00  0.00     0.150 C 
HETATM   13  C12 UNL     1     -16.669  16.279  16.608  1.00  0.00     0.251 C 
HETATM   14  N4  UNL     1     -18.052  15.887  16.866  1.00  0.00    -0.073 N 
ATOM     15  H41 UNL     1     -18.403  16.311  17.725  1.00  0.00     0.277 HD
ATOM     16  H42 UNL     1     -18.114  14.904  17.136  1.00  0.00     0.277 HD
HETATM   17  C13 UNL     1     -18.922  16.180  15.738  1.00  0.00     0.242 C 
HETATM   18  C14 UNL     1     -19.660  14.902  15.411  1.00  0.00     0.101 C 
HETATM   19  S1  UNL     1     -19.364  14.475  13.665  1.00  0.00    -0.166 SA
HETATM   20  C15 UNL     1     -19.890  12.764  13.440  1.00  0.00     0.101 C 
HETATM   21  C16 UNL     1     -18.878  11.833  14.032  1.00  0.00     0.242 C 
HETATM   22  N5  UNL     1     -17.628  12.516  14.392  1.00  0.00    -0.074 N 
ATOM     23  H51 UNL     1     -17.751  13.255  15.084  1.00  0.00     0.277 HD
ATOM     24  H52 UNL     1     -17.255  13.106  13.648  1.00  0.00     0.277 HD
HETATM   25  C17 UNL     1     -16.722  11.477  14.812  1.00  0.00     0.234 C 
HETATM   26  C18 UNL     1     -15.843  11.923  15.991  1.00  0.00     0.047 C 
HETATM   27  C19 UNL     1     -14.627  11.052  15.986  1.00  0.00     0.128 C 
ENDROOT
BRANCH   1  28
HETATM   28  C1  UNL     1     -11.971   9.583  15.565  1.00  0.00     0.374 C 
BRANCH  28  29
HETATM   29  N1  UNL     1     -12.864   8.882  14.710  1.00  0.00    -0.056 N 
ATOM     30  H13 UNL     1     -13.038   9.390  13.842  1.00  0.00     0.275 HD
ATOM     31  H12 UNL     1     -12.433   8.048  14.311  1.00  0.00     0.275 HD
ATOM     32  H11 UNL     1     -13.728   8.666  15.206  1.00  0.00     0.275 HD
ENDBRANCH  28  29
BRANCH  28  33
HETATM   33  C2  UNL     1     -10.548   9.268  15.199  1.00  0.00     0.214 C 
HETATM   34  O1  UNL     1     -10.297   9.075  13.990  1.00  0.00    -0.646 OA
HETATM   35  O2  UNL     1      -9.540   9.188  16.131  1.00  0.00    -0.646 OA
ENDBRANCH  28  33
ENDBRANCH   1  28
BRANCH   7  36
HETATM   36  C8  UNL     1     -12.030  15.965  16.736  1.00  0.00     0.131 C 
BRANCH  36  37
HETATM   37  C9  UNL     1     -11.230  17.215  16.799  1.00  0.00     0.173 C 
HETATM   38  O4  UNL     1     -10.303  17.324  17.641  1.00  0.00    -0.648 OA
HETATM   39  O5  UNL     1     -11.461  18.283  15.959  1.00  0.00    -0.648 OA
ENDBRANCH  36  37
ENDBRANCH   7  36
TORSDOF 5
ENDMDL
MODEL 4
REMARK VINA RESULT: -6.921566253      5.779      8.356
REMARK  5 active torsions:
REMARK  status: ('A' for Active; 'I' for Inactive)
REMARK    1  A    between atoms: N1_1  and  C1_5 
REMARK    2  A    between atoms: C1_5  and  C2_6 
REMARK    3  A    between atoms: C1_5  and  C3_9 
REMARK       I    between atoms: C3_9  and  N2_11 
REMARK    4  A    between atoms: C7_15  and  C8_16 
REMARK    5  A    between atoms: C8_16  and  C9_17 
ROOT
HETATM    1  C3  UNL     1     -22.765  20.509  20.803  1.00  0.00     0.261 C 
HETATM    2  O3  UNL     1     -22.008  21.553  20.853  1.00  0.00    -0.270 OA
HETATM    3  N2  UNL     1     -22.230  19.401  20.119  1.00  0.00    -0.346 N 
HETATM    4  C4  UNL     1     -20.910  19.497  19.454  1.00  0.00     0.153 C 
HETATM    5  C5  UNL     1     -21.071  19.404  17.984  1.00  0.00    -0.010 C 
HETATM    6  C6  UNL     1     -20.317  19.791  17.033  1.00  0.00    -0.015 C 
HETATM    7  C7  UNL     1     -19.010  20.469  16.967  1.00  0.00     0.110 C 
HETATM    8  C10 UNL     1     -18.046  19.740  16.110  1.00  0.00     0.225 C 
HETATM    9  O6  UNL     1     -17.474  20.402  15.196  1.00  0.00    -0.273 OA
HETATM   10  N3  UNL     1     -17.692  18.378  16.202  1.00  0.00    -0.359 N 
ATOM     11  H3  UNL     1     -16.698  18.177  16.310  1.00  0.00     0.162 HD
HETATM   12  C11 UNL     1     -18.575  17.231  16.159  1.00  0.00     0.150 C 
HETATM   13  C12 UNL     1     -18.356  16.334  17.381  1.00  0.00     0.251 C 
HETATM   14  N4  UNL     1     -18.894  15.030  17.004  1.00  0.00    -0.073 N 
ATOM     15  H41 UNL     1     -18.794  14.864  16.002  1.00  0.00     0.277 HD
ATOM     16  H42 UNL     1     -19.912  15.016  17.068  1.00  0.00     0.277 HD
HETATM   17  C13 UNL     1     -18.302  13.951  17.779  1.00  0.00     0.242 C 
HETATM   18  C14 UNL     1     -19.446  13.152  18.360  1.00  0.00     0.101 C 
HETATM   19  S1  UNL     1     -19.263  13.083  20.172  1.00  0.00    -0.166 SA
HETATM   20  C15 UNL     1     -20.835  12.509  20.843  1.00  0.00     0.101 C 
HETATM   21  C16 UNL     1     -21.845  13.613  20.802  1.00  0.00     0.242 C 
HETATM   22  N5  UNL     1     -21.243  14.916  20.487  1.00  0.00    -0.074 N 
ATOM     23  H51 UNL     1     -20.778  14.941  19.579  1.00  0.00     0.277 HD
ATOM     24  H52 UNL     1     -20.421  15.133  21.051  1.00  0.00     0.277 HD
HETATM   25  C17 UNL     1     -22.306  15.880  20.619  1.00  0.00     0.234 C 
HETATM   26  C18 UNL     1     -22.216  16.984  19.554  1.00  0.00     0.047 C 
HETATM   27  C19 UNL     1     -22.962  18.167  20.084  1.00  0.00     0.128 C 
ENDROOT
BRANCH   1  28
HETATM   28  C1  UNL     1     -24.051  20.670  21.475  1.00  0.00     0.374 C 
BRANCH  28  29
HETATM   29  N1  UNL     1     -24.036  20.930  22.872  1.00  0.00    -0.056 N 
ATOM     30  H13 UNL     1     -23.707  21.873  23.081  1.00  0.00     0.275 HD
ATOM     31  H12 UNL     1     -24.979  21.012  23.255  1.00  0.00     0.275 HD
ATOM     32  H11 UNL     1     -23.489  20.218  23.356  1.00  0.00     0.275 HD
ENDBRANCH  28  29
BRANCH  28  33
HETATM   33  C2  UNL     1     -24.927  21.669  20.772  1.00  0.00     0.214 C 
HETATM   34  O1  UNL     1     -25.963  21.235  20.224  1.00  0.00    -0.646 OA
HETATM   35  O2  UNL     1     -24.630  23.010  20.716  1.00  0.00    -0.646 OA
ENDBRANCH  28  33
ENDBRANCH   1  28
BRANCH   7  36
HETATM   36  C8  UNL     1     -18.414  20.899  18.269  1.00  0.00     0.131 C 
BRANCH  36  37
HETATM   37  C9  UNL     1     -17.399  21.940  17.964  1.00  0.00     0.173 C 
HETATM   38  O4  UNL     1     -16.195  21.752  18.274  1.00  0.00    -0.648 OA
HETATM   39  O5  UNL     1     -17.722  23.127  17.343  1.00  0.00    -0.648 OA
ENDBRANCH  36  37
ENDBRANCH   7  36
TORSDOF 5
ENDMDL
MODEL 5
REMARK VINA RESULT: -6.846562211      6.968      9.092
REMARK  5 active torsions:
REMARK  status: ('A' for Active; 'I' for Inactive)
REMARK    1  A    between atoms: N1_1  and  C1_5 
REMARK    2  A    between atoms: C1_5  and  C2_6 
REMARK    3  A    between atoms: C1_5  and  C3_9 
REMARK       I    between atoms: C3_9  and  N2_11 
REMARK    4  A    between atoms: C7_15  and  C8_16 
REMARK    5  A    between atoms: C8_16  and  C9_17 
ROOT
HETATM    1  C3  UNL     1     -19.115  10.250  13.063  1.00  0.00     0.261 C 
HETATM    2  O3  UNL     1     -17.994   9.644  12.861  1.00  0.00    -0.270 OA
HETATM    3  N2  UNL     1     -19.035  11.452  13.790  1.00  0.00    -0.346 N 
HETATM    4  C4  UNL     1     -17.736  11.916  14.332  1.00  0.00     0.153 C 
HETATM    5  C5  UNL     1     -17.754  11.871  15.812  1.00  0.00    -0.010 C 
HETATM    6  C6  UNL     1     -16.805  11.814  16.660  1.00  0.00    -0.015 C 
HETATM    7  C7  UNL     1     -15.335  11.771  16.557  1.00  0.00     0.110 C 
HETATM    8  C10 UNL     1     -14.689  12.814  17.388  1.00  0.00     0.225 C 
HETATM    9  O6  UNL     1     -13.788  12.432  18.192  1.00  0.00    -0.273 OA
HETATM   10  N3  UNL     1     -14.967  14.196  17.383  1.00  0.00    -0.359 N 
ATOM     11  H3  UNL     1     -14.174  14.815  17.208  1.00  0.00     0.162 HD
HETATM   12  C11 UNL     1     -16.245  14.840  17.598  1.00  0.00     0.150 C 
HETATM   13  C12 UNL     1     -16.573  15.791  16.441  1.00  0.00     0.251 C 
HETATM   14  N4  UNL     1     -17.572  16.714  16.972  1.00  0.00    -0.073 N 
ATOM     15  H41 UNL     1     -17.441  16.867  17.972  1.00  0.00     0.277 HD
ATOM     16  H42 UNL     1     -18.498  16.285  16.995  1.00  0.00     0.277 HD
HETATM   17  C13 UNL     1     -17.593  17.973  16.243  1.00  0.00     0.242 C 
HETATM   18  C14 UNL     1     -19.027  18.215  15.831  1.00  0.00     0.101 C 
HETATM   19  S1  UNL     1     -19.097  18.428  14.022  1.00  0.00    -0.166 SA
HETATM   20  C15 UNL     1     -20.828  18.285  13.537  1.00  0.00     0.101 C 
HETATM   21  C16 UNL     1     -21.254  16.851  13.570  1.00  0.00     0.242 C 
HETATM   22  N5  UNL     1     -20.119  15.930  13.722  1.00  0.00    -0.074 N 
ATOM     23  H51 UNL     1     -19.589  16.074  14.582  1.00  0.00     0.277 HD
ATOM     24  H52 UNL     1     -19.353  16.115  13.074  1.00  0.00     0.277 HD
HETATM   25  C17 UNL     1     -20.672  14.605  13.599  1.00  0.00     0.234 C 
HETATM   26  C18 UNL     1     -19.997  13.609  14.555  1.00  0.00     0.047 C 
HETATM   27  C19 UNL     1     -20.217  12.241  13.992  1.00  0.00     0.128 C 
ENDROOT
BRANCH   1  28
HETATM   28  C1  UNL     1     -20.274   9.571  12.491  1.00  0.00     0.374 C 
BRANCH  28  29
HETATM   29  N1  UNL     1     -20.983  10.237  11.455  1.00  0.00    -0.056 N 
ATOM     30  H13 UNL     1     -20.365  10.802  10.872  1.00  0.00     0.275 HD
ATOM     31  H12 UNL     1     -21.312   9.588  10.740  1.00  0.00     0.275 HD
ATOM     32  H11 UNL     1     -21.745  10.789  11.849  1.00  0.00     0.275 HD
ENDBRANCH  28  29
BRANCH  28  33
HETATM   33  C2  UNL     1     -19.947   8.165  12.073  1.00  0.00     0.214 C 
HETATM   34  O1  UNL     1     -19.751   7.960  10.856  1.00  0.00    -0.646 OA
HETATM   35  O2  UNL     1     -19.858   7.124  12.967  1.00  0.00    -0.646 OA
ENDBRANCH  28  33
ENDBRANCH   1  28
BRANCH   7  36
HETATM   36  C8  UNL     1     -14.764  11.696  15.178  1.00  0.00     0.131 C 
BRANCH  36  37
HETATM   37  C9  UNL     1     -13.934  10.466  15.114  1.00  0.00     0.173 C 
HETATM   38  O4  UNL     1     -13.883   9.799  14.049  1.00  0.00    -0.648 OA
HETATM   39  O5  UNL     1     -13.203  10.010  16.190  1.00  0.00    -0.648 OA
ENDBRANCH  36  37
ENDBRANCH   7  36
TORSDOF 5
ENDMDL
