MODEL 1
REMARK VINA RESULT: -7.885189638      0.000      0.000
REMARK  7 active torsions:
REMARK  status: ('A' for Active; 'I' for Inactive)
REMARK    1  A    between atoms: C3_5  and  N2_6 
REMARK    2  A    between atoms: N2_6  and  S1_8 
REMARK    3  A    between atoms: S1_8  and  N3_9 
REMARK    4  A    between atoms: S1_8  and  C4_13 
REMARK    5  A    between atoms: N4_20  and  C8_21 
REMARK    6  A    between atoms: C8_21  and  C10_24 
REMARK    7  A    between atoms: C10_24  and  C11_25 
ROOT
HETATM    1  C1  UNL     1       8.509 -13.678  -2.469  1.00  0.00     0.091 C 
HETATM    2  C2  UNL     1       7.306 -12.966  -2.963  1.00  0.00     0.108 A 
HETATM    3  N1  UNL     1       7.255 -11.986  -3.872  1.00  0.00    -0.177 N 
ATOM      4  H1  UNL     1       8.066 -11.596  -4.353  1.00  0.00     0.185 HD
HETATM    5  C3  UNL     1       5.985 -11.588  -4.064  1.00  0.00     0.711 A 
HETATM    6  N4  UNL     1       5.226 -12.340  -3.252  1.00  0.00    -0.097 N 
HETATM    7  N5  UNL     1       6.032 -13.175  -2.586  1.00  0.00    -0.270 N 
ATOM      8  H5  UNL     1       5.728 -13.864  -1.897  1.00  0.00     0.189 HD
ENDROOT
BRANCH   5   9
HETATM    9  N2  UNL     1       5.521 -10.679  -4.848  1.00  0.00    -0.127 N 
ATOM     10  H2  UNL     1       4.885 -10.942  -5.601  1.00  0.00     0.196 HD
BRANCH   9  11
HETATM   11  S1  UNL     1       5.959  -9.028  -4.647  1.00  0.00     0.157 S 
HETATM   12  O1  UNL     1       6.021  -8.340  -5.993  1.00  0.00    -0.222 OA
BRANCH  11  13
HETATM   13  N3  UNL     1       7.307  -8.849  -3.914  1.00  0.00    -0.340 N 
ATOM     14  H32 UNL     1       8.192  -9.181  -4.298  1.00  0.00     0.167 HD
ATOM     15  H31 UNL     1       7.211  -8.370  -3.019  1.00  0.00     0.167 HD
ENDBRANCH  11  13
BRANCH  11  16
HETATM   16  C4  UNL     1       4.728  -8.150  -3.724  1.00  0.00     0.102 A 
HETATM   17  C5  UNL     1       3.411  -7.961  -4.053  1.00  0.00     0.057 A 
HETATM   18  C6  UNL     1       2.661  -7.251  -3.181  1.00  0.00     0.064 A 
HETATM   19 CL1  UNL     1       0.922  -6.921  -3.477  1.00  0.00    -0.082 Cl
HETATM   20  C7  UNL     1       3.287  -6.788  -2.056  1.00  0.00     0.097 A 
HETATM   21 CL2  UNL     1       2.567  -5.833  -0.742  1.00  0.00    -0.074 Cl
HETATM   22  S2  UNL     1       4.882  -7.346  -2.234  1.00  0.00    -0.064 SA
ENDBRANCH  11  16
ENDBRANCH   9  11
ENDBRANCH   5   9
BRANCH   6  23
HETATM   23  C8  UNL     1       3.756 -12.306  -3.075  1.00  0.00     0.144 C 
HETATM   24  C9  UNL     1       3.449 -13.663  -2.427  1.00  0.00     0.059 C 
HETATM   25 CL3  UNL     1       3.396 -10.964  -2.012  1.00  0.00    -0.093 Cl
BRANCH  23  26
HETATM   26  C10 UNL     1       3.084 -12.261  -4.389  1.00  0.00     0.054 C 
BRANCH  26  27
HETATM   27  C11 UNL     1       1.973 -11.326  -4.612  1.00  0.00    -0.011 C 
HETATM   28  C12 UNL     1       0.591 -11.774  -4.322  1.00  0.00     0.005 C 
HETATM   29  C13 UNL     1      -0.434 -11.088  -5.248  1.00  0.00     0.000 C 
HETATM   30  C14 UNL     1      -0.044  -9.666  -5.496  1.00  0.00     0.000 C 
HETATM   31  C15 UNL     1       1.220  -9.698  -6.361  1.00  0.00     0.000 C 
HETATM   32  C16 UNL     1       2.013 -10.957  -6.108  1.00  0.00     0.005 C 
ENDBRANCH  26  27
ENDBRANCH  23  26
ENDBRANCH   6  23
TORSDOF 7
ENDMDL
MODEL 2
REMARK VINA RESULT: -7.872610660      2.699      5.525
REMARK  7 active torsions:
REMARK  status: ('A' for Active; 'I' for Inactive)
REMARK    1  A    between atoms: C3_5  and  N2_6 
REMARK    2  A    between atoms: N2_6  and  S1_8 
REMARK    3  A    between atoms: S1_8  and  N3_9 
REMARK    4  A    between atoms: S1_8  and  C4_13 
REMARK    5  A    between atoms: N4_20  and  C8_21 
REMARK    6  A    between atoms: C8_21  and  C10_24 
REMARK    7  A    between atoms: C10_24  and  C11_25 
ROOT
HETATM    1  C1  UNL     1       3.957  -6.304  -2.374  1.00  0.00     0.091 C 
HETATM    2  C2  UNL     1       3.607  -7.460  -3.235  1.00  0.00     0.108 A 
HETATM    3  N1  UNL     1       4.446  -8.275  -3.885  1.00  0.00    -0.177 N 
ATOM      4  H1  UNL     1       5.463  -8.197  -3.868  1.00  0.00     0.185 HD
HETATM    5  C3  UNL     1       3.760  -9.211  -4.565  1.00  0.00     0.711 A 
HETATM    6  N4  UNL     1       2.460  -8.971  -4.331  1.00  0.00    -0.097 N 
HETATM    7  N5  UNL     1       2.372  -7.908  -3.523  1.00  0.00    -0.270 N 
ATOM      8  H5  UNL     1       1.503  -7.499  -3.180  1.00  0.00     0.189 HD
ENDROOT
BRANCH   5   9
HETATM    9  N2  UNL     1       4.196 -10.167  -5.306  1.00  0.00    -0.127 N 
ATOM     10  H2  UNL     1       3.556 -10.904  -5.603  1.00  0.00     0.196 HD
BRANCH   9  11
HETATM   11  S1  UNL     1       5.840 -10.223  -5.805  1.00  0.00     0.157 S 
HETATM   12  O1  UNL     1       6.454  -8.843  -5.725  1.00  0.00    -0.222 OA
BRANCH  11  13
HETATM   13  N3  UNL     1       6.017 -10.784  -7.233  1.00  0.00    -0.340 N 
ATOM     14  H32 UNL     1       6.173 -10.185  -8.045  1.00  0.00     0.167 HD
ATOM     15  H31 UNL     1       5.960 -11.802  -7.270  1.00  0.00     0.167 HD
ENDBRANCH  11  13
BRANCH  11  16
HETATM   16  C4  UNL     1       6.804 -11.232  -4.712  1.00  0.00     0.102 A 
HETATM   17  C5  UNL     1       6.366 -11.944  -3.626  1.00  0.00     0.057 A 
HETATM   18  C6  UNL     1       7.297 -12.646  -2.941  1.00  0.00     0.064 A 
HETATM   19 CL1  UNL     1       6.874 -13.624  -1.498  1.00  0.00    -0.082 Cl
HETATM   20  C7  UNL     1       8.585 -12.577  -3.397  1.00  0.00     0.097 A 
HETATM   21 CL2  UNL     1      10.012 -13.383  -2.709  1.00  0.00    -0.074 Cl
HETATM   22  S2  UNL     1       8.472 -11.554  -4.749  1.00  0.00    -0.064 SA
ENDBRANCH  11  16
ENDBRANCH   9  11
ENDBRANCH   5   9
BRANCH   6  23
HETATM   23  C8  UNL     1       1.283  -9.710  -4.843  1.00  0.00     0.144 C 
HETATM   24  C9  UNL     1       0.151  -8.679  -4.744  1.00  0.00     0.059 C 
HETATM   25 CL3  UNL     1       1.634 -10.158  -6.496  1.00  0.00    -0.093 Cl
BRANCH  23  26
HETATM   26  C10 UNL     1       0.957 -10.836  -3.945  1.00  0.00     0.054 C 
BRANCH  26  27
HETATM   27  C11 UNL     1       1.842 -12.008  -3.890  1.00  0.00    -0.011 C 
HETATM   28  C12 UNL     1       1.342 -13.306  -4.402  1.00  0.00     0.005 C 
HETATM   29  C13 UNL     1       1.967 -14.494  -3.643  1.00  0.00     0.000 C 
HETATM   30  C14 UNL     1       3.399 -14.211  -3.318  1.00  0.00     0.000 C 
HETATM   31  C15 UNL     1       3.403 -13.100  -2.263  1.00  0.00     0.000 C 
HETATM   32  C16 UNL     1       2.183 -12.222  -2.402  1.00  0.00     0.005 C 
ENDBRANCH  26  27
ENDBRANCH  23  26
ENDBRANCH   6  23
TORSDOF 7
ENDMDL
MODEL 3
REMARK VINA RESULT: -7.860767482      1.530      1.900
REMARK  7 active torsions:
REMARK  status: ('A' for Active; 'I' for Inactive)
REMARK    1  A    between atoms: C3_5  and  N2_6 
REMARK    2  A    between atoms: N2_6  and  S1_8 
REMARK    3  A    between atoms: S1_8  and  N3_9 
REMARK    4  A    between atoms: S1_8  and  C4_13 
REMARK    5  A    between atoms: N4_20  and  C8_21 
REMARK    6  A    between atoms: C8_21  and  C10_24 
REMARK    7  A    between atoms: C10_24  and  C11_25 
ROOT
HETATM    1  C1  UNL     1       9.032 -12.758  -4.677  1.00  0.00     0.091 C 
HETATM    2  C2  UNL     1       7.865 -12.193  -3.958  1.00  0.00     0.108 A 
HETATM    3  N1  UNL     1       7.679 -10.924  -3.575  1.00  0.00    -0.177 N 
ATOM      4  H1  UNL     1       8.341 -10.165  -3.738  1.00  0.00     0.185 HD
HETATM    5  C3  UNL     1       6.498 -10.790  -2.947  1.00  0.00     0.711 A 
HETATM    6  N4  UNL     1       5.934 -12.008  -2.938  1.00  0.00    -0.097 N 
HETATM    7  N5  UNL     1       6.767 -12.856  -3.553  1.00  0.00    -0.270 N 
ATOM      8  H5  UNL     1       6.597 -13.852  -3.692  1.00  0.00     0.189 HD
ENDROOT
BRANCH   5   9
HETATM    9  N2  UNL     1       5.958  -9.740  -2.435  1.00  0.00    -0.127 N 
ATOM     10  H2  UNL     1       5.609  -9.772  -1.477  1.00  0.00     0.196 HD
BRANCH   9  11
HETATM   11  S1  UNL     1       5.815  -8.286  -3.341  1.00  0.00     0.157 S 
HETATM   12  O1  UNL     1       6.166  -8.541  -4.790  1.00  0.00    -0.222 OA
BRANCH  11  13
HETATM   13  N3  UNL     1       6.699  -7.145  -2.790  1.00  0.00    -0.340 N 
ATOM     14  H32 UNL     1       7.687  -7.051  -3.025  1.00  0.00     0.167 HD
ATOM     15  H31 UNL     1       6.189  -6.511  -2.175  1.00  0.00     0.167 HD
ENDBRANCH  11  13
BRANCH  11  16
HETATM   16  C4  UNL     1       4.141  -7.706  -3.355  1.00  0.00     0.102 A 
HETATM   17  C5  UNL     1       3.168  -7.979  -4.280  1.00  0.00     0.057 A 
HETATM   18  C6  UNL     1       1.956  -7.416  -4.075  1.00  0.00     0.064 A 
HETATM   19 CL1  UNL     1       0.584  -7.683  -5.201  1.00  0.00    -0.082 Cl
HETATM   20  C7  UNL     1       1.818  -6.626  -2.967  1.00  0.00     0.097 A 
HETATM   21 CL2  UNL     1       0.358  -5.760  -2.440  1.00  0.00    -0.074 Cl
HETATM   22  S2  UNL     1       3.355  -6.687  -2.245  1.00  0.00    -0.064 SA
ENDBRANCH  11  16
ENDBRANCH   9  11
ENDBRANCH   5   9
BRANCH   6  23
HETATM   23  C8  UNL     1       4.628 -12.411  -2.369  1.00  0.00     0.144 C 
HETATM   24  C9  UNL     1       4.348 -13.757  -3.052  1.00  0.00     0.059 C 
HETATM   25 CL3  UNL     1       4.846 -12.574  -0.642  1.00  0.00    -0.093 Cl
BRANCH  23  26
HETATM   26  C10 UNL     1       3.575 -11.461  -2.781  1.00  0.00     0.054 C 
BRANCH  26  27
HETATM   27  C11 UNL     1       2.781 -11.726  -3.987  1.00  0.00    -0.011 C 
HETATM   28  C12 UNL     1       3.246 -11.181  -5.284  1.00  0.00     0.005 C 
HETATM   29  C13 UNL     1       2.064 -10.862  -6.222  1.00  0.00     0.000 C 
HETATM   30  C14 UNL     1       0.990 -11.892  -6.077  1.00  0.00     0.000 C 
HETATM   31  C15 UNL     1       0.375 -11.698  -4.688  1.00  0.00     0.000 C 
HETATM   32  C16 UNL     1       1.387 -11.120  -3.728  1.00  0.00     0.005 C 
ENDBRANCH  26  27
ENDBRANCH  23  26
ENDBRANCH   6  23
TORSDOF 7
ENDMDL
MODEL 4
REMARK VINA RESULT: -7.778013727      0.757      1.214
REMARK  7 active torsions:
REMARK  status: ('A' for Active; 'I' for Inactive)
REMARK    1  A    between atoms: C3_5  and  N2_6 
REMARK    2  A    between atoms: N2_6  and  S1_8 
REMARK    3  A    between atoms: S1_8  and  N3_9 
REMARK    4  A    between atoms: S1_8  and  C4_13 
REMARK    5  A    between atoms: N4_20  and  C8_21 
REMARK    6  A    between atoms: C8_21  and  C10_24 
REMARK    7  A    between atoms: C10_24  and  C11_25 
ROOT
HETATM    1  C1  UNL     1       8.577 -13.680  -2.787  1.00  0.00     0.091 C 
HETATM    2  C2  UNL     1       7.345 -12.949  -3.169  1.00  0.00     0.108 A 
HETATM    3  N1  UNL     1       7.243 -11.902  -3.997  1.00  0.00    -0.177 N 
ATOM      4  H1  UNL     1       8.027 -11.464  -4.481  1.00  0.00     0.185 HD
HETATM    5  C3  UNL     1       5.961 -11.507  -4.100  1.00  0.00     0.711 A 
HETATM    6  N4  UNL     1       5.248 -12.331  -3.316  1.00  0.00    -0.097 N 
HETATM    7  N5  UNL     1       6.092 -13.204  -2.754  1.00  0.00    -0.270 N 
ATOM      8  H5  UNL     1       5.827 -13.948  -2.108  1.00  0.00     0.189 HD
ENDROOT
BRANCH   5   9
HETATM    9  N2  UNL     1       5.453 -10.547  -4.790  1.00  0.00    -0.127 N 
ATOM     10  H2  UNL     1       4.764 -10.758  -5.512  1.00  0.00     0.196 HD
BRANCH   9  11
HETATM   11  S1  UNL     1       5.919  -8.916  -4.513  1.00  0.00     0.157 S 
HETATM   12  O1  UNL     1       6.012  -8.172  -5.827  1.00  0.00    -0.222 OA
BRANCH  11  13
HETATM   13  N3  UNL     1       7.261  -8.793  -3.757  1.00  0.00    -0.340 N 
ATOM     14  H32 UNL     1       8.133  -9.183  -4.116  1.00  0.00     0.167 HD
ATOM     15  H31 UNL     1       7.175  -8.289  -2.875  1.00  0.00     0.167 HD
ENDBRANCH  11  13
BRANCH  11  16
HETATM   16  C4  UNL     1       4.694  -8.054  -3.567  1.00  0.00     0.102 A 
HETATM   17  C5  UNL     1       4.728  -7.750  -2.231  1.00  0.00     0.057 A 
HETATM   18  C6  UNL     1       3.666  -7.081  -1.731  1.00  0.00     0.064 A 
HETATM   19 CL1  UNL     1       3.569  -6.615  -0.001  1.00  0.00    -0.082 Cl
HETATM   20  C7  UNL     1       2.659  -6.771  -2.604  1.00  0.00     0.097 A 
HETATM   21 CL2  UNL     1       1.150  -5.905  -2.241  1.00  0.00    -0.074 Cl
HETATM   22  S2  UNL     1       3.207  -7.410  -4.080  1.00  0.00    -0.064 SA
ENDBRANCH  11  16
ENDBRANCH   9  11
ENDBRANCH   5   9
BRANCH   6  23
HETATM   23  C8  UNL     1       3.787 -12.331  -3.072  1.00  0.00     0.144 C 
HETATM   24  C9  UNL     1       3.526 -13.733  -2.506  1.00  0.00     0.059 C 
HETATM   25 CL3  UNL     1       3.460 -11.071  -1.904  1.00  0.00    -0.093 Cl
BRANCH  23  26
HETATM   26  C10 UNL     1       3.056 -12.207  -4.348  1.00  0.00     0.054 C 
BRANCH  26  27
HETATM   27  C11 UNL     1       2.016 -11.181  -4.499  1.00  0.00    -0.011 C 
HETATM   28  C12 UNL     1       0.652 -11.464  -3.994  1.00  0.00     0.005 C 
HETATM   29  C13 UNL     1      -0.424 -10.743  -4.830  1.00  0.00     0.000 C 
HETATM   30  C14 UNL     1       0.056  -9.388  -5.243  1.00  0.00     0.000 C 
HETATM   31  C15 UNL     1       1.179  -9.609  -6.262  1.00  0.00     0.000 C 
HETATM   32  C16 UNL     1       1.881 -10.922  -6.013  1.00  0.00     0.005 C 
ENDBRANCH  26  27
ENDBRANCH  23  26
ENDBRANCH   6  23
TORSDOF 7
ENDMDL
MODEL 5
REMARK VINA RESULT: -7.757919174      2.897      5.665
REMARK  7 active torsions:
REMARK  status: ('A' for Active; 'I' for Inactive)
REMARK    1  A    between atoms: C3_5  and  N2_6 
REMARK    2  A    between atoms: N2_6  and  S1_8 
REMARK    3  A    between atoms: S1_8  and  N3_9 
REMARK    4  A    between atoms: S1_8  and  C4_13 
REMARK    5  A    between atoms: N4_20  and  C8_21 
REMARK    6  A    between atoms: C8_21  and  C10_24 
REMARK    7  A    between atoms: C10_24  and  C11_25 
ROOT
HETATM    1  C1  UNL     1       9.845  -5.653  -1.250  1.00  0.00     0.091 C 
HETATM    2  C2  UNL     1       8.454  -6.157  -1.359  1.00  0.00     0.108 A 
HETATM    3  N1  UNL     1       8.052  -7.340  -1.839  1.00  0.00    -0.177 N 
ATOM      4  H1  UNL     1       8.674  -8.064  -2.199  1.00  0.00     0.185 HD
HETATM    5  C3  UNL     1       6.713  -7.441  -1.779  1.00  0.00     0.711 A 
HETATM    6  N4  UNL     1       6.270  -6.290  -1.248  1.00  0.00    -0.097 N 
HETATM    7  N5  UNL     1       7.331  -5.514  -0.995  1.00  0.00    -0.270 N 
ATOM      8  H5  UNL     1       7.293  -4.579  -0.589  1.00  0.00     0.189 HD
ENDROOT
BRANCH   5   9
HETATM    9  N2  UNL     1       5.948  -8.411  -2.138  1.00  0.00    -0.127 N 
ATOM     10  H2  UNL     1       5.139  -8.652  -1.565  1.00  0.00     0.196 HD
BRANCH   9  11
HETATM   11  S1  UNL     1       6.270  -9.309  -3.568  1.00  0.00     0.157 S 
HETATM   12  O1  UNL     1       7.674  -9.869  -3.526  1.00  0.00    -0.222 OA
BRANCH  11  13
HETATM   13  N3  UNL     1       6.087  -8.475  -4.856  1.00  0.00    -0.340 N 
ATOM     14  H32 UNL     1       6.161  -7.457  -4.868  1.00  0.00     0.167 HD
ATOM     15  H31 UNL     1       5.886  -9.048  -5.675  1.00  0.00     0.167 HD
ENDBRANCH  11  13
BRANCH  11  16
HETATM   16  C4  UNL     1       5.203 -10.719  -3.690  1.00  0.00     0.102 A 
HETATM   17  C5  UNL     1       3.964 -10.783  -4.274  1.00  0.00     0.057 A 
HETATM   18  C6  UNL     1       3.337 -11.980  -4.242  1.00  0.00     0.064 A 
HETATM   19 CL1  UNL     1       1.712 -12.218  -4.965  1.00  0.00    -0.082 Cl
HETATM   20  C7  UNL     1       3.996 -13.011  -3.629  1.00  0.00     0.097 A 
HETATM   21 CL2  UNL     1       3.429 -14.683  -3.433  1.00  0.00    -0.074 Cl
HETATM   22  S2  UNL     1       5.454 -12.300  -3.121  1.00  0.00    -0.064 SA
ENDBRANCH  11  16
ENDBRANCH   9  11
ENDBRANCH   5   9
BRANCH   6  23
HETATM   23  C8  UNL     1       4.874  -5.886  -0.965  1.00  0.00     0.144 C 
HETATM   24  C9  UNL     1       4.278  -7.130  -0.293  1.00  0.00     0.059 C 
HETATM   25 CL3  UNL     1       4.943  -4.514   0.116  1.00  0.00    -0.093 Cl
BRANCH  23  26
HETATM   26  C10 UNL     1       4.144  -5.652  -2.227  1.00  0.00     0.054 C 
BRANCH  26  27
HETATM   27  C11 UNL     1       3.002  -6.505  -2.581  1.00  0.00    -0.011 C 
HETATM   28  C12 UNL     1       3.010  -7.207  -3.886  1.00  0.00     0.005 C 
HETATM   29  C13 UNL     1       1.582  -7.395  -4.438  1.00  0.00     0.000 C 
HETATM   30  C14 UNL     1       0.627  -7.693  -3.327  1.00  0.00     0.000 C 
HETATM   31  C15 UNL     1       0.499  -6.412  -2.497  1.00  0.00     0.000 C 
HETATM   32  C16 UNL     1       1.762  -5.589  -2.581  1.00  0.00     0.005 C 
ENDBRANCH  26  27
ENDBRANCH  23  26
ENDBRANCH   6  23
TORSDOF 7
ENDMDL
