MODEL 1
REMARK VINA RESULT: -9.628964962      0.000      0.000
REMARK  6 active torsions:
REMARK  status: ('A' for Active; 'I' for Inactive)
REMARK    1  A    between atoms: C2_2  and  C4_4 
REMARK    2  A    between atoms: C7_9  and  C8_10 
REMARK    3  A    between atoms: C10_12  and  N2_13 
REMARK    4  A    between atoms: C13_16  and  N3_17 
REMARK    5  A    between atoms: C21_25  and  C22_26 
REMARK    6  A    between atoms: C23_30  and  O1_31 
ROOT
HETATM    1  C8  UNL     1       3.015 -12.831  -3.860  1.00  0.00     0.044 A 
HETATM    2  C9  UNL     1       3.847 -11.703  -3.745  1.00  0.00     0.047 A 
HETATM    3  C10 UNL     1       3.383 -10.436  -4.016  1.00  0.00     0.032 A 
HETATM    4  C20 UNL     1       2.091 -10.256  -4.405  1.00  0.00     0.048 A 
HETATM    5  C21 UNL     1       1.260 -11.308  -4.529  1.00  0.00     0.084 A 
HETATM    6  C23 UNL     1       1.722 -12.619  -4.254  1.00  0.00     0.094 A 
ENDROOT
BRANCH   1   7
HETATM    7  C7  UNL     1       3.568 -14.145  -3.561  1.00  0.00     0.119 A 
HETATM    8  N1  UNL     1       2.924 -15.341  -3.708  1.00  0.00    -0.339 N 
HETATM    9  C6  UNL     1       3.760 -16.363  -3.327  1.00  0.00     0.069 A 
ATOM     10  H1  UNL     1       1.970 -15.458  -4.049  1.00  0.00     0.167 HD
HETATM   11  C5  UNL     1       3.723 -17.709  -3.241  1.00  0.00     0.047 A 
HETATM   12  C24 UNL     1       4.913 -15.741  -2.952  1.00  0.00     0.103 A 
HETATM   13  C4  UNL     1       4.851 -18.335  -2.782  1.00  0.00    -0.010 A 
HETATM   14  S1  UNL     1       5.917 -17.041  -2.490  1.00  0.00    -0.074 SA
HETATM   15  N4  UNL     1       4.785 -14.393  -3.099  1.00  0.00    -0.334 N 
ATOM     16  H4  UNL     1       5.500 -13.697  -2.889  1.00  0.00     0.168 HD
BRANCH  13  17
HETATM   17  C2  UNL     1       5.081 -19.814  -2.585  1.00  0.00     0.018 C 
HETATM   18  C1  UNL     1       3.803 -20.508  -2.175  1.00  0.00     0.015 C 
HETATM   19  C3  UNL     1       5.564 -20.394  -3.874  1.00  0.00     0.015 C 
ENDBRANCH  13  17
ENDBRANCH   1   7
BRANCH   6  20
HETATM   20  O1  UNL     1       0.834 -13.631  -4.398  1.00  0.00    -0.359 OA
ATOM     21  H1  UNL     1      -0.090 -13.477  -4.559  1.00  0.00     0.217 HD
ENDBRANCH   6  20
BRANCH   3  22
HETATM   22  N2  UNL     1       4.230  -9.298  -3.898  1.00  0.00    -0.379 N 
HETATM   23  C11 UNL     1       3.994  -7.989  -4.486  1.00  0.00     0.125 C 
HETATM   24  C12 UNL     1       5.313  -7.318  -4.352  1.00  0.00     0.046 C 
HETATM   25  C13 UNL     1       5.894  -7.843  -3.064  1.00  0.00     0.103 C 
HETATM   26  C19 UNL     1       5.476  -9.297  -3.156  1.00  0.00     0.148 C 
BRANCH  25  27
HETATM   27  N3  UNL     1       5.320  -7.274  -1.894  1.00  0.00    -0.383 N 
HETATM   28  C14 UNL     1       4.312  -6.323  -2.063  1.00  0.00     0.059 C 
HETATM   29  C15 UNL     1       4.686  -5.108  -1.305  1.00  0.00     0.046 C 
HETATM   30  C16 UNL     1       5.452  -5.725  -0.121  1.00  0.00     0.030 C 
HETATM   31  C17 UNL     1       6.204  -6.843  -0.876  1.00  0.00     0.080 C 
HETATM   32  C18 UNL     1       7.501  -6.250  -1.316  1.00  0.00     0.032 C 
ENDBRANCH  25  27
ENDBRANCH   3  22
BRANCH   5  33
HETATM   33  C22 UNL     1      -0.170 -11.140  -4.957  1.00  0.00     0.420 C 
HETATM   34  F1  UNL     1      -0.409 -11.748  -6.163  1.00  0.00    -0.166 F 
HETATM   35  F2  UNL     1      -1.022 -11.619  -3.957  1.00  0.00    -0.166 F 
HETATM   36  F3  UNL     1      -0.416  -9.791  -5.072  1.00  0.00    -0.166 F 
ENDBRANCH   5  33
TORSDOF 6
ENDMDL
MODEL 2
REMARK VINA RESULT: -9.389477963      1.751      2.748
REMARK  6 active torsions:
REMARK  status: ('A' for Active; 'I' for Inactive)
REMARK    1  A    between atoms: C2_2  and  C4_4 
REMARK    2  A    between atoms: C7_9  and  C8_10 
REMARK    3  A    between atoms: C10_12  and  N2_13 
REMARK    4  A    between atoms: C13_16  and  N3_17 
REMARK    5  A    between atoms: C21_25  and  C22_26 
REMARK    6  A    between atoms: C23_30  and  O1_31 
ROOT
HETATM    1  C8  UNL     1       3.408 -10.595  -3.285  1.00  0.00     0.044 A 
HETATM    2  C9  UNL     1       3.978  -9.544  -2.545  1.00  0.00     0.047 A 
HETATM    3  C10 UNL     1       3.516  -8.252  -2.657  1.00  0.00     0.032 A 
HETATM    4  C20 UNL     1       2.484  -7.972  -3.499  1.00  0.00     0.048 A 
HETATM    5  C21 UNL     1       1.909  -8.948  -4.227  1.00  0.00     0.084 A 
HETATM    6  C23 UNL     1       2.373 -10.283  -4.124  1.00  0.00     0.094 A 
ENDROOT
BRANCH   1   7
HETATM    7  C7  UNL     1       3.945 -11.939  -3.124  1.00  0.00     0.119 A 
HETATM    8  N1  UNL     1       3.261 -13.108  -3.309  1.00  0.00    -0.339 N 
HETATM    9  C6  UNL     1       4.094 -14.172  -3.065  1.00  0.00     0.069 A 
ATOM     10  H1  UNL     1       2.282 -13.178  -3.586  1.00  0.00     0.167 HD
HETATM   11  C5  UNL     1       4.026 -15.520  -3.073  1.00  0.00     0.047 A 
HETATM   12  C24 UNL     1       5.287 -13.605  -2.732  1.00  0.00     0.103 A 
HETATM   13  C4  UNL     1       5.167 -16.203  -2.745  1.00  0.00    -0.010 A 
HETATM   14  S1  UNL     1       6.286 -14.957  -2.439  1.00  0.00    -0.074 SA
HETATM   15  N4  UNL     1       5.186 -12.248  -2.771  1.00  0.00    -0.334 N 
ATOM     16  H4  UNL     1       5.932 -11.585  -2.564  1.00  0.00     0.168 HD
BRANCH  13  17
HETATM   17  C2  UNL     1       5.371 -17.696  -2.673  1.00  0.00     0.018 C 
HETATM   18  C1  UNL     1       4.236 -18.359  -1.927  1.00  0.00     0.015 C 
HETATM   19  C3  UNL     1       5.426 -18.236  -4.065  1.00  0.00     0.015 C 
ENDBRANCH  13  17
ENDBRANCH   1   7
BRANCH   6  20
HETATM   20  O1  UNL     1       1.751 -11.215  -4.883  1.00  0.00    -0.359 OA
ATOM     21  H1  UNL     1       1.769 -12.141  -4.668  1.00  0.00     0.217 HD
ENDBRANCH   6  20
BRANCH   3  22
HETATM   22  N2  UNL     1       4.096  -7.192  -1.905  1.00  0.00    -0.379 N 
HETATM   23  C11 UNL     1       3.827  -6.884  -0.509  1.00  0.00     0.125 C 
HETATM   24  C12 UNL     1       4.402  -5.523  -0.350  1.00  0.00     0.046 C 
HETATM   25  C13 UNL     1       5.606  -5.493  -1.257  1.00  0.00     0.103 C 
HETATM   26  C19 UNL     1       5.058  -6.254  -2.450  1.00  0.00     0.148 C 
BRANCH  25  27
HETATM   27  N3  UNL     1       6.734  -6.191  -0.747  1.00  0.00    -0.383 N 
HETATM   28  C14 UNL     1       6.949  -6.159   0.631  1.00  0.00     0.059 C 
HETATM   29  C15 UNL     1       8.333  -5.694   0.876  1.00  0.00     0.046 C 
HETATM   30  C16 UNL     1       9.058  -6.270  -0.353  1.00  0.00     0.030 C 
HETATM   31  C17 UNL     1       7.968  -6.014  -1.418  1.00  0.00     0.080 C 
HETATM   32  C18 UNL     1       8.244  -4.658  -1.978  1.00  0.00     0.032 C 
ENDBRANCH  25  27
ENDBRANCH   3  22
BRANCH   5  33
HETATM   33  C22 UNL     1       0.769  -8.669  -5.165  1.00  0.00     0.420 C 
HETATM   34  F1  UNL     1       1.095  -8.983  -6.459  1.00  0.00    -0.166 F 
HETATM   35  F2  UNL     1      -0.373  -9.352  -4.736  1.00  0.00    -0.166 F 
HETATM   36  F3  UNL     1       0.480  -7.326  -5.082  1.00  0.00    -0.166 F 
ENDBRANCH   5  33
TORSDOF 6
ENDMDL
MODEL 3
REMARK VINA RESULT: -9.353807072      3.289      9.002
REMARK  6 active torsions:
REMARK  status: ('A' for Active; 'I' for Inactive)
REMARK    1  A    between atoms: C2_2  and  C4_4 
REMARK    2  A    between atoms: C7_9  and  C8_10 
REMARK    3  A    between atoms: C10_12  and  N2_13 
REMARK    4  A    between atoms: C13_16  and  N3_17 
REMARK    5  A    between atoms: C21_25  and  C22_26 
REMARK    6  A    between atoms: C23_30  and  O1_31 
ROOT
HETATM    1  C8  UNL     1       3.405  -8.130  -2.842  1.00  0.00     0.044 A 
HETATM    2  C9  UNL     1       3.542  -9.520  -2.674  1.00  0.00     0.047 A 
HETATM    3  C10 UNL     1       2.608 -10.401  -3.170  1.00  0.00     0.032 A 
HETATM    4  C20 UNL     1       1.521  -9.929  -3.840  1.00  0.00     0.048 A 
HETATM    5  C21 UNL     1       1.350  -8.606  -4.024  1.00  0.00     0.084 A 
HETATM    6  C23 UNL     1       2.302  -7.686  -3.519  1.00  0.00     0.094 A 
ENDROOT
BRANCH   1   7
HETATM    7  C7  UNL     1       4.428  -7.252  -2.290  1.00  0.00     0.119 A 
HETATM    8  N1  UNL     1       4.214  -6.194  -1.452  1.00  0.00    -0.339 N 
HETATM    9  C6  UNL     1       5.414  -5.603  -1.142  1.00  0.00     0.069 A 
ATOM     10  H1  UNL     1       3.303  -5.891  -1.108  1.00  0.00     0.167 HD
HETATM   11  C5  UNL     1       5.859  -4.567  -0.401  1.00  0.00     0.047 A 
HETATM   12  C24 UNL     1       6.343  -6.336  -1.817  1.00  0.00     0.103 A 
HETATM   13  C4  UNL     1       7.210  -4.342  -0.392  1.00  0.00    -0.010 A 
HETATM   14  S1  UNL     1       7.811  -5.570  -1.406  1.00  0.00    -0.074 SA
HETATM   15  N4  UNL     1       5.732  -7.337  -2.512  1.00  0.00    -0.334 N 
ATOM     16  H4  UNL     1       6.197  -8.028  -3.099  1.00  0.00     0.168 HD
BRANCH  13  17
HETATM   17  C2  UNL     1       7.971  -3.264   0.341  1.00  0.00     0.018 C 
HETATM   18  C1  UNL     1       8.039  -1.999  -0.483  1.00  0.00     0.015 C 
HETATM   19  C3  UNL     1       7.267  -2.976   1.626  1.00  0.00     0.015 C 
ENDBRANCH  13  17
ENDBRANCH   1   7
BRANCH   6  20
HETATM   20  O1  UNL     1       2.069  -6.370  -3.739  1.00  0.00    -0.359 OA
ATOM     21  H1  UNL     1       1.200  -5.992  -3.677  1.00  0.00     0.217 HD
ENDBRANCH   6  20
BRANCH   3  22
HETATM   22  N2  UNL     1       2.752 -11.806  -2.997  1.00  0.00    -0.379 N 
HETATM   23  C11 UNL     1       2.352 -12.832  -3.946  1.00  0.00     0.125 C 
HETATM   24  C12 UNL     1       2.401 -14.076  -3.136  1.00  0.00     0.046 C 
HETATM   25  C13 UNL     1       3.540 -13.874  -2.170  1.00  0.00     0.103 C 
HETATM   26  C19 UNL     1       3.332 -12.415  -1.816  1.00  0.00     0.148 C 
BRANCH  25  27
HETATM   27  N3  UNL     1       4.828 -14.027  -2.752  1.00  0.00    -0.383 N 
HETATM   28  C14 UNL     1       5.231 -15.315  -3.107  1.00  0.00     0.059 C 
HETATM   29  C15 UNL     1       6.543 -15.582  -2.476  1.00  0.00     0.046 C 
HETATM   30  C16 UNL     1       7.166 -14.174  -2.484  1.00  0.00     0.030 C 
HETATM   31  C17 UNL     1       5.907 -13.351  -2.133  1.00  0.00     0.080 C 
HETATM   32  C18 UNL     1       5.877 -13.252  -0.644  1.00  0.00     0.032 C 
ENDBRANCH  25  27
ENDBRANCH   3  22
BRANCH   5  33
HETATM   33  C22 UNL     1       0.161  -8.056  -4.758  1.00  0.00     0.420 C 
HETATM   34  F1  UNL     1      -0.440  -7.043  -4.057  1.00  0.00    -0.166 F 
HETATM   35  F2  UNL     1       0.545  -7.646  -6.038  1.00  0.00    -0.166 F 
HETATM   36  F3  UNL     1      -0.737  -9.086  -4.927  1.00  0.00    -0.166 F 
ENDBRANCH   5  33
TORSDOF 6
ENDMDL
MODEL 4
REMARK VINA RESULT: -9.173591424      3.428      8.898
REMARK  6 active torsions:
REMARK  status: ('A' for Active; 'I' for Inactive)
REMARK    1  A    between atoms: C2_2  and  C4_4 
REMARK    2  A    between atoms: C7_9  and  C8_10 
REMARK    3  A    between atoms: C10_12  and  N2_13 
REMARK    4  A    between atoms: C13_16  and  N3_17 
REMARK    5  A    between atoms: C21_25  and  C22_26 
REMARK    6  A    between atoms: C23_30  and  O1_31 
ROOT
HETATM    1  C8  UNL     1       3.324  -8.092  -2.825  1.00  0.00     0.044 A 
HETATM    2  C9  UNL     1       3.489  -9.475  -2.623  1.00  0.00     0.047 A 
HETATM    3  C10 UNL     1       2.585 -10.387  -3.115  1.00  0.00     0.032 A 
HETATM    4  C20 UNL     1       1.501  -9.956  -3.816  1.00  0.00     0.048 A 
HETATM    5  C21 UNL     1       1.303  -8.642  -4.033  1.00  0.00     0.084 A 
HETATM    6  C23 UNL     1       2.225  -7.689  -3.533  1.00  0.00     0.094 A 
ENDROOT
BRANCH   1   7
HETATM    7  C7  UNL     1       4.316  -7.179  -2.276  1.00  0.00     0.119 A 
HETATM    8  N1  UNL     1       5.654  -7.183  -2.551  1.00  0.00    -0.339 N 
HETATM    9  C6  UNL     1       6.272  -6.177  -1.849  1.00  0.00     0.069 A 
ATOM     10  H1  UNL     1       6.123  -7.833  -3.181  1.00  0.00     0.167 HD
HETATM   11  C5  UNL     1       7.517  -5.681  -1.694  1.00  0.00     0.047 A 
HETATM   12  C24 UNL     1       5.266  -5.577  -1.152  1.00  0.00     0.103 A 
HETATM   13  C4  UNL     1       7.662  -4.615  -0.846  1.00  0.00    -0.010 A 
HETATM   14  S1  UNL     1       6.074  -4.340  -0.299  1.00  0.00    -0.074 SA
HETATM   15  N4  UNL     1       4.081  -6.194  -1.419  1.00  0.00    -0.334 N 
ATOM     16  H4  UNL     1       3.174  -5.943  -1.028  1.00  0.00     0.168 HD
BRANCH  13  17
HETATM   17  C2  UNL     1       8.927  -3.874  -0.489  1.00  0.00     0.018 C 
HETATM   18  C1  UNL     1      10.002  -4.113  -1.525  1.00  0.00     0.015 C 
HETATM   19  C3  UNL     1       8.620  -2.413  -0.428  1.00  0.00     0.015 C 
ENDBRANCH  13  17
ENDBRANCH   1   7
BRANCH   6  20
HETATM   20  O1  UNL     1       1.966  -6.385  -3.787  1.00  0.00    -0.359 OA
ATOM     21  H1  UNL     1       1.114  -5.995  -3.626  1.00  0.00     0.217 HD
ENDBRANCH   6  20
BRANCH   3  22
HETATM   22  N2  UNL     1       2.758 -11.785  -2.907  1.00  0.00    -0.379 N 
HETATM   23  C11 UNL     1       2.331 -12.845  -3.807  1.00  0.00     0.125 C 
HETATM   24  C12 UNL     1       2.434 -14.063  -2.963  1.00  0.00     0.046 C 
HETATM   25  C13 UNL     1       3.612 -13.816  -2.054  1.00  0.00     0.103 C 
HETATM   26  C19 UNL     1       3.398 -12.349  -1.735  1.00  0.00     0.148 C 
BRANCH  25  27
HETATM   27  N3  UNL     1       4.875 -13.968  -2.688  1.00  0.00    -0.383 N 
HETATM   28  C14 UNL     1       5.234 -15.246  -3.120  1.00  0.00     0.059 C 
HETATM   29  C15 UNL     1       6.560 -15.575  -2.550  1.00  0.00     0.046 C 
HETATM   30  C16 UNL     1       7.217 -14.183  -2.510  1.00  0.00     0.030 C 
HETATM   31  C17 UNL     1       5.991 -13.350  -2.074  1.00  0.00     0.080 C 
HETATM   32  C18 UNL     1       6.014 -13.326  -0.582  1.00  0.00     0.032 C 
ENDBRANCH  25  27
ENDBRANCH   3  22
BRANCH   5  33
HETATM   33  C22 UNL     1       0.116  -8.137  -4.802  1.00  0.00     0.420 C 
HETATM   34  F1  UNL     1      -0.515  -7.115  -4.141  1.00  0.00    -0.166 F 
HETATM   35  F2  UNL     1       0.513  -7.757  -6.088  1.00  0.00    -0.166 F 
HETATM   36  F3  UNL     1      -0.760  -9.189  -4.955  1.00  0.00    -0.166 F 
ENDBRANCH   5  33
TORSDOF 6
ENDMDL
MODEL 5
REMARK VINA RESULT: -9.031180191      4.307      9.993
REMARK  6 active torsions:
REMARK  status: ('A' for Active; 'I' for Inactive)
REMARK    1  A    between atoms: C2_2  and  C4_4 
REMARK    2  A    between atoms: C7_9  and  C8_10 
REMARK    3  A    between atoms: C10_12  and  N2_13 
REMARK    4  A    between atoms: C13_16  and  N3_17 
REMARK    5  A    between atoms: C21_25  and  C22_26 
REMARK    6  A    between atoms: C23_30  and  O1_31 
ROOT
HETATM    1  C8  UNL     1       4.156  -6.222  -1.568  1.00  0.00     0.044 A 
HETATM    2  C9  UNL     1       4.737  -7.316  -2.234  1.00  0.00     0.047 A 
HETATM    3  C10 UNL     1       3.990  -8.153  -3.031  1.00  0.00     0.032 A 
HETATM    4  C20 UNL     1       2.657  -7.928  -3.188  1.00  0.00     0.048 A 
HETATM    5  C21 UNL     1       2.059  -6.892  -2.568  1.00  0.00     0.084 A 
HETATM    6  C23 UNL     1       2.814  -6.022  -1.743  1.00  0.00     0.094 A 
ENDROOT
BRANCH   1   7
HETATM    7  C7  UNL     1       5.001  -5.377  -0.736  1.00  0.00     0.119 A 
HETATM    8  N1  UNL     1       4.578  -4.563   0.277  1.00  0.00    -0.339 N 
HETATM    9  C6  UNL     1       5.658  -3.921   0.832  1.00  0.00     0.069 A 
ATOM     10  H1  UNL     1       3.609  -4.450   0.575  1.00  0.00     0.167 HD
HETATM   11  C5  UNL     1       5.896  -3.031   1.818  1.00  0.00     0.047 A 
HETATM   12  C24 UNL     1       6.729  -4.374   0.124  1.00  0.00     0.103 A 
HETATM   13  C4  UNL     1       7.198  -2.660   2.021  1.00  0.00    -0.010 A 
HETATM   14  S1  UNL     1       8.041  -3.555   0.844  1.00  0.00    -0.074 SA
HETATM   15  N4  UNL     1       6.319  -5.259  -0.827  1.00  0.00    -0.334 N 
ATOM     16  H4  UNL     1       6.919  -5.745  -1.493  1.00  0.00     0.168 HD
BRANCH  13  17
HETATM   17  C2  UNL     1       7.743  -1.691   3.042  1.00  0.00     0.018 C 
HETATM   18  C1  UNL     1       7.180  -0.305   2.823  1.00  0.00     0.015 C 
HETATM   19  C3  UNL     1       7.358  -2.169   4.404  1.00  0.00     0.015 C 
ENDBRANCH  13  17
ENDBRANCH   1   7
BRANCH   6  20
HETATM   20  O1  UNL     1       2.151  -5.001  -1.151  1.00  0.00    -0.359 OA
ATOM     21  H1  UNL     1       1.284  -5.108  -0.777  1.00  0.00     0.217 HD
ENDBRANCH   6  20
BRANCH   3  22
HETATM   22  N2  UNL     1       4.584  -9.258  -3.703  1.00  0.00    -0.379 N 
HETATM   23  C11 UNL     1       5.763  -9.212  -4.553  1.00  0.00     0.125 C 
HETATM   24  C12 UNL     1       5.726 -10.523  -5.250  1.00  0.00     0.046 C 
HETATM   25  C13 UNL     1       5.147 -11.488  -4.247  1.00  0.00     0.103 C 
HETATM   26  C19 UNL     1       4.074 -10.613  -3.626  1.00  0.00     0.148 C 
BRANCH  25  27
HETATM   27  N3  UNL     1       6.058 -11.886  -3.231  1.00  0.00    -0.383 N 
HETATM   28  C14 UNL     1       7.379 -12.134  -3.606  1.00  0.00     0.059 C 
HETATM   29  C15 UNL     1       7.753 -13.485  -3.128  1.00  0.00     0.046 C 
HETATM   30  C16 UNL     1       6.922 -13.579  -1.836  1.00  0.00     0.030 C 
HETATM   31  C17 UNL     1       5.631 -12.888  -2.327  1.00  0.00     0.080 C 
HETATM   32  C18 UNL     1       4.764 -13.970  -2.880  1.00  0.00     0.032 C 
ENDBRANCH  25  27
ENDBRANCH   3  22
BRANCH   5  33
HETATM   33  C22 UNL     1       0.590  -6.620  -2.721  1.00  0.00     0.420 C 
HETATM   34  F1  UNL     1      -0.091  -6.865  -1.557  1.00  0.00    -0.166 F 
HETATM   35  F2  UNL     1       0.397  -5.310  -3.170  1.00  0.00    -0.166 F 
HETATM   36  F3  UNL     1       0.113  -7.450  -3.710  1.00  0.00    -0.166 F 
ENDBRANCH   5  33
TORSDOF 6
ENDMDL
