MODEL 1
REMARK VINA RESULT: -5.933659237      0.000      0.000
REMARK  6 active torsions:
REMARK  status: ('A' for Active; 'I' for Inactive)
REMARK    1  A    between atoms: C1_4  and  N2_5 
REMARK    2  A    between atoms: C1_4  and  C2_10 
REMARK    3  A    between atoms: N2_5  and  N3_7 
REMARK    4  A    between atoms: C2_10  and  N4_11 
REMARK    5  A    between atoms: C2_10  and  C3_15 
REMARK       I    between atoms: C3_15  and  N5_17 
REMARK    6  A    between atoms: N5_17  and  C4_19 
ROOT
HETATM    1  C2  UNL     1     -26.729   1.591  28.293  1.00  0.00     0.343 C 
ENDROOT
BRANCH   1   2
HETATM    2  C1  UNL     1     -26.695   0.382  27.465  1.00  0.00     0.129 C 
HETATM    3  N1  UNL     1     -27.784  -0.135  26.970  1.00  0.00    -0.386 N 
ATOM      4  H12 UNL     1     -27.760  -0.976  26.394  1.00  0.00     0.157 HD
ATOM      5  H11 UNL     1     -28.664   0.336  27.181  1.00  0.00     0.157 HD
BRANCH   2   6
HETATM    6  N2  UNL     1     -25.463  -0.276  27.171  1.00  0.00    -0.294 N 
ATOM      7  H2  UNL     1     -24.591   0.145  27.491  1.00  0.00     0.187 HD
BRANCH   6   8
HETATM    8  N3  UNL     1     -25.411  -1.478  26.457  1.00  0.00    -0.344 N 
ATOM      9  H32 UNL     1     -26.195  -2.124  26.555  1.00  0.00     0.176 HD
ATOM     10  H31 UNL     1     -24.625  -1.719  25.854  1.00  0.00     0.176 HD
ENDBRANCH   6   8
ENDBRANCH   2   6
ENDBRANCH   1   2
BRANCH   1  11
HETATM   11  N4  UNL     1     -28.031   2.216  28.254  1.00  0.00    -0.059 N 
ATOM     12  H43 UNL     1     -27.971   3.219  28.429  1.00  0.00     0.275 HD
ATOM     13  H42 UNL     1     -28.405   2.245  27.305  1.00  0.00     0.275 HD
ATOM     14  H41 UNL     1     -28.678   1.762  28.898  1.00  0.00     0.275 HD
ENDBRANCH   1  11
BRANCH   1  15
HETATM   15  C3  UNL     1     -25.646   2.525  27.866  1.00  0.00     0.274 C 
HETATM   16  O1  UNL     1     -24.568   2.611  28.511  1.00  0.00    -0.270 OA
HETATM   17  N5  UNL     1     -25.887   3.303  26.713  1.00  0.00    -0.155 N 
ATOM     18  H5  UNL     1     -26.445   2.883  25.970  1.00  0.00     0.187 HD
BRANCH  17  19
HETATM   19  C4  UNL     1     -25.461   4.490  26.528  1.00  0.00     0.716 A 
HETATM   20  N6  UNL     1     -24.978   5.265  27.515  1.00  0.00    -0.115 N 
HETATM   21  N7  UNL     1     -24.617   6.424  27.037  1.00  0.00    -0.213 N 
ATOM     22  H6  UNL     1     -24.905   4.988  28.494  1.00  0.00     0.207 HD
HETATM   23  N8  UNL     1     -24.865   6.402  25.742  1.00  0.00    -0.213 N 
ATOM     24  H7  UNL     1     -24.218   7.201  27.565  1.00  0.00     0.210 HD
HETATM   25  N9  UNL     1     -25.380   5.232  25.413  1.00  0.00    -0.115 N 
ATOM     26  H8  UNL     1     -24.688   7.170  25.095  1.00  0.00     0.210 HD
ATOM     27  H9  UNL     1     -25.664   4.943  24.477  1.00  0.00     0.207 HD
ENDBRANCH  17  19
ENDBRANCH   1  15
TORSDOF 6
ENDMDL
MODEL 2
REMARK VINA RESULT: -5.897369034      1.574      2.284
REMARK  6 active torsions:
REMARK  status: ('A' for Active; 'I' for Inactive)
REMARK    1  A    between atoms: C1_4  and  N2_5 
REMARK    2  A    between atoms: C1_4  and  C2_10 
REMARK    3  A    between atoms: N2_5  and  N3_7 
REMARK    4  A    between atoms: C2_10  and  N4_11 
REMARK    5  A    between atoms: C2_10  and  C3_15 
REMARK       I    between atoms: C3_15  and  N5_17 
REMARK    6  A    between atoms: N5_17  and  C4_19 
ROOT
HETATM    1  C2  UNL     1     -27.244  -0.214  26.744  1.00  0.00     0.343 C 
ENDROOT
BRANCH   1   2
HETATM    2  C1  UNL     1     -26.468  -1.456  26.695  1.00  0.00     0.129 C 
HETATM    3  N1  UNL     1     -25.181  -1.447  26.488  1.00  0.00    -0.386 N 
ATOM      4  H12 UNL     1     -24.640  -2.312  26.454  1.00  0.00     0.157 HD
ATOM      5  H11 UNL     1     -24.732  -0.540  26.362  1.00  0.00     0.157 HD
BRANCH   2   6
HETATM    6  N2  UNL     1     -27.096  -2.726  26.871  1.00  0.00    -0.294 N 
ATOM      7  H2  UNL     1     -28.111  -2.766  26.952  1.00  0.00     0.187 HD
BRANCH   6   8
HETATM    8  N3  UNL     1     -26.364  -3.917  26.937  1.00  0.00    -0.344 N 
ATOM      9  H32 UNL     1     -25.347  -3.855  26.886  1.00  0.00     0.176 HD
ATOM     10  H31 UNL     1     -26.815  -4.827  27.033  1.00  0.00     0.176 HD
ENDBRANCH   6   8
ENDBRANCH   2   6
ENDBRANCH   1   2
BRANCH   1  11
HETATM   11  N4  UNL     1     -27.825   0.092  25.457  1.00  0.00    -0.059 N 
ATOM     12  H43 UNL     1     -27.564  -0.599  24.755  1.00  0.00     0.275 HD
ATOM     13  H42 UNL     1     -28.833  -0.056  25.456  1.00  0.00     0.275 HD
ATOM     14  H41 UNL     1     -27.585   1.038  25.159  1.00  0.00     0.275 HD
ENDBRANCH   1  11
BRANCH   1  15
HETATM   15  C3  UNL     1     -26.386   0.897  27.251  1.00  0.00     0.274 C 
HETATM   16  O1  UNL     1     -25.911   0.875  28.416  1.00  0.00    -0.270 OA
HETATM   17  N5  UNL     1     -26.135   1.968  26.366  1.00  0.00    -0.155 N 
ATOM     18  H5  UNL     1     -26.058   1.750  25.372  1.00  0.00     0.187 HD
BRANCH  17  19
HETATM   19  C4  UNL     1     -25.996   3.188  26.712  1.00  0.00     0.716 A 
HETATM   20  N6  UNL     1     -25.044   3.613  27.560  1.00  0.00    -0.115 N 
HETATM   21  N7  UNL     1     -25.139   4.902  27.731  1.00  0.00    -0.213 N 
ATOM     22  H6  UNL     1     -24.347   3.014  28.005  1.00  0.00     0.207 HD
HETATM   23  N8  UNL     1     -26.154   5.314  26.995  1.00  0.00    -0.213 N 
ATOM     24  H7  UNL     1     -24.543   5.482  28.321  1.00  0.00     0.210 HD
HETATM   25  N9  UNL     1     -26.688   4.284  26.367  1.00  0.00    -0.115 N 
ATOM     26  H8  UNL     1     -26.475   6.279  26.923  1.00  0.00     0.210 HD
ATOM     27  H9  UNL     1     -27.486   4.315  25.731  1.00  0.00     0.207 HD
ENDBRANCH  17  19
ENDBRANCH   1  15
TORSDOF 6
ENDMDL
MODEL 3
REMARK VINA RESULT: -5.873428732      1.622      5.595
REMARK  6 active torsions:
REMARK  status: ('A' for Active; 'I' for Inactive)
REMARK    1  A    between atoms: C1_4  and  N2_5 
REMARK    2  A    between atoms: C1_4  and  C2_10 
REMARK    3  A    between atoms: N2_5  and  N3_7 
REMARK    4  A    between atoms: C2_10  and  N4_11 
REMARK    5  A    between atoms: C2_10  and  C3_15 
REMARK       I    between atoms: C3_15  and  N5_17 
REMARK    6  A    between atoms: N5_17  and  C4_19 
ROOT
HETATM    1  C2  UNL     1     -25.901   2.512  28.213  1.00  0.00     0.343 C 
ENDROOT
BRANCH   1   2
HETATM    2  C1  UNL     1     -26.116   3.561  27.213  1.00  0.00     0.129 C 
HETATM    3  N1  UNL     1     -27.307   3.841  26.764  1.00  0.00    -0.386 N 
ATOM      4  H12 UNL     1     -27.457   4.571  26.067  1.00  0.00     0.157 HD
ATOM      5  H11 UNL     1     -28.087   3.300  27.137  1.00  0.00     0.157 HD
BRANCH   2   6
HETATM    6  N2  UNL     1     -25.023   4.317  26.690  1.00  0.00    -0.294 N 
ATOM      7  H2  UNL     1     -24.324   3.843  26.119  1.00  0.00     0.187 HD
BRANCH   6   8
HETATM    8  N3  UNL     1     -24.880   5.687  26.936  1.00  0.00    -0.344 N 
ATOM      9  H32 UNL     1     -25.636   6.166  27.425  1.00  0.00     0.176 HD
ATOM     10  H31 UNL     1     -24.053   6.208  26.643  1.00  0.00     0.176 HD
ENDBRANCH   6   8
ENDBRANCH   2   6
ENDBRANCH   1   2
BRANCH   1  11
HETATM   11  N4  UNL     1     -24.492   2.263  28.416  1.00  0.00    -0.059 N 
ATOM     12  H43 UNL     1     -24.337   1.534  29.112  1.00  0.00     0.275 HD
ATOM     13  H42 UNL     1     -24.073   1.801  27.609  1.00  0.00     0.275 HD
ATOM     14  H41 UNL     1     -23.996   3.121  28.656  1.00  0.00     0.275 HD
ENDBRANCH   1  11
BRANCH   1  15
HETATM   15  C3  UNL     1     -26.638   1.277  27.816  1.00  0.00     0.274 C 
HETATM   16  O1  UNL     1     -27.663   0.900  28.441  1.00  0.00    -0.270 OA
HETATM   17  N5  UNL     1     -26.133   0.556  26.712  1.00  0.00    -0.155 N 
ATOM     18  H5  UNL     1     -25.700   1.090  25.959  1.00  0.00     0.187 HD
BRANCH  17  19
HETATM   19  C4  UNL     1     -26.176  -0.711  26.583  1.00  0.00     0.716 A 
HETATM   20  N6  UNL     1     -27.316  -1.422  26.629  1.00  0.00    -0.115 N 
HETATM   21  N7  UNL     1     -27.060  -2.690  26.469  1.00  0.00    -0.213 N 
ATOM     22  H6  UNL     1     -28.247  -1.026  26.769  1.00  0.00     0.207 HD
HETATM   23  N8  UNL     1     -25.755  -2.804  26.320  1.00  0.00    -0.213 N 
ATOM     24  H7  UNL     1     -27.740  -3.450  26.460  1.00  0.00     0.210 HD
HETATM   25  N9  UNL     1     -25.199  -1.609  26.387  1.00  0.00    -0.115 N 
ATOM     26  H8  UNL     1     -25.253  -3.680  26.175  1.00  0.00     0.210 HD
ATOM     27  H9  UNL     1     -24.203  -1.405  26.303  1.00  0.00     0.207 HD
ENDBRANCH  17  19
ENDBRANCH   1  15
TORSDOF 6
ENDMDL
MODEL 4
REMARK VINA RESULT: -5.872493703      1.526      2.281
REMARK  6 active torsions:
REMARK  status: ('A' for Active; 'I' for Inactive)
REMARK    1  A    between atoms: C1_4  and  N2_5 
REMARK    2  A    between atoms: C1_4  and  C2_10 
REMARK    3  A    between atoms: N2_5  and  N3_7 
REMARK    4  A    between atoms: C2_10  and  N4_11 
REMARK    5  A    between atoms: C2_10  and  C3_15 
REMARK       I    between atoms: C3_15  and  N5_17 
REMARK    6  A    between atoms: N5_17  and  C4_19 
ROOT
HETATM    1  C2  UNL     1     -27.058  -0.156  27.133  1.00  0.00     0.343 C 
ENDROOT
BRANCH   1   2
HETATM    2  C1  UNL     1     -26.237  -0.920  26.190  1.00  0.00     0.129 C 
HETATM    3  N1  UNL     1     -25.135  -1.506  26.565  1.00  0.00    -0.386 N 
ATOM      4  H12 UNL     1     -24.563  -2.038  25.908  1.00  0.00     0.157 HD
ATOM      5  H11 UNL     1     -24.864  -1.413  27.544  1.00  0.00     0.157 HD
BRANCH   2   6
HETATM    6  N2  UNL     1     -26.615  -1.050  24.819  1.00  0.00    -0.294 N 
ATOM      7  H2  UNL     1     -27.260  -1.794  24.554  1.00  0.00     0.187 HD
BRANCH   6   8
HETATM    8  N3  UNL     1     -26.132  -0.189  23.827  1.00  0.00    -0.344 N 
ATOM      9  H32 UNL     1     -25.598  -0.598  23.061  1.00  0.00     0.176 HD
ATOM     10  H31 UNL     1     -26.299   0.817  23.852  1.00  0.00     0.176 HD
ENDBRANCH   6   8
ENDBRANCH   2   6
ENDBRANCH   1   2
BRANCH   1  11
HETATM   11  N4  UNL     1     -28.328   0.206  26.548  1.00  0.00    -0.059 N 
ATOM     12  H43 UNL     1     -28.285   1.117  26.094  1.00  0.00     0.275 HD
ATOM     13  H42 UNL     1     -28.541  -0.366  25.731  1.00  0.00     0.275 HD
ATOM     14  H41 UNL     1     -29.078   0.166  27.238  1.00  0.00     0.275 HD
ENDBRANCH   1  11
BRANCH   1  15
HETATM   15  C3  UNL     1     -26.299   1.038  27.610  1.00  0.00     0.274 C 
HETATM   16  O1  UNL     1     -25.958   1.154  28.816  1.00  0.00    -0.270 OA
HETATM   17  N5  UNL     1     -25.986   2.024  26.649  1.00  0.00    -0.155 N 
ATOM     18  H5  UNL     1     -25.791   1.710  25.699  1.00  0.00     0.187 HD
BRANCH  17  19
HETATM   19  C4  UNL     1     -25.927   3.277  26.878  1.00  0.00     0.716 A 
HETATM   20  N6  UNL     1     -26.811   4.161  26.384  1.00  0.00    -0.115 N 
HETATM   21  N7  UNL     1     -26.507   5.366  26.780  1.00  0.00    -0.213 N 
ATOM     22  H6  UNL     1     -27.604   3.924  25.787  1.00  0.00     0.207 HD
HETATM   23  N8  UNL     1     -25.427   5.265  27.529  1.00  0.00    -0.213 N 
ATOM     24  H7  UNL     1     -27.010   6.224  26.553  1.00  0.00     0.210 HD
HETATM   25  N9  UNL     1     -25.058   3.999  27.601  1.00  0.00    -0.115 N 
ATOM     26  H8  UNL     1     -24.950   6.043  27.983  1.00  0.00     0.210 HD
ATOM     27  H9  UNL     1     -24.256   3.635  28.115  1.00  0.00     0.207 HD
ENDBRANCH  17  19
ENDBRANCH   1  15
TORSDOF 6
ENDMDL
MODEL 5
REMARK VINA RESULT: -5.805382797      0.490      1.348
REMARK  6 active torsions:
REMARK  status: ('A' for Active; 'I' for Inactive)
REMARK    1  A    between atoms: C1_4  and  N2_5 
REMARK    2  A    between atoms: C1_4  and  C2_10 
REMARK    3  A    between atoms: N2_5  and  N3_7 
REMARK    4  A    between atoms: C2_10  and  N4_11 
REMARK    5  A    between atoms: C2_10  and  C3_15 
REMARK       I    between atoms: C3_15  and  N5_17 
REMARK    6  A    between atoms: N5_17  and  C4_19 
ROOT
HETATM    1  C2  UNL     1     -26.711   1.620  28.329  1.00  0.00     0.343 C 
ENDROOT
BRANCH   1   2
HETATM    2  C1  UNL     1     -26.853   0.497  27.398  1.00  0.00     0.129 C 
HETATM    3  N1  UNL     1     -25.824  -0.211  27.025  1.00  0.00    -0.386 N 
ATOM      4  H12 UNL     1     -25.923  -0.993  26.377  1.00  0.00     0.157 HD
ATOM      5  H11 UNL     1     -24.914   0.046  27.407  1.00  0.00     0.157 HD
BRANCH   2   6
HETATM    6  N2  UNL     1     -28.127   0.137  26.865  1.00  0.00    -0.294 N 
ATOM      7  H2  UNL     1     -28.785  -0.368  27.458  1.00  0.00     0.187 HD
BRANCH   6   8
HETATM    8  N3  UNL     1     -28.503   0.455  25.555  1.00  0.00    -0.344 N 
ATOM      9  H32 UNL     1     -28.636  -0.314  24.898  1.00  0.00     0.176 HD
ATOM     10  H31 UNL     1     -28.645   1.417  25.248  1.00  0.00     0.176 HD
ENDBRANCH   6   8
ENDBRANCH   2   6
ENDBRANCH   1   2
BRANCH   1  11
HETATM   11  N4  UNL     1     -27.968   2.310  28.511  1.00  0.00    -0.059 N 
ATOM     12  H43 UNL     1     -27.834   3.318  28.587  1.00  0.00     0.275 HD
ATOM     13  H42 UNL     1     -28.533   2.290  27.663  1.00  0.00     0.275 HD
ATOM     14  H41 UNL     1     -28.480   1.940  29.312  1.00  0.00     0.275 HD
ENDBRANCH   1  11
BRANCH   1  15
HETATM   15  C3  UNL     1     -25.632   2.536  27.856  1.00  0.00     0.274 C 
HETATM   16  O1  UNL     1     -24.524   2.598  28.449  1.00  0.00    -0.270 OA
HETATM   17  N5  UNL     1     -25.913   3.324  26.718  1.00  0.00    -0.155 N 
ATOM     18  H5  UNL     1     -26.514   2.918  26.001  1.00  0.00     0.187 HD
BRANCH  17  19
HETATM   19  C4  UNL     1     -25.474   4.504  26.519  1.00  0.00     0.716 A 
HETATM   20  N6  UNL     1     -24.957   5.276  27.490  1.00  0.00    -0.115 N 
HETATM   21  N7  UNL     1     -24.590   6.427  27.000  1.00  0.00    -0.213 N 
ATOM     22  H6  UNL     1     -24.866   5.001  28.469  1.00  0.00     0.207 HD
HETATM   23  N8  UNL     1     -24.868   6.403  25.711  1.00  0.00    -0.213 N 
ATOM     24  H7  UNL     1     -24.168   7.199  27.515  1.00  0.00     0.210 HD
HETATM   25  N9  UNL     1     -25.407   5.239  25.399  1.00  0.00    -0.115 N 
ATOM     26  H8  UNL     1     -24.694   7.165  25.057  1.00  0.00     0.210 HD
ATOM     27  H9  UNL     1     -25.718   4.951  24.471  1.00  0.00     0.207 HD
ENDBRANCH  17  19
ENDBRANCH   1  15
TORSDOF 6
ENDMDL
