MODEL 1
REMARK VINA RESULT: -6.032023851      0.000      0.000
REMARK  6 active torsions:
REMARK  status: ('A' for Active; 'I' for Inactive)
REMARK    1  A    between atoms: N1_2  and  C3_4 
REMARK    2  A    between atoms: C5_10  and  N4_11 
REMARK    3  A    between atoms: N5_14  and  O1_15 
REMARK    4  A    between atoms: N6_18  and  C7_19 
REMARK    5  A    between atoms: C7_19  and  O2_20 
REMARK    6  A    between atoms: O2_20  and  N7_21 
ROOT
HETATM    1  C3  UNL     1     -11.355 -21.388  49.099  1.00  0.00     0.696 A 
HETATM    2  N2  UNL     1     -11.953 -20.204  48.923  1.00  0.00    -0.171 N 
ATOM      3  H2  UNL     1     -11.535 -19.368  49.332  1.00  0.00     0.186 HD
HETATM    4  C4  UNL     1     -13.086 -20.093  48.221  1.00  0.00     0.185 A 
HETATM    5  N3  UNL     1     -13.902 -19.067  47.896  1.00  0.00    -0.170 N 
ATOM      6  H3  UNL     1     -13.763 -18.090  48.156  1.00  0.00     0.186 HD
HETATM    7  C5  UNL     1     -14.922 -19.546  47.178  1.00  0.00     0.706 A 
HETATM    8  N5  UNL     1     -14.798 -20.895  47.016  1.00  0.00    -0.030 N 
HETATM    9  C6  UNL     1     -13.686 -21.296  47.633  1.00  0.00     0.216 A 
HETATM   10  N6  UNL     1     -13.026 -22.437  47.855  1.00  0.00    -0.230 N 
HETATM   11  N8  UNL     1     -11.907 -22.485  48.560  1.00  0.00    -0.126 N 
ATOM     12  H8  UNL     1     -11.449 -23.386  48.698  1.00  0.00     0.206 HD
ENDROOT
BRANCH  10  13
HETATM   13  C7  UNL     1     -13.508 -23.667  47.257  1.00  0.00     0.351 C 
BRANCH  13  14
HETATM   14  O2  UNL     1     -13.453 -23.626  45.871  1.00  0.00    -0.266 OA
BRANCH  14  15
HETATM   15  N7  UNL     1     -14.507 -23.975  45.189  1.00  0.00    -0.309 N 
ATOM     16  H72 UNL     1     -14.763 -24.961  45.128  1.00  0.00     0.184 HD
ATOM     17  H71 UNL     1     -15.057 -23.251  44.727  1.00  0.00     0.184 HD
ENDBRANCH  14  15
ENDBRANCH  13  14
ENDBRANCH  10  13
BRANCH   8  18
HETATM   18  O1  UNL     1     -15.686 -21.706  46.354  1.00  0.00    -0.268 OA
ATOM     19  H1  UNL     1     -16.534 -21.981  46.680  1.00  0.00     0.246 HD
ENDBRANCH   8  18
BRANCH   1  20
HETATM   20  N1  UNL     1     -10.268 -21.419  49.786  1.00  0.00    -0.225 N 
HETATM   21  C1  UNL     1     -10.088 -22.431  50.794  1.00  0.00     0.168 C 
HETATM   22  C2  UNL     1      -9.224 -20.447  49.557  1.00  0.00     0.168 C 
ENDBRANCH   1  20
BRANCH   7  23
HETATM   23  N4  UNL     1     -15.877 -18.841  46.712  1.00  0.00    -0.232 N 
ATOM     24  H42 UNL     1     -16.715 -18.578  47.231  1.00  0.00     0.174 HD
ATOM     25  H41 UNL     1     -15.909 -18.459  45.767  1.00  0.00     0.174 HD
ENDBRANCH   7  23
TORSDOF 6
ENDMDL
MODEL 2
REMARK VINA RESULT: -6.019876171      1.664      1.981
REMARK  6 active torsions:
REMARK  status: ('A' for Active; 'I' for Inactive)
REMARK    1  A    between atoms: N1_2  and  C3_4 
REMARK    2  A    between atoms: C5_10  and  N4_11 
REMARK    3  A    between atoms: N5_14  and  O1_15 
REMARK    4  A    between atoms: N6_18  and  C7_19 
REMARK    5  A    between atoms: C7_19  and  O2_20 
REMARK    6  A    between atoms: O2_20  and  N7_21 
ROOT
HETATM    1  C3  UNL     1     -11.115 -21.547  49.489  1.00  0.00     0.696 A 
HETATM    2  N2  UNL     1     -10.692 -20.504  48.765  1.00  0.00    -0.171 N 
ATOM      3  H2  UNL     1      -9.780 -20.093  48.966  1.00  0.00     0.186 HD
HETATM    4  C4  UNL     1     -11.439 -19.988  47.784  1.00  0.00     0.185 A 
HETATM    5  N3  UNL     1     -11.289 -18.960  46.920  1.00  0.00    -0.170 N 
ATOM      6  H3  UNL     1     -10.479 -18.343  46.862  1.00  0.00     0.186 HD
HETATM    7  C5  UNL     1     -12.382 -18.887  46.154  1.00  0.00     0.706 A 
HETATM    8  N5  UNL     1     -13.271 -19.862  46.497  1.00  0.00    -0.030 N 
HETATM    9  C6  UNL     1     -12.751 -20.578  47.494  1.00  0.00     0.216 A 
HETATM   10  N6  UNL     1     -13.097 -21.617  48.261  1.00  0.00    -0.230 N 
HETATM   11  N8  UNL     1     -12.314 -22.084  49.221  1.00  0.00    -0.126 N 
ATOM     12  H8  UNL     1     -12.634 -22.878  49.775  1.00  0.00     0.206 HD
ENDROOT
BRANCH  10  13
HETATM   13  C7  UNL     1     -14.346 -22.307  48.005  1.00  0.00     0.351 C 
BRANCH  13  14
HETATM   14  O2  UNL     1     -14.326 -22.984  46.794  1.00  0.00    -0.266 OA
BRANCH  14  15
HETATM   15  N7  UNL     1     -15.328 -22.837  45.974  1.00  0.00    -0.309 N 
ATOM     16  H72 UNL     1     -15.554 -21.909  45.616  1.00  0.00     0.184 HD
ATOM     17  H71 UNL     1     -15.869 -23.658  45.706  1.00  0.00     0.184 HD
ENDBRANCH  14  15
ENDBRANCH  13  14
ENDBRANCH  10  13
BRANCH   8  18
HETATM   18  O1  UNL     1     -14.506 -20.055  45.929  1.00  0.00    -0.268 OA
ATOM     19  H1  UNL     1     -15.249 -19.469  46.009  1.00  0.00     0.246 HD
ENDBRANCH   8  18
BRANCH   1  20
HETATM   20  N1  UNL     1     -10.343 -21.990  50.417  1.00  0.00    -0.225 N 
HETATM   21  C1  UNL     1      -9.706 -21.065  51.319  1.00  0.00     0.168 C 
HETATM   22  C2  UNL     1     -10.107 -23.407  50.566  1.00  0.00     0.168 C 
ENDBRANCH   1  20
BRANCH   7  23
HETATM   23  N4  UNL     1     -12.567 -18.023  45.232  1.00  0.00    -0.232 N 
ATOM     24  H42 UNL     1     -13.132 -17.181  45.328  1.00  0.00     0.174 HD
ATOM     25  H41 UNL     1     -12.167 -18.080  44.295  1.00  0.00     0.174 HD
ENDBRANCH   7  23
TORSDOF 6
ENDMDL
MODEL 3
REMARK VINA RESULT: -5.649105585      2.064      3.361
REMARK  6 active torsions:
REMARK  status: ('A' for Active; 'I' for Inactive)
REMARK    1  A    between atoms: N1_2  and  C3_4 
REMARK    2  A    between atoms: C5_10  and  N4_11 
REMARK    3  A    between atoms: N5_14  and  O1_15 
REMARK    4  A    between atoms: N6_18  and  C7_19 
REMARK    5  A    between atoms: C7_19  and  O2_20 
REMARK    6  A    between atoms: O2_20  and  N7_21 
ROOT
HETATM    1  C3  UNL     1     -10.747 -20.105  48.408  1.00  0.00     0.696 A 
HETATM    2  N2  UNL     1     -11.460 -21.221  48.604  1.00  0.00    -0.171 N 
ATOM      3  H2  UNL     1     -11.041 -21.997  49.116  1.00  0.00     0.186 HD
HETATM    4  C4  UNL     1     -12.709 -21.340  48.143  1.00  0.00     0.185 A 
HETATM    5  N3  UNL     1     -13.640 -22.318  48.172  1.00  0.00    -0.170 N 
ATOM      6  H3  UNL     1     -13.531 -23.232  48.612  1.00  0.00     0.186 HD
HETATM    7  C5  UNL     1     -14.728 -21.889  47.524  1.00  0.00     0.706 A 
HETATM    8  N5  UNL     1     -14.536 -20.622  47.058  1.00  0.00    -0.030 N 
HETATM    9  C6  UNL     1     -13.312 -20.222  47.406  1.00  0.00     0.216 A 
HETATM   10  N6  UNL     1     -12.535 -19.145  47.256  1.00  0.00    -0.230 N 
HETATM   11  N8  UNL     1     -11.302 -19.086  47.735  1.00  0.00    -0.126 N 
ATOM     12  H8  UNL     1     -10.756 -18.238  47.586  1.00  0.00     0.206 HD
ENDROOT
BRANCH  10  13
HETATM   13  C7  UNL     1     -13.068 -17.968  46.600  1.00  0.00     0.351 C 
BRANCH  13  14
HETATM   14  O2  UNL     1     -13.008 -18.073  45.217  1.00  0.00    -0.266 OA
BRANCH  14  15
HETATM   15  N7  UNL     1     -12.921 -16.985  44.507  1.00  0.00    -0.309 N 
ATOM     16  H72 UNL     1     -12.003 -16.637  44.228  1.00  0.00     0.184 HD
ATOM     17  H71 UNL     1     -13.778 -16.500  44.241  1.00  0.00     0.184 HD
ENDBRANCH  14  15
ENDBRANCH  13  14
ENDBRANCH  10  13
BRANCH   8  18
HETATM   18  O1  UNL     1     -15.440 -19.892  46.327  1.00  0.00    -0.268 OA
ATOM     19  H1  UNL     1     -15.224 -19.233  45.678  1.00  0.00     0.246 HD
ENDBRANCH   8  18
BRANCH   1  20
HETATM   20  N1  UNL     1      -9.552 -20.062  48.879  1.00  0.00    -0.225 N 
HETATM   21  C1  UNL     1      -9.108 -21.080  49.795  1.00  0.00     0.168 C 
HETATM   22  C2  UNL     1      -8.647 -19.002  48.499  1.00  0.00     0.168 C 
ENDBRANCH   1  20
BRANCH   7  23
HETATM   23  N4  UNL     1     -15.795 -22.570  47.365  1.00  0.00    -0.232 N 
ATOM     24  H42 UNL     1     -16.084 -23.003  46.489  1.00  0.00     0.174 HD
ATOM     25  H41 UNL     1     -16.478 -22.759  48.099  1.00  0.00     0.174 HD
ENDBRANCH   7  23
TORSDOF 6
ENDMDL
MODEL 4
REMARK VINA RESULT: -5.437723677      3.072      4.363
REMARK  6 active torsions:
REMARK  status: ('A' for Active; 'I' for Inactive)
REMARK    1  A    between atoms: N1_2  and  C3_4 
REMARK    2  A    between atoms: C5_10  and  N4_11 
REMARK    3  A    between atoms: N5_14  and  O1_15 
REMARK    4  A    between atoms: N6_18  and  C7_19 
REMARK    5  A    between atoms: C7_19  and  O2_20 
REMARK    6  A    between atoms: O2_20  and  N7_21 
ROOT
HETATM    1  C3  UNL     1     -10.851 -21.032  50.359  1.00  0.00     0.696 A 
HETATM    2  N2  UNL     1     -11.975 -21.303  49.684  1.00  0.00    -0.171 N 
ATOM      3  H2  UNL     1     -12.668 -21.926  50.100  1.00  0.00     0.186 HD
HETATM    4  C4  UNL     1     -12.210 -20.776  48.479  1.00  0.00     0.185 A 
HETATM    5  N3  UNL     1     -13.214 -20.874  47.580  1.00  0.00    -0.170 N 
ATOM      6  H3  UNL     1     -14.064 -21.426  47.695  1.00  0.00     0.186 HD
HETATM    7  C5  UNL     1     -12.905 -20.128  46.515  1.00  0.00     0.706 A 
HETATM    8  N5  UNL     1     -11.696 -19.524  46.691  1.00  0.00    -0.030 N 
HETATM    9  C6  UNL     1     -11.213 -19.879  47.882  1.00  0.00     0.216 A 
HETATM   10  N6  UNL     1     -10.121 -19.659  48.620  1.00  0.00    -0.230 N 
HETATM   11  N8  UNL     1      -9.943 -20.212  49.810  1.00  0.00    -0.126 N 
ATOM     12  H8  UNL     1      -9.088 -20.009  50.325  1.00  0.00     0.206 HD
ENDROOT
BRANCH  10  13
HETATM   13  C7  UNL     1      -9.111 -18.735  48.142  1.00  0.00     0.351 C 
BRANCH  13  14
HETATM   14  O2  UNL     1      -8.693 -17.863  49.137  1.00  0.00    -0.266 OA
BRANCH  14  15
HETATM   15  N7  UNL     1      -9.395 -16.791  49.371  1.00  0.00    -0.309 N 
ATOM     16  H72 UNL     1      -9.548 -16.115  48.622  1.00  0.00     0.184 HD
ATOM     17  H71 UNL     1      -9.781 -16.649  50.304  1.00  0.00     0.184 HD
ENDBRANCH  14  15
ENDBRANCH  13  14
ENDBRANCH  10  13
BRANCH   8  18
HETATM   18  O1  UNL     1     -11.068 -18.710  45.780  1.00  0.00    -0.268 OA
ATOM     19  H1  UNL     1     -10.136 -18.529  45.750  1.00  0.00     0.246 HD
ENDBRANCH   8  18
BRANCH   1  20
HETATM   20  N1  UNL     1     -10.694 -21.576  51.513  1.00  0.00    -0.225 N 
HETATM   21  C1  UNL     1     -10.011 -22.839  51.620  1.00  0.00     0.168 C 
HETATM   22  C2  UNL     1     -11.194 -20.933  52.706  1.00  0.00     0.168 C 
ENDBRANCH   1  20
BRANCH   7  23
HETATM   23  N4  UNL     1     -13.641 -20.001  45.480  1.00  0.00    -0.232 N 
ATOM     24  H42 UNL     1     -14.349 -19.279  45.354  1.00  0.00     0.174 HD
ATOM     25  H41 UNL     1     -13.601 -20.608  44.661  1.00  0.00     0.174 HD
ENDBRANCH   7  23
TORSDOF 6
ENDMDL
MODEL 5
REMARK VINA RESULT: -5.378381860      3.012      5.414
REMARK  6 active torsions:
REMARK  status: ('A' for Active; 'I' for Inactive)
REMARK    1  A    between atoms: N1_2  and  C3_4 
REMARK    2  A    between atoms: C5_10  and  N4_11 
REMARK    3  A    between atoms: N5_14  and  O1_15 
REMARK    4  A    between atoms: N6_18  and  C7_19 
REMARK    5  A    between atoms: C7_19  and  O2_20 
REMARK    6  A    between atoms: O2_20  and  N7_21 
ROOT
HETATM    1  C3  UNL     1     -12.863 -20.957  48.044  1.00  0.00     0.696 A 
HETATM    2  N2  UNL     1     -12.169 -19.919  47.562  1.00  0.00    -0.171 N 
ATOM      3  H2  UNL     1     -12.606 -19.300  46.879  1.00  0.00     0.186 HD
HETATM    4  C4  UNL     1     -10.916 -19.674  47.958  1.00  0.00     0.185 A 
HETATM    5  N3  UNL     1      -9.989 -18.742  47.647  1.00  0.00    -0.170 N 
ATOM      6  H3  UNL     1     -10.114 -17.974  46.988  1.00  0.00     0.186 HD
HETATM    7  C5  UNL     1      -8.879 -18.996  48.348  1.00  0.00     0.706 A 
HETATM    8  N5  UNL     1      -9.053 -20.098  49.132  1.00  0.00    -0.030 N 
HETATM    9  C6  UNL     1     -10.287 -20.564  48.942  1.00  0.00     0.216 A 
HETATM   10  N6  UNL     1     -11.048 -21.575  49.373  1.00  0.00    -0.230 N 
HETATM   11  N8  UNL     1     -12.285 -21.767  48.942  1.00  0.00    -0.126 N 
ATOM     12  H8  UNL     1     -12.816 -22.558  49.306  1.00  0.00     0.206 HD
ENDROOT
BRANCH  10  13
HETATM   13  C7  UNL     1     -10.536 -22.467  50.395  1.00  0.00     0.351 C 
BRANCH  13  14
HETATM   14  O2  UNL     1     -10.451 -21.843  51.632  1.00  0.00    -0.266 OA
BRANCH  14  15
HETATM   15  N7  UNL     1      -9.363 -21.987  52.335  1.00  0.00    -0.309 N 
ATOM     16  H72 UNL     1      -9.380 -22.561  53.178  1.00  0.00     0.184 HD
ATOM     17  H71 UNL     1      -8.512 -21.518  52.026  1.00  0.00     0.184 HD
ENDBRANCH  14  15
ENDBRANCH  13  14
ENDBRANCH  10  13
BRANCH   8  18
HETATM   18  O1  UNL     1      -8.104 -20.650  49.957  1.00  0.00    -0.268 OA
ATOM     19  H1  UNL     1      -7.959 -21.580  50.089  1.00  0.00     0.246 HD
ENDBRANCH   8  18
BRANCH   1  20
HETATM   20  N1  UNL     1     -14.063 -21.130  47.617  1.00  0.00    -0.225 N 
HETATM   21  C1  UNL     1     -14.595 -22.463  47.499  1.00  0.00     0.168 C 
HETATM   22  C2  UNL     1     -14.887 -20.000  47.255  1.00  0.00     0.168 C 
ENDBRANCH   1  20
BRANCH   7  23
HETATM   23  N4  UNL     1      -7.808 -18.304  48.289  1.00  0.00    -0.232 N 
ATOM     24  H42 UNL     1      -6.871 -18.690  48.182  1.00  0.00     0.174 HD
ATOM     25  H41 UNL     1      -7.771 -17.286  48.341  1.00  0.00     0.174 HD
ENDBRANCH   7  23
TORSDOF 6
ENDMDL
