MODEL 1
REMARK VINA RESULT: -5.676361083      0.000      0.000
REMARK  6 active torsions:
REMARK  status: ('A' for Active; 'I' for Inactive)
REMARK    1  A    between atoms: C2_5  and  N3_6 
REMARK    2  A    between atoms: N3_6  and  N4_8 
REMARK    3  A    between atoms: C3_13  and  N6_14 
REMARK    4  A    between atoms: N6_14  and  N7_16 
REMARK    5  A    between atoms: C4_19  and  S1_20 
REMARK    6  A    between atoms: S1_20  and  N8_21 
ROOT
HETATM    1  C1  UNL     1     -12.304 -23.025  48.718  1.00  0.00     0.179 C 
HETATM    2  N1  UNL     1     -11.910 -21.652  48.529  1.00  0.00    -0.267 N 
HETATM    3  N2  UNL     1     -10.791 -21.210  49.094  1.00  0.00    -0.128 N 
ATOM      4  H2  UNL     1     -10.234 -21.849  49.662  1.00  0.00     0.206 HD
HETATM    5  C2  UNL     1     -10.377 -19.943  48.936  1.00  0.00     0.712 A 
HETATM    6  N5  UNL     1     -11.130 -19.147  48.191  1.00  0.00    -0.170 N 
ATOM      7  H5  UNL     1     -10.824 -18.182  48.066  1.00  0.00     0.186 HD
HETATM    8  C3  UNL     1     -12.293 -19.532  47.579  1.00  0.00     0.177 A 
HETATM    9  C4  UNL     1     -12.692 -20.833  47.760  1.00  0.00     0.212 A 
ENDROOT
BRANCH   9  10
HETATM   10  S1  UNL     1     -14.142 -21.423  47.049  1.00  0.00     0.277 S 
HETATM   11  O1  UNL     1     -15.078 -20.333  46.610  1.00  0.00    -0.199 OA
HETATM   12  O2  UNL     1     -14.930 -22.266  48.033  1.00  0.00    -0.199 OA
BRANCH  10  13
HETATM   13  N8  UNL     1     -13.836 -22.426  45.664  1.00  0.00    -0.323 N 
ATOM     14  H82 UNL     1     -12.896 -22.679  45.357  1.00  0.00     0.169 HD
ATOM     15  H81 UNL     1     -14.696 -22.725  45.205  1.00  0.00     0.169 HD
ENDBRANCH  10  13
ENDBRANCH   9  10
BRANCH   8  16
HETATM   16  N6  UNL     1     -13.007 -18.610  46.787  1.00  0.00    -0.289 N 
ATOM     17  H6  UNL     1     -13.799 -18.089  47.160  1.00  0.00     0.188 HD
BRANCH  16  18
HETATM   18  N7  UNL     1     -12.575 -18.441  45.450  1.00  0.00    -0.344 N 
ATOM     19  H72 UNL     1     -13.214 -18.615  44.673  1.00  0.00     0.176 HD
ATOM     20  H71 UNL     1     -11.610 -18.142  45.308  1.00  0.00     0.176 HD
ENDBRANCH  16  18
ENDBRANCH   8  16
BRANCH   5  21
HETATM   21  N3  UNL     1      -9.277 -19.554  49.506  1.00  0.00    -0.137 N 
ATOM     22  H3  UNL     1      -8.431 -20.109  49.377  1.00  0.00     0.205 HD
BRANCH  21  23
HETATM   23  N4  UNL     1      -9.219 -18.402  50.290  1.00  0.00    -0.331 N 
ATOM     24  H42 UNL     1      -9.877 -17.650  50.085  1.00  0.00     0.177 HD
ATOM     25  H41 UNL     1      -8.546 -18.299  51.049  1.00  0.00     0.177 HD
ENDBRANCH  21  23
ENDBRANCH   5  21
TORSDOF 6
ENDMDL
MODEL 2
REMARK VINA RESULT: -5.464066917      1.561      3.038
REMARK  6 active torsions:
REMARK  status: ('A' for Active; 'I' for Inactive)
REMARK    1  A    between atoms: C2_5  and  N3_6 
REMARK    2  A    between atoms: N3_6  and  N4_8 
REMARK    3  A    between atoms: C3_13  and  N6_14 
REMARK    4  A    between atoms: N6_14  and  N7_16 
REMARK    5  A    between atoms: C4_19  and  S1_20 
REMARK    6  A    between atoms: S1_20  and  N8_21 
ROOT
HETATM    1  C1  UNL     1     -13.374 -19.485  45.677  1.00  0.00     0.179 C 
HETATM    2  N1  UNL     1     -12.453 -19.827  46.732  1.00  0.00    -0.267 N 
HETATM    3  N2  UNL     1     -11.411 -19.038  46.971  1.00  0.00    -0.128 N 
ATOM      4  H2  UNL     1     -11.274 -18.206  46.395  1.00  0.00     0.206 HD
HETATM    5  C2  UNL     1     -10.534 -19.309  47.950  1.00  0.00     0.712 A 
HETATM    6  N5  UNL     1     -10.749 -20.399  48.673  1.00  0.00    -0.170 N 
ATOM      7  H5  UNL     1     -10.087 -20.613  49.420  1.00  0.00     0.186 HD
HETATM    8  C3  UNL     1     -11.799 -21.256  48.486  1.00  0.00     0.177 A 
HETATM    9  C4  UNL     1     -12.679 -20.955  47.475  1.00  0.00     0.212 A 
ENDROOT
BRANCH   9  10
HETATM   10  S1  UNL     1     -14.026 -21.968  47.140  1.00  0.00     0.277 S 
HETATM   11  O1  UNL     1     -14.423 -22.837  48.300  1.00  0.00    -0.199 OA
HETATM   12  O2  UNL     1     -13.725 -22.921  46.000  1.00  0.00    -0.199 OA
BRANCH  10  13
HETATM   13  N8  UNL     1     -15.433 -21.061  46.674  1.00  0.00    -0.323 N 
ATOM     14  H82 UNL     1     -15.381 -20.155  46.209  1.00  0.00     0.169 HD
ATOM     15  H81 UNL     1     -16.301 -21.538  46.920  1.00  0.00     0.169 HD
ENDBRANCH  10  13
ENDBRANCH   9  10
BRANCH   8  16
HETATM   16  N6  UNL     1     -11.949 -22.376  49.328  1.00  0.00    -0.289 N 
ATOM     17  H6  UNL     1     -12.829 -22.889  49.380  1.00  0.00     0.188 HD
BRANCH  16  18
HETATM   18  N7  UNL     1     -10.826 -22.756  50.100  1.00  0.00    -0.344 N 
ATOM     19  H72 UNL     1     -10.452 -22.131  50.814  1.00  0.00     0.176 HD
ATOM     20  H71 UNL     1     -10.418 -23.671  49.906  1.00  0.00     0.176 HD
ENDBRANCH  16  18
ENDBRANCH   8  16
BRANCH   5  21
HETATM   21  N3  UNL     1      -9.530 -18.509  48.148  1.00  0.00    -0.137 N 
ATOM     22  H3  UNL     1      -8.704 -18.597  47.556  1.00  0.00     0.205 HD
BRANCH  21  23
HETATM   23  N4  UNL     1      -9.549 -17.535  49.146  1.00  0.00    -0.331 N 
ATOM     24  H42 UNL     1     -10.399 -16.982  49.260  1.00  0.00     0.177 HD
ATOM     25  H41 UNL     1      -8.745 -17.367  49.751  1.00  0.00     0.177 HD
ENDBRANCH  21  23
ENDBRANCH   5  21
TORSDOF 6
ENDMDL
MODEL 3
REMARK VINA RESULT: -5.429586137      3.493      4.953
REMARK  6 active torsions:
REMARK  status: ('A' for Active; 'I' for Inactive)
REMARK    1  A    between atoms: C2_5  and  N3_6 
REMARK    2  A    between atoms: N3_6  and  N4_8 
REMARK    3  A    between atoms: C3_13  and  N6_14 
REMARK    4  A    between atoms: N6_14  and  N7_16 
REMARK    5  A    between atoms: C4_19  and  S1_20 
REMARK    6  A    between atoms: S1_20  and  N8_21 
ROOT
HETATM    1  C1  UNL     1     -11.030 -22.109  50.021  1.00  0.00     0.179 C 
HETATM    2  N1  UNL     1     -10.998 -21.025  49.071  1.00  0.00    -0.267 N 
HETATM    3  N2  UNL     1     -12.056 -20.800  48.300  1.00  0.00    -0.128 N 
ATOM      4  H2  UNL     1     -12.873 -21.406  48.386  1.00  0.00     0.206 HD
HETATM    5  C2  UNL     1     -12.077 -19.795  47.411  1.00  0.00     0.712 A 
HETATM    6  N5  UNL     1     -10.997 -19.032  47.331  1.00  0.00    -0.170 N 
ATOM      7  H5  UNL     1     -11.003 -18.266  46.658  1.00  0.00     0.186 HD
HETATM    8  C3  UNL     1      -9.872 -19.203  48.092  1.00  0.00     0.177 A 
HETATM    9  C4  UNL     1      -9.878 -20.241  48.992  1.00  0.00     0.212 A 
ENDROOT
BRANCH   9  10
HETATM   10  S1  UNL     1      -8.515 -20.558  49.990  1.00  0.00     0.277 S 
HETATM   11  O1  UNL     1      -7.296 -19.767  49.605  1.00  0.00    -0.199 OA
HETATM   12  O2  UNL     1      -8.100 -22.014  49.903  1.00  0.00    -0.199 OA
BRANCH  10  13
HETATM   13  N8  UNL     1      -8.834 -20.228  51.665  1.00  0.00    -0.323 N 
ATOM     14  H82 UNL     1      -8.938 -20.961  52.367  1.00  0.00     0.169 HD
ATOM     15  H81 UNL     1      -8.904 -19.228  51.857  1.00  0.00     0.169 HD
ENDBRANCH  10  13
ENDBRANCH   9  10
BRANCH   8  16
HETATM   16  N6  UNL     1      -8.785 -18.318  47.945  1.00  0.00    -0.289 N 
ATOM     17  H6  UNL     1      -8.017 -18.520  47.305  1.00  0.00     0.188 HD
BRANCH  16  18
HETATM   18  N7  UNL     1      -8.806 -17.138  48.725  1.00  0.00    -0.344 N 
ATOM     19  H72 UNL     1      -9.560 -16.970  49.392  1.00  0.00     0.176 HD
ATOM     20  H71 UNL     1      -8.040 -16.478  48.588  1.00  0.00     0.176 HD
ENDBRANCH  16  18
ENDBRANCH   8  16
BRANCH   5  21
HETATM   21  N3  UNL     1     -13.134 -19.612  46.679  1.00  0.00    -0.137 N 
ATOM     22  H3  UNL     1     -14.000 -19.310  47.126  1.00  0.00     0.205 HD
BRANCH  21  23
HETATM   23  N4  UNL     1     -13.120 -19.815  45.299  1.00  0.00    -0.331 N 
ATOM     24  H42 UNL     1     -13.957 -20.204  44.863  1.00  0.00     0.177 HD
ATOM     25  H41 UNL     1     -12.306 -19.588  44.728  1.00  0.00     0.177 HD
ENDBRANCH  21  23
ENDBRANCH   5  21
TORSDOF 6
ENDMDL
MODEL 4
REMARK VINA RESULT: -5.426592384      1.342      1.505
REMARK  6 active torsions:
REMARK  status: ('A' for Active; 'I' for Inactive)
REMARK    1  A    between atoms: C2_5  and  N3_6 
REMARK    2  A    between atoms: N3_6  and  N4_8 
REMARK    3  A    between atoms: C3_13  and  N6_14 
REMARK    4  A    between atoms: N6_14  and  N7_16 
REMARK    5  A    between atoms: C4_19  and  S1_20 
REMARK    6  A    between atoms: S1_20  and  N8_21 
ROOT
HETATM    1  C1  UNL     1     -12.119 -22.412  49.220  1.00  0.00     0.179 C 
HETATM    2  N1  UNL     1     -11.834 -21.224  48.454  1.00  0.00    -0.267 N 
HETATM    3  N2  UNL     1     -10.791 -20.470  48.782  1.00  0.00    -0.128 N 
ATOM      4  H2  UNL     1     -10.212 -20.740  49.579  1.00  0.00     0.206 HD
HETATM    5  C2  UNL     1     -10.478 -19.363  48.091  1.00  0.00     0.712 A 
HETATM    6  N5  UNL     1     -11.255 -19.050  47.064  1.00  0.00    -0.170 N 
ATOM      7  H5  UNL     1     -11.026 -18.209  46.532  1.00  0.00     0.186 HD
HETATM    8  C3  UNL     1     -12.344 -19.778  46.668  1.00  0.00     0.177 A 
HETATM    9  C4  UNL     1     -12.641 -20.904  47.395  1.00  0.00     0.212 A 
ENDROOT
BRANCH   9  10
HETATM   10  S1  UNL     1     -13.993 -21.887  46.997  1.00  0.00     0.277 S 
HETATM   11  O1  UNL     1     -14.357 -22.868  48.075  1.00  0.00    -0.199 OA
HETATM   12  O2  UNL     1     -13.718 -22.722  45.761  1.00  0.00    -0.199 OA
BRANCH  10  13
HETATM   13  N8  UNL     1     -15.414 -20.946  46.657  1.00  0.00    -0.323 N 
ATOM     14  H82 UNL     1     -15.552 -19.999  47.011  1.00  0.00     0.169 HD
ATOM     15  H81 UNL     1     -16.081 -21.449  46.072  1.00  0.00     0.169 HD
ENDBRANCH  10  13
ENDBRANCH   9  10
BRANCH   8  16
HETATM   16  N6  UNL     1     -13.090 -19.369  45.544  1.00  0.00    -0.289 N 
ATOM     17  H6  UNL     1     -13.763 -19.991  45.096  1.00  0.00     0.188 HD
BRANCH  16  18
HETATM   18  N7  UNL     1     -12.863 -18.058  45.064  1.00  0.00    -0.344 N 
ATOM     19  H72 UNL     1     -11.914 -17.698  44.967  1.00  0.00     0.176 HD
ATOM     20  H71 UNL     1     -13.685 -17.503  44.824  1.00  0.00     0.176 HD
ENDBRANCH  16  18
ENDBRANCH   8  16
BRANCH   5  21
HETATM   21  N3  UNL     1      -9.449 -18.657  48.447  1.00  0.00    -0.137 N 
ATOM     22  H3  UNL     1      -8.514 -19.039  48.306  1.00  0.00     0.205 HD
BRANCH  21  23
HETATM   23  N4  UNL     1      -9.583 -17.391  49.017  1.00  0.00    -0.331 N 
ATOM     24  H42 UNL     1      -9.936 -16.635  48.428  1.00  0.00     0.177 HD
ATOM     25  H41 UNL     1      -9.342 -17.209  49.991  1.00  0.00     0.177 HD
ENDBRANCH  21  23
ENDBRANCH   5  21
TORSDOF 6
ENDMDL
MODEL 5
REMARK VINA RESULT: -5.422876146      3.052      4.528
REMARK  6 active torsions:
REMARK  status: ('A' for Active; 'I' for Inactive)
REMARK    1  A    between atoms: C2_5  and  N3_6 
REMARK    2  A    between atoms: N3_6  and  N4_8 
REMARK    3  A    between atoms: C3_13  and  N6_14 
REMARK    4  A    between atoms: N6_14  and  N7_16 
REMARK    5  A    between atoms: C4_19  and  S1_20 
REMARK    6  A    between atoms: S1_20  and  N8_21 
ROOT
HETATM    1  C1  UNL     1     -10.576 -21.811  50.330  1.00  0.00     0.179 C 
HETATM    2  N1  UNL     1     -11.376 -21.390  49.208  1.00  0.00    -0.267 N 
HETATM    3  N2  UNL     1     -12.499 -22.042  48.924  1.00  0.00    -0.128 N 
ATOM      4  H2  UNL     1     -12.772 -22.838  49.501  1.00  0.00     0.206 HD
HETATM    5  C2  UNL     1     -13.282 -21.678  47.896  1.00  0.00     0.712 A 
HETATM    6  N5  UNL     1     -12.891 -20.639  47.173  1.00  0.00    -0.170 N 
ATOM      7  H5  UNL     1     -13.480 -20.356  46.389  1.00  0.00     0.186 HD
HETATM    8  C3  UNL     1     -11.749 -19.921  47.406  1.00  0.00     0.177 A 
HETATM    9  C4  UNL     1     -10.966 -20.317  48.462  1.00  0.00     0.212 A 
ENDROOT
BRANCH   9  10
HETATM   10  S1  UNL     1      -9.504 -19.497  48.839  1.00  0.00     0.277 S 
HETATM   11  O1  UNL     1      -8.951 -18.702  47.690  1.00  0.00    -0.199 OA
HETATM   12  O2  UNL     1      -8.410 -20.476  49.221  1.00  0.00    -0.199 OA
BRANCH  10  13
HETATM   13  N8  UNL     1      -9.687 -18.405  50.178  1.00  0.00    -0.323 N 
ATOM     14  H82 UNL     1     -10.305 -18.592  50.967  1.00  0.00     0.169 HD
ATOM     15  H81 UNL     1      -9.110 -17.569  50.078  1.00  0.00     0.169 HD
ENDBRANCH  10  13
ENDBRANCH   9  10
BRANCH   8  16
HETATM   16  N6  UNL     1     -11.437 -18.815  46.589  1.00  0.00    -0.289 N 
ATOM     17  H6  UNL     1     -10.611 -18.243  46.760  1.00  0.00     0.188 HD
BRANCH  16  18
HETATM   18  N7  UNL     1     -12.322 -18.535  45.521  1.00  0.00    -0.344 N 
ATOM     19  H72 UNL     1     -13.329 -18.639  45.641  1.00  0.00     0.176 HD
ATOM     20  H71 UNL     1     -11.905 -18.229  44.641  1.00  0.00     0.176 HD
ENDBRANCH  16  18
ENDBRANCH   8  16
BRANCH   5  21
HETATM   21  N3  UNL     1     -14.371 -22.343  47.657  1.00  0.00    -0.137 N 
ATOM     22  H3  UNL     1     -14.596 -23.150  48.239  1.00  0.00     0.205 HD
BRANCH  21  23
HETATM   23  N4  UNL     1     -15.242 -21.988  46.627  1.00  0.00    -0.331 N 
ATOM     24  H42 UNL     1     -15.485 -21.003  46.524  1.00  0.00     0.177 HD
ATOM     25  H41 UNL     1     -15.631 -22.680  45.986  1.00  0.00     0.177 HD
ENDBRANCH  21  23
ENDBRANCH   5  21
TORSDOF 6
ENDMDL
