MODEL 1
REMARK VINA RESULT: -5.885124252      0.000      0.000
REMARK  12 active torsions:
REMARK  status: ('A' for Active; 'I' for Inactive)
REMARK    1  A    between atoms: N1_1  and  N2_4 
REMARK    2  A    between atoms: C1_6  and  N3_7 
REMARK    3  A    between atoms: C1_6  and  S1_12 
REMARK    4  A    between atoms: N3_7  and  N4_9 
REMARK    5  A    between atoms: S1_12  and  N5_13 
REMARK    6  A    between atoms: S1_12  and  C2_17 
REMARK    7  A    between atoms: N7_20  and  C3_21 
REMARK    8  A    between atoms: C3_21  and  O2_22 
REMARK    9  A    between atoms: O2_22  and  C4_23 
REMARK   10  A    between atoms: C4_23  and  O3_24 
REMARK   11  A    between atoms: C4_23  and  C5_26 
REMARK   12  A    between atoms: C5_26  and  O4_27 
ROOT
HETATM    1  C2  UNL     1      16.709  18.787  78.747  1.00  0.00     0.160 A 
HETATM    2  N6  UNL     1      16.012  17.992  77.985  1.00  0.00    -0.281 N 
ATOM      3  H6  UNL     1      16.272  17.030  77.764  1.00  0.00     0.188 HD
HETATM    4  N7  UNL     1      14.902  18.606  77.528  1.00  0.00    -0.237 N 
HETATM    5  C6  UNL     1      14.886  19.831  78.015  1.00  0.00     0.155 A 
HETATM    6  C7  UNL     1      14.065  20.928  77.959  1.00  0.00     0.277 A 
HETATM    7  O5  UNL     1      13.014  20.836  77.267  1.00  0.00    -0.266 OA
HETATM    8  N8  UNL     1      14.367  22.057  78.624  1.00  0.00    -0.318 N 
ATOM      9  H8  UNL     1      13.727  22.849  78.554  1.00  0.00     0.169 HD
HETATM   10  C8  UNL     1      15.472  22.189  79.373  1.00  0.00     0.184 A 
HETATM   11  N9  UNL     1      16.281  21.124  79.436  1.00  0.00    -0.348 N 
ATOM     12  H9  UNL     1      17.128  21.197  79.999  1.00  0.00     0.167 HD
HETATM   13  C9  UNL     1      16.044  19.965  78.802  1.00  0.00     0.106 A 
ENDROOT
BRANCH   1  14
HETATM   14  S1  UNL     1      18.434  18.462  79.706  1.00  0.00     0.136 S 
HETATM   15  O1  UNL     1      18.592  18.868  81.303  1.00  0.00    -0.235 OA
BRANCH  14  16
HETATM   16  C1  UNL     1      19.762  17.677  78.484  1.00  0.00     0.216 C 
HETATM   17  N2  UNL     1      19.919  16.459  78.265  1.00  0.00    -0.282 N 
ATOM     18  H2  UNL     1      19.325  15.782  78.743  1.00  0.00     0.188 HD
BRANCH  17  19
HETATM   19  N1  UNL     1      20.892  16.011  77.379  1.00  0.00    -0.343 N 
ATOM     20  H12 UNL     1      21.818  15.792  77.744  1.00  0.00     0.176 HD
ATOM     21  H11 UNL     1      20.686  15.903  76.386  1.00  0.00     0.176 HD
ENDBRANCH  17  19
BRANCH  16  22
HETATM   22  N3  UNL     1      20.581  18.621  77.824  1.00  0.00    -0.282 N 
ATOM     23  H3  UNL     1      20.553  18.695  76.807  1.00  0.00     0.188 HD
BRANCH  22  24
HETATM   24  N4  UNL     1      21.421  19.446  78.552  1.00  0.00    -0.343 N 
ATOM     25  H42 UNL     1      21.298  19.506  79.562  1.00  0.00     0.176 HD
ATOM     26  H41 UNL     1      22.149  19.983  78.081  1.00  0.00     0.176 HD
ENDBRANCH  22  24
ENDBRANCH  16  22
ENDBRANCH  14  16
BRANCH  14  27
HETATM   27  N5  UNL     1      17.887  16.771  80.141  1.00  0.00    -0.349 N 
ATOM     28  H52 UNL     1      18.345  15.864  80.222  1.00  0.00     0.166 HD
ATOM     29  H51 UNL     1      16.940  17.131  80.264  1.00  0.00     0.166 HD
ENDBRANCH  14  27
ENDBRANCH   1  14
BRANCH   4  30
HETATM   30  C3  UNL     1      13.952  17.999  76.624  1.00  0.00     0.255 C 
BRANCH  30  31
HETATM   31  O2  UNL     1      13.861  18.455  75.374  1.00  0.00    -0.312 OA
BRANCH  31  32
HETATM   32  C4  UNL     1      12.914  18.146  74.488  1.00  0.00     0.287 C 
BRANCH  32  33
HETATM   33  O3  UNL     1      13.320  18.422  73.146  1.00  0.00    -0.369 OA
ATOM     34  H3  UNL     1      13.226  17.665  72.580  1.00  0.00     0.212 HD
ENDBRANCH  32  33
BRANCH  32  35
HETATM   35  C5  UNL     1      11.613  18.944  74.682  1.00  0.00     0.225 C 
BRANCH  35  36
HETATM   36  O4  UNL     1      11.910  20.288  74.597  1.00  0.00    -0.396 OA
ATOM     37  H4  UNL     1      11.098  20.767  74.484  1.00  0.00     0.209 HD
ENDBRANCH  35  36
ENDBRANCH  32  35
ENDBRANCH  31  32
ENDBRANCH  30  31
ENDBRANCH   4  30
TORSDOF 12
ENDMDL
MODEL 2
REMARK VINA RESULT: -5.674956305      0.763      1.011
REMARK  12 active torsions:
REMARK  status: ('A' for Active; 'I' for Inactive)
REMARK    1  A    between atoms: N1_1  and  N2_4 
REMARK    2  A    between atoms: C1_6  and  N3_7 
REMARK    3  A    between atoms: C1_6  and  S1_12 
REMARK    4  A    between atoms: N3_7  and  N4_9 
REMARK    5  A    between atoms: S1_12  and  N5_13 
REMARK    6  A    between atoms: S1_12  and  C2_17 
REMARK    7  A    between atoms: N7_20  and  C3_21 
REMARK    8  A    between atoms: C3_21  and  O2_22 
REMARK    9  A    between atoms: O2_22  and  C4_23 
REMARK   10  A    between atoms: C4_23  and  O3_24 
REMARK   11  A    between atoms: C4_23  and  C5_26 
REMARK   12  A    between atoms: C5_26  and  O4_27 
ROOT
HETATM    1  C2  UNL     1      16.495  18.822  78.606  1.00  0.00     0.160 A 
HETATM    2  N6  UNL     1      15.810  18.022  77.839  1.00  0.00    -0.281 N 
ATOM      3  H6  UNL     1      16.085  17.067  77.609  1.00  0.00     0.188 HD
HETATM    4  N7  UNL     1      14.690  18.623  77.387  1.00  0.00    -0.237 N 
HETATM    5  C6  UNL     1      14.657  19.845  77.884  1.00  0.00     0.155 A 
HETATM    6  C7  UNL     1      13.819  20.929  77.838  1.00  0.00     0.277 A 
HETATM    7  O5  UNL     1      12.769  20.827  77.146  1.00  0.00    -0.266 OA
HETATM    8  N8  UNL     1      14.105  22.058  78.511  1.00  0.00    -0.318 N 
ATOM      9  H8  UNL     1      13.453  22.840  78.448  1.00  0.00     0.169 HD
HETATM   10  C8  UNL     1      15.209  22.200  79.260  1.00  0.00     0.184 A 
HETATM   11  N9  UNL     1      16.033  21.146  79.313  1.00  0.00    -0.348 N 
ATOM     12  H9  UNL     1      16.880  21.228  79.876  1.00  0.00     0.167 HD
HETATM   13  C9  UNL     1      15.813  19.990  78.671  1.00  0.00     0.106 A 
ENDROOT
BRANCH   1  14
HETATM   14  S1  UNL     1      18.227  18.515  79.560  1.00  0.00     0.136 S 
HETATM   15  O1  UNL     1      18.828  19.664  80.589  1.00  0.00    -0.235 OA
BRANCH  14  16
HETATM   16  C1  UNL     1      18.993  16.774  79.054  1.00  0.00     0.216 C 
HETATM   17  N2  UNL     1      18.701  15.675  79.566  1.00  0.00    -0.282 N 
ATOM     18  H2  UNL     1      18.011  15.636  80.314  1.00  0.00     0.188 HD
BRANCH  17  19
HETATM   19  N1  UNL     1      19.305  14.501  79.130  1.00  0.00    -0.343 N 
ATOM     20  H12 UNL     1      20.188  14.567  78.624  1.00  0.00     0.176 HD
ATOM     21  H11 UNL     1      18.878  13.594  79.310  1.00  0.00     0.176 HD
ENDBRANCH  17  19
BRANCH  16  22
HETATM   22  N3  UNL     1      19.948  16.835  78.014  1.00  0.00    -0.282 N 
ATOM     23  H3  UNL     1      20.046  16.052  77.368  1.00  0.00     0.188 HD
BRANCH  22  24
HETATM   24  N4  UNL     1      20.750  17.954  77.868  1.00  0.00    -0.343 N 
ATOM     25  H42 UNL     1      20.893  18.565  78.671  1.00  0.00     0.176 HD
ATOM     26  H41 UNL     1      21.188  18.159  76.970  1.00  0.00     0.176 HD
ENDBRANCH  22  24
ENDBRANCH  16  22
ENDBRANCH  14  16
BRANCH  14  27
HETATM   27  N5  UNL     1      17.339  17.687  80.928  1.00  0.00    -0.349 N 
ATOM     28  H52 UNL     1      16.957  16.753  81.079  1.00  0.00     0.166 HD
ATOM     29  H51 UNL     1      17.394  18.554  81.463  1.00  0.00     0.166 HD
ENDBRANCH  14  27
ENDBRANCH   1  14
BRANCH   4  30
HETATM   30  C3  UNL     1      13.749  18.009  76.480  1.00  0.00     0.255 C 
BRANCH  30  31
HETATM   31  O2  UNL     1      13.754  18.370  75.195  1.00  0.00    -0.312 OA
BRANCH  31  32
HETATM   32  C4  UNL     1      12.740  18.252  74.339  1.00  0.00     0.287 C 
BRANCH  32  33
HETATM   33  O3  UNL     1      13.052  18.796  73.055  1.00  0.00    -0.369 OA
ATOM     34  H3  UNL     1      13.082  18.128  72.380  1.00  0.00     0.212 HD
ENDBRANCH  32  33
BRANCH  32  35
HETATM   35  C5  UNL     1      11.471  18.997  74.788  1.00  0.00     0.225 C 
BRANCH  35  36
HETATM   36  O4  UNL     1      11.537  20.292  74.319  1.00  0.00    -0.396 OA
ATOM     37  H4  UNL     1      10.922  20.382  73.601  1.00  0.00     0.209 HD
ENDBRANCH  35  36
ENDBRANCH  32  35
ENDBRANCH  31  32
ENDBRANCH  30  31
ENDBRANCH   4  30
TORSDOF 12
ENDMDL
MODEL 3
REMARK VINA RESULT: -5.545523787      5.931      8.940
REMARK  12 active torsions:
REMARK  status: ('A' for Active; 'I' for Inactive)
REMARK    1  A    between atoms: N1_1  and  N2_4 
REMARK    2  A    between atoms: C1_6  and  N3_7 
REMARK    3  A    between atoms: C1_6  and  S1_12 
REMARK    4  A    between atoms: N3_7  and  N4_9 
REMARK    5  A    between atoms: S1_12  and  N5_13 
REMARK    6  A    between atoms: S1_12  and  C2_17 
REMARK    7  A    between atoms: N7_20  and  C3_21 
REMARK    8  A    between atoms: C3_21  and  O2_22 
REMARK    9  A    between atoms: O2_22  and  C4_23 
REMARK   10  A    between atoms: C4_23  and  O3_24 
REMARK   11  A    between atoms: C4_23  and  C5_26 
REMARK   12  A    between atoms: C5_26  and  O4_27 
ROOT
HETATM    1  C2  UNL     1       9.624  18.810  76.275  1.00  0.00     0.160 A 
HETATM    2  N6  UNL     1      10.727  19.332  75.817  1.00  0.00    -0.281 N 
ATOM      3  H6  UNL     1      10.779  20.209  75.297  1.00  0.00     0.188 HD
HETATM    4  N7  UNL     1      11.792  18.562  76.122  1.00  0.00    -0.237 N 
HETATM    5  C6  UNL     1      11.356  17.516  76.797  1.00  0.00     0.155 A 
HETATM    6  C7  UNL     1      11.896  16.407  77.395  1.00  0.00     0.277 A 
HETATM    7  O5  UNL     1      13.146  16.254  77.323  1.00  0.00    -0.266 OA
HETATM    8  N8  UNL     1      11.120  15.517  78.039  1.00  0.00    -0.318 N 
ATOM      9  H8  UNL     1      11.563  14.706  78.470  1.00  0.00     0.169 HD
HETATM   10  C8  UNL     1       9.788  15.650  78.140  1.00  0.00     0.184 A 
HETATM   11  N9  UNL     1       9.251  16.731  77.561  1.00  0.00    -0.348 N 
ATOM     12  H9  UNL     1       8.241  16.856  77.624  1.00  0.00     0.167 HD
HETATM   13  C9  UNL     1       9.961  17.660  76.903  1.00  0.00     0.106 A 
ENDROOT
BRANCH   1  14
HETATM   14  S1  UNL     1       7.740  19.470  76.143  1.00  0.00     0.136 S 
HETATM   15  O1  UNL     1       6.532  18.721  76.991  1.00  0.00    -0.235 OA
BRANCH  14  16
HETATM   16  C1  UNL     1       7.632  21.000  74.910  1.00  0.00     0.216 C 
HETATM   17  N2  UNL     1       8.556  21.800  74.660  1.00  0.00    -0.282 N 
ATOM     18  H2  UNL     1       9.460  21.682  75.116  1.00  0.00     0.188 HD
BRANCH  17  19
HETATM   19  N1  UNL     1       8.370  22.851  73.769  1.00  0.00    -0.343 N 
ATOM     20  H12 UNL     1       7.484  22.913  73.268  1.00  0.00     0.176 HD
ATOM     21  H11 UNL     1       9.102  23.545  73.618  1.00  0.00     0.176 HD
ENDBRANCH  17  19
BRANCH  16  22
HETATM   22  N3  UNL     1       6.376  21.157  74.280  1.00  0.00    -0.282 N 
ATOM     23  H3  UNL     1       6.167  22.015  73.769  1.00  0.00     0.188 HD
BRANCH  22  24
HETATM   24  N4  UNL     1       5.428  20.150  74.352  1.00  0.00    -0.343 N 
ATOM     25  H42 UNL     1       5.280  19.677  75.243  1.00  0.00     0.176 HD
ATOM     26  H41 UNL     1       4.891  19.890  73.525  1.00  0.00     0.176 HD
ENDBRANCH  22  24
ENDBRANCH  16  22
ENDBRANCH  14  16
BRANCH  14  27
HETATM   27  N5  UNL     1       8.043  20.642  77.514  1.00  0.00    -0.349 N 
ATOM     28  H52 UNL     1       7.980  21.654  77.625  1.00  0.00     0.166 HD
ATOM     29  H51 UNL     1       8.296  19.851  78.107  1.00  0.00     0.166 HD
ENDBRANCH  14  27
ENDBRANCH   1  14
BRANCH   4  30
HETATM   30  C3  UNL     1      13.147  18.852  75.712  1.00  0.00     0.255 C 
BRANCH  30  31
HETATM   31  O2  UNL     1      13.731  18.073  74.801  1.00  0.00    -0.312 OA
BRANCH  31  32
HETATM   32  C4  UNL     1      13.269  17.802  73.580  1.00  0.00     0.287 C 
BRANCH  32  33
HETATM   33  O3  UNL     1      12.332  18.782  73.129  1.00  0.00    -0.369 OA
ATOM     34  H3  UNL     1      11.536  18.782  73.646  1.00  0.00     0.212 HD
ENDBRANCH  32  33
BRANCH  32  35
HETATM   35  C5  UNL     1      12.516  16.463  73.495  1.00  0.00     0.225 C 
BRANCH  35  36
HETATM   36  O4  UNL     1      13.201  15.530  74.244  1.00  0.00    -0.396 OA
ATOM     37  H4  UNL     1      12.688  14.732  74.271  1.00  0.00     0.209 HD
ENDBRANCH  35  36
ENDBRANCH  32  35
ENDBRANCH  31  32
ENDBRANCH  30  31
ENDBRANCH   4  30
TORSDOF 12
ENDMDL
MODEL 4
REMARK VINA RESULT: -5.533700874      4.592      5.880
REMARK  12 active torsions:
REMARK  status: ('A' for Active; 'I' for Inactive)
REMARK    1  A    between atoms: N1_1  and  N2_4 
REMARK    2  A    between atoms: C1_6  and  N3_7 
REMARK    3  A    between atoms: C1_6  and  S1_12 
REMARK    4  A    between atoms: N3_7  and  N4_9 
REMARK    5  A    between atoms: S1_12  and  N5_13 
REMARK    6  A    between atoms: S1_12  and  C2_17 
REMARK    7  A    between atoms: N7_20  and  C3_21 
REMARK    8  A    between atoms: C3_21  and  O2_22 
REMARK    9  A    between atoms: O2_22  and  C4_23 
REMARK   10  A    between atoms: C4_23  and  O3_24 
REMARK   11  A    between atoms: C4_23  and  C5_26 
REMARK   12  A    between atoms: C5_26  and  O4_27 
ROOT
HETATM    1  C2  UNL     1      12.065  19.416  76.988  1.00  0.00     0.160 A 
HETATM    2  N6  UNL     1      10.838  19.323  76.558  1.00  0.00    -0.281 N 
ATOM      3  H6  UNL     1      10.546  18.745  75.769  1.00  0.00     0.188 HD
HETATM    4  N7  UNL     1      10.006  20.089  77.291  1.00  0.00    -0.237 N 
HETATM    5  C6  UNL     1      10.722  20.690  78.221  1.00  0.00     0.155 A 
HETATM    6  C7  UNL     1      10.500  21.554  79.263  1.00  0.00     0.277 A 
HETATM    7  O5  UNL     1       9.316  21.945  79.456  1.00  0.00    -0.266 OA
HETATM    8  N8  UNL     1      11.508  21.965  80.052  1.00  0.00    -0.318 N 
ATOM      9  H8  UNL     1      11.298  22.608  80.816  1.00  0.00     0.169 HD
HETATM   10  C8  UNL     1      12.778  21.566  79.880  1.00  0.00     0.184 A 
HETATM   11  N9  UNL     1      13.006  20.721  78.866  1.00  0.00    -0.348 N 
ATOM     12  H9  UNL     1      13.962  20.403  78.714  1.00  0.00     0.167 HD
HETATM   13  C9  UNL     1      12.051  20.268  78.040  1.00  0.00     0.106 A 
ENDROOT
BRANCH   1  14
HETATM   14  S1  UNL     1      13.732  18.535  76.320  1.00  0.00     0.136 S 
HETATM   15  O1  UNL     1      15.187  18.839  77.048  1.00  0.00    -0.235 OA
BRANCH  14  16
HETATM   16  C1  UNL     1      13.329  17.385  74.774  1.00  0.00     0.216 C 
HETATM   17  N2  UNL     1      13.108  16.158  74.817  1.00  0.00    -0.282 N 
ATOM     18  H2  UNL     1      13.128  15.675  75.715  1.00  0.00     0.188 HD
BRANCH  17  19
HETATM   19  N1  UNL     1      12.833  15.441  73.659  1.00  0.00    -0.343 N 
ATOM     20  H12 UNL     1      13.590  15.279  72.996  1.00  0.00     0.176 HD
ATOM     21  H11 UNL     1      11.896  15.083  73.474  1.00  0.00     0.176 HD
ENDBRANCH  17  19
BRANCH  16  22
HETATM   22  N3  UNL     1      13.300  18.062  73.533  1.00  0.00    -0.282 N 
ATOM     23  H3  UNL     1      14.085  17.973  72.887  1.00  0.00     0.188 HD
BRANCH  22  24
HETATM   24  N4  UNL     1      12.211  18.844  73.190  1.00  0.00    -0.343 N 
ATOM     25  H42 UNL     1      11.455  18.958  73.865  1.00  0.00     0.176 HD
ATOM     26  H41 UNL     1      12.169  19.295  72.276  1.00  0.00     0.176 HD
ENDBRANCH  22  24
ENDBRANCH  16  22
ENDBRANCH  14  16
BRANCH  14  27
HETATM   27  N5  UNL     1      13.428  17.103  77.418  1.00  0.00    -0.349 N 
ATOM     28  H52 UNL     1      13.026  16.174  77.296  1.00  0.00     0.166 HD
ATOM     29  H51 UNL     1      13.829  17.636  78.190  1.00  0.00     0.166 HD
ENDBRANCH  14  27
ENDBRANCH   1  14
BRANCH   4  30
HETATM   30  C3  UNL     1       8.592  20.231  77.030  1.00  0.00     0.255 C 
BRANCH  30  31
HETATM   31  O2  UNL     1       8.169  21.248  76.277  1.00  0.00    -0.312 OA
BRANCH  31  32
HETATM   32  C4  UNL     1       8.240  21.330  74.949  1.00  0.00     0.287 C 
BRANCH  32  33
HETATM   33  O3  UNL     1       9.584  21.240  74.474  1.00  0.00    -0.369 OA
ATOM     34  H3  UNL     1      10.002  20.427  74.732  1.00  0.00     0.212 HD
ENDBRANCH  32  33
BRANCH  32  35
HETATM   35  C5  UNL     1       7.709  22.662  74.390  1.00  0.00     0.225 C 
BRANCH  35  36
HETATM   36  O4  UNL     1       8.579  23.100  73.413  1.00  0.00    -0.396 OA
ATOM     37  H4  UNL     1       8.316  23.974  73.149  1.00  0.00     0.209 HD
ENDBRANCH  35  36
ENDBRANCH  32  35
ENDBRANCH  31  32
ENDBRANCH  30  31
ENDBRANCH   4  30
TORSDOF 12
ENDMDL
MODEL 5
REMARK VINA RESULT: -5.516210830      2.963      6.492
REMARK  12 active torsions:
REMARK  status: ('A' for Active; 'I' for Inactive)
REMARK    1  A    between atoms: N1_1  and  N2_4 
REMARK    2  A    between atoms: C1_6  and  N3_7 
REMARK    3  A    between atoms: C1_6  and  S1_12 
REMARK    4  A    between atoms: N3_7  and  N4_9 
REMARK    5  A    between atoms: S1_12  and  N5_13 
REMARK    6  A    between atoms: S1_12  and  C2_17 
REMARK    7  A    between atoms: N7_20  and  C3_21 
REMARK    8  A    between atoms: C3_21  and  O2_22 
REMARK    9  A    between atoms: O2_22  and  C4_23 
REMARK   10  A    between atoms: C4_23  and  O3_24 
REMARK   11  A    between atoms: C4_23  and  C5_26 
REMARK   12  A    between atoms: C5_26  and  O4_27 
ROOT
HETATM    1  C2  UNL     1      14.763  18.714  77.872  1.00  0.00     0.160 A 
HETATM    2  N6  UNL     1      15.655  17.764  77.876  1.00  0.00    -0.281 N 
ATOM      3  H6  UNL     1      15.566  16.887  77.362  1.00  0.00     0.188 HD
HETATM    4  N7  UNL     1      16.711  18.092  78.648  1.00  0.00    -0.237 N 
HETATM    5  C6  UNL     1      16.488  19.290  79.152  1.00  0.00     0.155 A 
HETATM    6  C7  UNL     1      17.141  20.178  79.967  1.00  0.00     0.277 A 
HETATM    7  O5  UNL     1      18.270  19.838  80.416  1.00  0.00    -0.266 OA
HETATM    8  N8  UNL     1      16.600  21.371  80.271  1.00  0.00    -0.318 N 
ATOM      9  H8  UNL     1      17.121  22.001  80.881  1.00  0.00     0.169 HD
HETATM   10  C8  UNL     1      15.405  21.768  79.808  1.00  0.00     0.184 A 
HETATM   11  N9  UNL     1      14.759  20.910  79.009  1.00  0.00    -0.348 N 
ATOM     12  H9  UNL     1      13.849  21.188  78.643  1.00  0.00     0.167 HD
HETATM   13  C9  UNL     1      15.237  19.705  78.662  1.00  0.00     0.106 A 
ENDROOT
BRANCH   1  14
HETATM   14  S1  UNL     1      13.000  18.817  76.931  1.00  0.00     0.136 S 
HETATM   15  O1  UNL     1      11.788  19.772  77.530  1.00  0.00    -0.235 OA
BRANCH  14  16
HETATM   16  C1  UNL     1      12.999  17.653  75.344  1.00  0.00     0.216 C 
HETATM   17  N2  UNL     1      12.792  16.423  75.344  1.00  0.00    -0.282 N 
ATOM     18  H2  UNL     1      12.603  15.945  76.224  1.00  0.00     0.188 HD
BRANCH  17  19
HETATM   19  N1  UNL     1      12.814  15.694  74.160  1.00  0.00    -0.343 N 
ATOM     20  H12 UNL     1      13.050  16.179  73.295  1.00  0.00     0.176 HD
ATOM     21  H11 UNL     1      12.600  14.697  74.154  1.00  0.00     0.176 HD
ENDBRANCH  17  19
BRANCH  16  22
HETATM   22  N3  UNL     1      13.259  18.322  74.126  1.00  0.00    -0.282 N 
ATOM     23  H3  UNL     1      14.218  18.557  73.871  1.00  0.00     0.188 HD
BRANCH  22  24
HETATM   24  N4  UNL     1      12.217  18.659  73.279  1.00  0.00    -0.343 N 
ATOM     25  H42 UNL     1      11.987  19.644  73.150  1.00  0.00     0.176 HD
ATOM     26  H41 UNL     1      11.692  17.931  72.795  1.00  0.00     0.176 HD
ENDBRANCH  22  24
ENDBRANCH  16  22
ENDBRANCH  14  16
BRANCH  14  27
HETATM   27  N5  UNL     1      13.625  20.182  75.886  1.00  0.00    -0.349 N 
ATOM     28  H52 UNL     1      13.193  20.921  75.332  1.00  0.00     0.166 HD
ATOM     29  H51 UNL     1      14.577  19.882  76.098  1.00  0.00     0.166 HD
ENDBRANCH  14  27
ENDBRANCH   1  14
BRANCH   4  30
HETATM   30  C3  UNL     1      17.840  17.225  78.889  1.00  0.00     0.255 C 
BRANCH  30  31
HETATM   31  O2  UNL     1      18.885  17.272  78.061  1.00  0.00    -0.312 OA
BRANCH  31  32
HETATM   32  C4  UNL     1      20.164  17.406  78.411  1.00  0.00     0.287 C 
BRANCH  32  33
HETATM   33  O3  UNL     1      20.859  18.332  77.572  1.00  0.00    -0.369 OA
ATOM     34  H3  UNL     1      21.795  18.173  77.561  1.00  0.00     0.212 HD
ENDBRANCH  32  33
BRANCH  32  35
HETATM   35  C5  UNL     1      20.967  16.097  78.307  1.00  0.00     0.225 C 
BRANCH  35  36
HETATM   36  O4  UNL     1      20.821  15.598  77.029  1.00  0.00    -0.396 OA
ATOM     37  H4  UNL     1      19.901  15.414  76.883  1.00  0.00     0.209 HD
ENDBRANCH  35  36
ENDBRANCH  32  35
ENDBRANCH  31  32
ENDBRANCH  30  31
ENDBRANCH   4  30
TORSDOF 12
ENDMDL
