MODEL 1
REMARK VINA RESULT: -5.829348813      0.000      0.000
REMARK  10 active torsions:
REMARK  status: ('A' for Active; 'I' for Inactive)
REMARK       I    between atoms: N3_7  and  C4_8 
REMARK    1  A    between atoms: C4_8  and  C5_10 
REMARK    2  A    between atoms: C5_10  and  O2_11 
REMARK    3  A    between atoms: C5_10  and  C6_13 
REMARK    4  A    between atoms: C6_13  and  O3_14 
REMARK    5  A    between atoms: C6_13  and  N4_16 
REMARK    6  A    between atoms: N4_16  and  N5_18 
REMARK    7  A    between atoms: C10_24  and  O5_25 
REMARK    8  A    between atoms: C11_27  and  C12_28 
REMARK    9  A    between atoms: C12_28  and  N6_29 
REMARK   10  A    between atoms: C12_28  and  O6_33 
ROOT
HETATM    1  N5  UNL     1      14.202  18.801  77.955  1.00  0.00    -0.310 N 
ATOM      2  H5  UNL     1      13.819  19.508  78.583  1.00  0.00     0.186 HD
HETATM    3  C7  UNL     1      13.468  18.293  77.049  1.00  0.00     0.011 C 
HETATM    4  C8  UNL     1      14.007  17.269  76.136  1.00  0.00     0.135 C 
HETATM    5  C9  UNL     1      13.382  17.383  74.791  1.00  0.00     0.161 C 
HETATM    6  O4  UNL     1      13.945  16.768  73.877  1.00  0.00    -0.295 OA
HETATM    7  C10 UNL     1      12.172  18.154  74.478  1.00  0.00     0.196 C 
HETATM    8  C11 UNL     1      11.878  19.221  75.495  1.00  0.00     0.083 C 
HETATM    9  C13 UNL     1      12.054  18.737  76.915  1.00  0.00     0.066 C 
ENDROOT
BRANCH   1  10
HETATM   10  N4  UNL     1      15.528  18.393  78.092  1.00  0.00    -0.305 N 
ATOM     11  H4  UNL     1      16.201  18.535  77.339  1.00  0.00     0.183 HD
BRANCH  10  12
HETATM   12  C6  UNL     1      15.921  17.761  79.335  1.00  0.00     0.270 C 
BRANCH  12  13
HETATM   13  C5  UNL     1      17.268  18.306  79.830  1.00  0.00     0.260 C 
BRANCH  13  14
HETATM   14  C4  UNL     1      18.323  17.623  79.049  1.00  0.00     0.259 C 
HETATM   15  N3  UNL     1      19.399  16.939  79.627  1.00  0.00    -0.288 N 
HETATM   16  C1  UNL     1      20.443  16.259  78.898  1.00  0.00     0.193 C 
HETATM   17  C3  UNL     1      19.731  16.760  81.033  1.00  0.00     0.154 C 
HETATM   18  N1  UNL     1      20.366  15.796  77.558  1.00  0.00    -0.063 NA
HETATM   19  N2  UNL     1      21.472  16.130  79.659  1.00  0.00    -0.363 N 
HETATM   20  C2  UNL     1      21.247  16.702  80.967  1.00  0.00     0.142 C 
ATOM     21  H2  UNL     1      22.341  15.679  79.374  1.00  0.00     0.162 HD
HETATM   22  O1  UNL     1      18.237  17.668  77.797  1.00  0.00    -0.270 OA
ENDBRANCH  13  14
BRANCH  13  23
HETATM   23  O2  UNL     1      17.302  19.694  79.618  1.00  0.00    -0.382 OA
ATOM     24  H2  UNL     1      16.827  20.155  80.300  1.00  0.00     0.210 HD
ENDBRANCH  13  23
ENDBRANCH  12  13
BRANCH  12  25
HETATM   25  O3  UNL     1      16.126  16.389  79.126  1.00  0.00    -0.372 OA
ATOM     26  H3  UNL     1      16.765  16.332  78.425  1.00  0.00     0.212 HD
ENDBRANCH  12  25
ENDBRANCH  10  12
ENDBRANCH   1  10
BRANCH   8  27
HETATM   27  C12 UNL     1      10.471  19.753  75.274  1.00  0.00     0.323 C 
BRANCH  27  28
HETATM   28  N6  UNL     1      10.043  20.326  76.548  1.00  0.00    -0.053 N 
ATOM     29  H63 UNL     1       9.173  19.925  76.899  1.00  0.00     0.277 HD
ATOM     30  H62 UNL     1      10.634  20.053  77.333  1.00  0.00     0.277 HD
ATOM     31  H61 UNL     1       9.996  21.335  76.408  1.00  0.00     0.277 HD
ENDBRANCH  27  28
BRANCH  27  32
HETATM   32  O6  UNL     1      10.450  20.715  74.271  1.00  0.00    -0.369 OA
ATOM     33  H6  UNL     1      10.945  20.431  73.512  1.00  0.00     0.212 HD
ENDBRANCH  27  32
ENDBRANCH   8  27
BRANCH   7  34
HETATM   34  O5  UNL     1      12.400  18.820  73.252  1.00  0.00    -0.388 OA
ATOM     35  H5  UNL     1      12.134  19.725  73.367  1.00  0.00     0.210 HD
ENDBRANCH   7  34
TORSDOF 10
ENDMDL
MODEL 2
REMARK VINA RESULT: -5.683641988      4.209      6.464
REMARK  10 active torsions:
REMARK  status: ('A' for Active; 'I' for Inactive)
REMARK       I    between atoms: N3_7  and  C4_8 
REMARK    1  A    between atoms: C4_8  and  C5_10 
REMARK    2  A    between atoms: C5_10  and  O2_11 
REMARK    3  A    between atoms: C5_10  and  C6_13 
REMARK    4  A    between atoms: C6_13  and  O3_14 
REMARK    5  A    between atoms: C6_13  and  N4_16 
REMARK    6  A    between atoms: N4_16  and  N5_18 
REMARK    7  A    between atoms: C10_24  and  O5_25 
REMARK    8  A    between atoms: C11_27  and  C12_28 
REMARK    9  A    between atoms: C12_28  and  N6_29 
REMARK   10  A    between atoms: C12_28  and  O6_33 
ROOT
HETATM    1  N5  UNL     1      10.495  20.139  74.912  1.00  0.00    -0.310 N 
ATOM      2  H5  UNL     1      11.030  20.831  74.388  1.00  0.00     0.186 HD
HETATM    3  C7  UNL     1       9.321  20.418  75.316  1.00  0.00     0.011 C 
HETATM    4  C8  UNL     1       8.537  19.428  76.076  1.00  0.00     0.135 C 
HETATM    5  C9  UNL     1       7.086  19.566  75.777  1.00  0.00     0.161 C 
HETATM    6  O4  UNL     1       6.367  18.625  76.135  1.00  0.00    -0.295 OA
HETATM    7  C10 UNL     1       6.461  20.711  75.104  1.00  0.00     0.196 C 
HETATM    8  C11 UNL     1       7.437  21.518  74.294  1.00  0.00     0.083 C 
HETATM    9  C13 UNL     1       8.741  21.756  75.020  1.00  0.00     0.066 C 
ENDROOT
BRANCH   1  10
HETATM   10  N4  UNL     1      11.050  18.890  75.184  1.00  0.00    -0.305 N 
ATOM     11  H4  UNL     1      10.877  18.420  76.073  1.00  0.00     0.183 HD
BRANCH  10  12
HETATM   12  C6  UNL     1      11.879  18.276  74.166  1.00  0.00     0.270 C 
BRANCH  12  13
HETATM   13  C5  UNL     1      13.297  18.013  74.692  1.00  0.00     0.260 C 
BRANCH  13  14
HETATM   14  C4  UNL     1      13.194  17.884  76.162  1.00  0.00     0.259 C 
HETATM   15  N3  UNL     1      13.637  18.861  77.062  1.00  0.00    -0.288 N 
HETATM   16  C1  UNL     1      13.549  18.772  78.500  1.00  0.00     0.193 C 
HETATM   17  C3  UNL     1      14.278  20.140  76.793  1.00  0.00     0.154 C 
HETATM   18  N1  UNL     1      12.663  17.943  79.237  1.00  0.00    -0.063 NA
HETATM   19  N2  UNL     1      14.409  19.573  79.024  1.00  0.00    -0.363 N 
HETATM   20  C2  UNL     1      15.166  20.282  78.018  1.00  0.00     0.142 C 
ATOM     21  H2  UNL     1      14.540  19.694  80.029  1.00  0.00     0.162 HD
HETATM   22  O1  UNL     1      12.678  16.833  76.618  1.00  0.00    -0.270 OA
ENDBRANCH  13  14
BRANCH  13  23
HETATM   23  O2  UNL     1      13.783  16.828  74.115  1.00  0.00    -0.382 OA
ATOM     24  H2  UNL     1      13.202  16.520  73.429  1.00  0.00     0.210 HD
ENDBRANCH  13  23
ENDBRANCH  12  13
BRANCH  12  25
HETATM   25  O3  UNL     1      12.037  19.160  73.088  1.00  0.00    -0.372 OA
ATOM     26  H3  UNL     1      11.172  19.252  72.706  1.00  0.00     0.212 HD
ENDBRANCH  12  25
ENDBRANCH  10  12
ENDBRANCH   1  10
BRANCH   8  27
HETATM   27  C12 UNL     1       6.793  22.835  73.894  1.00  0.00     0.323 C 
BRANCH  27  28
HETATM   28  N6  UNL     1       7.747  23.884  74.242  1.00  0.00    -0.053 N 
ATOM     29  H63 UNL     1       7.467  24.810  73.919  1.00  0.00     0.277 HD
ATOM     30  H62 UNL     1       7.766  24.099  75.239  1.00  0.00     0.277 HD
ATOM     31  H61 UNL     1       8.652  23.585  73.877  1.00  0.00     0.277 HD
ENDBRANCH  27  28
BRANCH  27  32
HETATM   32  O6  UNL     1       6.509  22.862  72.533  1.00  0.00    -0.369 OA
ATOM     33  H6  UNL     1       6.934  23.598  72.108  1.00  0.00     0.212 HD
ENDBRANCH  27  32
ENDBRANCH   8  27
BRANCH   7  34
HETATM   34  O5  UNL     1       5.511  20.200  74.192  1.00  0.00    -0.388 OA
ATOM     35  H5  UNL     1       4.883  19.691  74.691  1.00  0.00     0.210 HD
ENDBRANCH   7  34
TORSDOF 10
ENDMDL
MODEL 3
REMARK VINA RESULT: -5.676665178      1.107      1.214
REMARK  10 active torsions:
REMARK  status: ('A' for Active; 'I' for Inactive)
REMARK       I    between atoms: N3_7  and  C4_8 
REMARK    1  A    between atoms: C4_8  and  C5_10 
REMARK    2  A    between atoms: C5_10  and  O2_11 
REMARK    3  A    between atoms: C5_10  and  C6_13 
REMARK    4  A    between atoms: C6_13  and  O3_14 
REMARK    5  A    between atoms: C6_13  and  N4_16 
REMARK    6  A    between atoms: N4_16  and  N5_18 
REMARK    7  A    between atoms: C10_24  and  O5_25 
REMARK    8  A    between atoms: C11_27  and  C12_28 
REMARK    9  A    between atoms: C12_28  and  N6_29 
REMARK   10  A    between atoms: C12_28  and  O6_33 
ROOT
HETATM    1  N5  UNL     1      14.167  18.715  77.589  1.00  0.00    -0.310 N 
ATOM      2  H5  UNL     1      13.828  19.352  78.309  1.00  0.00     0.186 HD
HETATM    3  C7  UNL     1      13.369  18.282  76.697  1.00  0.00     0.011 C 
HETATM    4  C8  UNL     1      13.846  17.360  75.651  1.00  0.00     0.135 C 
HETATM    5  C9  UNL     1      13.116  17.590  74.376  1.00  0.00     0.161 C 
HETATM    6  O4  UNL     1      13.612  17.075  73.366  1.00  0.00    -0.295 OA
HETATM    7  C10 UNL     1      11.878  18.366  74.232  1.00  0.00     0.196 C 
HETATM    8  C11 UNL     1      11.654  19.327  75.367  1.00  0.00     0.083 C 
HETATM    9  C13 UNL     1      11.945  18.713  76.716  1.00  0.00     0.066 C 
ENDROOT
BRANCH   1  10
HETATM   10  N4  UNL     1      15.504  18.318  77.583  1.00  0.00    -0.305 N 
ATOM     11  H4  UNL     1      15.862  17.690  76.864  1.00  0.00     0.183 HD
BRANCH  10  12
HETATM   12  C6  UNL     1      16.369  18.826  78.629  1.00  0.00     0.270 C 
BRANCH  12  13
HETATM   13  C5  UNL     1      16.857  17.691  79.541  1.00  0.00     0.260 C 
BRANCH  13  14
HETATM   14  C4  UNL     1      18.091  17.148  78.932  1.00  0.00     0.259 C 
HETATM   15  N3  UNL     1      18.740  15.995  79.386  1.00  0.00    -0.288 N 
HETATM   16  C1  UNL     1      19.941  15.434  78.815  1.00  0.00     0.193 C 
HETATM   17  C3  UNL     1      18.398  15.120  80.498  1.00  0.00     0.154 C 
HETATM   18  N1  UNL     1      20.432  15.660  77.501  1.00  0.00    -0.063 NA
HETATM   19  N2  UNL     1      20.512  14.681  79.689  1.00  0.00    -0.363 N 
HETATM   20  C2  UNL     1      19.775  14.650  80.932  1.00  0.00     0.142 C 
ATOM     21  H2  UNL     1      21.378  14.169  79.525  1.00  0.00     0.162 HD
HETATM   22  O1  UNL     1      18.575  17.768  77.952  1.00  0.00    -0.270 OA
ENDBRANCH  13  14
BRANCH  13  23
HETATM   23  O2  UNL     1      17.114  18.216  80.819  1.00  0.00    -0.382 OA
ATOM     24  H2  UNL     1      17.187  17.522  81.464  1.00  0.00     0.210 HD
ENDBRANCH  13  23
ENDBRANCH  12  13
BRANCH  12  25
HETATM   25  O3  UNL     1      15.648  19.693  79.462  1.00  0.00    -0.372 OA
ATOM     26  H3  UNL     1      15.175  20.272  78.876  1.00  0.00     0.212 HD
ENDBRANCH  12  25
ENDBRANCH  10  12
ENDBRANCH   1  10
BRANCH   8  27
HETATM   27  C12 UNL     1      10.229  19.853  75.307  1.00  0.00     0.323 C 
BRANCH  27  28
HETATM   28  N6  UNL     1       9.878  20.245  76.670  1.00  0.00    -0.053 N 
ATOM     29  H63 UNL     1      10.468  19.812  77.381  1.00  0.00     0.277 HD
ATOM     30  H62 UNL     1      10.112  21.214  76.884  1.00  0.00     0.277 HD
ATOM     31  H61 UNL     1       8.886  20.035  76.783  1.00  0.00     0.277 HD
ENDBRANCH  27  28
BRANCH  27  32
HETATM   32  O6  UNL     1      10.131  20.938  74.443  1.00  0.00    -0.369 OA
ATOM     33  H6  UNL     1       9.250  21.292  74.437  1.00  0.00     0.212 HD
ENDBRANCH  27  32
ENDBRANCH   8  27
BRANCH   7  34
HETATM   34  O5  UNL     1      12.003  19.150  73.063  1.00  0.00    -0.388 OA
ATOM     35  H5  UNL     1      12.930  19.229  72.871  1.00  0.00     0.210 HD
ENDBRANCH   7  34
TORSDOF 10
ENDMDL
MODEL 4
REMARK VINA RESULT: -5.647487732      1.503      2.258
REMARK  10 active torsions:
REMARK  status: ('A' for Active; 'I' for Inactive)
REMARK       I    between atoms: N3_7  and  C4_8 
REMARK    1  A    between atoms: C4_8  and  C5_10 
REMARK    2  A    between atoms: C5_10  and  O2_11 
REMARK    3  A    between atoms: C5_10  and  C6_13 
REMARK    4  A    between atoms: C6_13  and  O3_14 
REMARK    5  A    between atoms: C6_13  and  N4_16 
REMARK    6  A    between atoms: N4_16  and  N5_18 
REMARK    7  A    between atoms: C10_24  and  O5_25 
REMARK    8  A    between atoms: C11_27  and  C12_28 
REMARK    9  A    between atoms: C12_28  and  N6_29 
REMARK   10  A    between atoms: C12_28  and  O6_33 
ROOT
HETATM    1  N5  UNL     1      14.930  17.764  77.212  1.00  0.00    -0.310 N 
ATOM      2  H5  UNL     1      15.377  16.856  77.094  1.00  0.00     0.186 HD
HETATM    3  C7  UNL     1      14.113  18.189  76.334  1.00  0.00     0.011 C 
HETATM    4  C8  UNL     1      13.461  19.501  76.492  1.00  0.00     0.135 C 
HETATM    5  C9  UNL     1      12.092  19.480  75.911  1.00  0.00     0.161 C 
HETATM    6  O4  UNL     1      11.355  20.424  76.224  1.00  0.00    -0.295 OA
HETATM    7  C10 UNL     1      11.564  18.445  75.013  1.00  0.00     0.196 C 
HETATM    8  C11 UNL     1      12.321  17.150  75.104  1.00  0.00     0.083 C 
HETATM    9  C13 UNL     1      13.818  17.351  75.140  1.00  0.00     0.066 C 
ENDROOT
BRANCH   1  10
HETATM   10  N4  UNL     1      15.215  18.540  78.335  1.00  0.00    -0.305 N 
ATOM     11  H4  UNL     1      15.056  19.548  78.331  1.00  0.00     0.183 HD
BRANCH  10  12
HETATM   12  C6  UNL     1      15.745  17.873  79.507  1.00  0.00     0.270 C 
BRANCH  12  13
HETATM   13  C5  UNL     1      17.104  18.462  79.912  1.00  0.00     0.260 C 
BRANCH  13  14
HETATM   14  C4  UNL     1      18.133  17.758  79.117  1.00  0.00     0.259 C 
HETATM   15  N3  UNL     1      19.239  17.108  79.677  1.00  0.00    -0.288 N 
HETATM   16  C1  UNL     1      20.260  16.408  78.934  1.00  0.00     0.193 C 
HETATM   17  C3  UNL     1      19.630  16.989  81.074  1.00  0.00     0.154 C 
HETATM   18  N1  UNL     1      20.134  15.890  77.617  1.00  0.00    -0.063 NA
HETATM   19  N2  UNL     1      21.321  16.320  79.657  1.00  0.00    -0.363 N 
HETATM   20  C2  UNL     1      21.143  16.943  80.949  1.00  0.00     0.142 C 
ATOM     21  H2  UNL     1      22.183  15.866  79.354  1.00  0.00     0.162 HD
HETATM   22  O1  UNL     1      17.997  17.751  77.868  1.00  0.00    -0.270 OA
ENDBRANCH  13  14
BRANCH  13  23
HETATM   23  O2  UNL     1      17.103  19.838  79.632  1.00  0.00    -0.382 OA
ATOM     24  H2  UNL     1      16.900  20.345  80.409  1.00  0.00     0.210 HD
ENDBRANCH  13  23
ENDBRANCH  12  13
BRANCH  12  25
HETATM   25  O3  UNL     1      15.994  16.524  79.213  1.00  0.00    -0.372 OA
ATOM     26  H3  UNL     1      16.633  16.238  79.855  1.00  0.00     0.212 HD
ENDBRANCH  12  25
ENDBRANCH  10  12
ENDBRANCH   1  10
BRANCH   8  27
HETATM   27  C12 UNL     1      11.924  16.252  73.944  1.00  0.00     0.323 C 
BRANCH  27  28
HETATM   28  N6  UNL     1      10.719  15.541  74.366  1.00  0.00    -0.053 N 
ATOM     29  H63 UNL     1      10.215  15.106  73.593  1.00  0.00     0.277 HD
ATOM     30  H62 UNL     1      10.916  14.686  74.886  1.00  0.00     0.277 HD
ATOM     31  H61 UNL     1      10.157  16.212  74.890  1.00  0.00     0.277 HD
ENDBRANCH  27  28
BRANCH  27  32
HETATM   32  O6  UNL     1      11.677  16.995  72.795  1.00  0.00    -0.369 OA
ATOM     33  H6  UNL     1      12.471  17.116  72.288  1.00  0.00     0.212 HD
ENDBRANCH  27  32
ENDBRANCH   8  27
BRANCH   7  34
HETATM   34  O5  UNL     1      10.240  18.165  75.422  1.00  0.00    -0.388 OA
ATOM     35  H5  UNL     1      10.127  17.223  75.394  1.00  0.00     0.210 HD
ENDBRANCH   7  34
TORSDOF 10
ENDMDL
MODEL 5
REMARK VINA RESULT: -5.603146880      6.071      9.990
REMARK  10 active torsions:
REMARK  status: ('A' for Active; 'I' for Inactive)
REMARK       I    between atoms: N3_7  and  C4_8 
REMARK    1  A    between atoms: C4_8  and  C5_10 
REMARK    2  A    between atoms: C5_10  and  O2_11 
REMARK    3  A    between atoms: C5_10  and  C6_13 
REMARK    4  A    between atoms: C6_13  and  O3_14 
REMARK    5  A    between atoms: C6_13  and  N4_16 
REMARK    6  A    between atoms: N4_16  and  N5_18 
REMARK    7  A    between atoms: C10_24  and  O5_25 
REMARK    8  A    between atoms: C11_27  and  C12_28 
REMARK    9  A    between atoms: C12_28  and  N6_29 
REMARK   10  A    between atoms: C12_28  and  O6_33 
ROOT
HETATM    1  N5  UNL     1       8.533  18.969  76.147  1.00  0.00    -0.310 N 
ATOM      2  H5  UNL     1       7.890  18.315  75.702  1.00  0.00     0.186 HD
HETATM    3  C7  UNL     1       9.762  18.664  76.275  1.00  0.00     0.011 C 
HETATM    4  C8  UNL     1      10.702  19.599  76.917  1.00  0.00     0.135 C 
HETATM    5  C9  UNL     1      12.055  19.483  76.310  1.00  0.00     0.161 C 
HETATM    6  O4  UNL     1      12.848  20.397  76.571  1.00  0.00    -0.295 OA
HETATM    7  C10 UNL     1      12.508  18.388  75.443  1.00  0.00     0.196 C 
HETATM    8  C11 UNL     1      11.372  17.639  74.805  1.00  0.00     0.083 C 
HETATM    9  C13 UNL     1      10.248  17.350  75.772  1.00  0.00     0.066 C 
ENDROOT
BRANCH   1  10
HETATM   10  N4  UNL     1       8.066  20.196  76.614  1.00  0.00    -0.305 N 
ATOM     11  H4  UNL     1       8.301  20.526  77.550  1.00  0.00     0.183 HD
BRANCH  10  12
HETATM   12  C6  UNL     1       7.237  20.991  75.730  1.00  0.00     0.270 C 
BRANCH  12  13
HETATM   13  C5  UNL     1       8.066  22.065  75.012  1.00  0.00     0.260 C 
BRANCH  13  14
HETATM   14  C4  UNL     1       8.375  23.111  76.011  1.00  0.00     0.259 C 
HETATM   15  N3  UNL     1       7.946  24.439  75.904  1.00  0.00    -0.288 N 
HETATM   16  C1  UNL     1       8.224  25.485  76.860  1.00  0.00     0.193 C 
HETATM   17  C3  UNL     1       7.166  25.075  74.853  1.00  0.00     0.154 C 
HETATM   18  N1  UNL     1       8.582  25.304  78.222  1.00  0.00    -0.063 NA
HETATM   19  N2  UNL     1       8.094  26.628  76.283  1.00  0.00    -0.363 N 
HETATM   20  C2  UNL     1       7.722  26.488  74.893  1.00  0.00     0.142 C 
ATOM     21  H2  UNL     1       8.235  27.523  76.750  1.00  0.00     0.162 HD
HETATM   22  O1  UNL     1       9.063  22.776  77.007  1.00  0.00    -0.270 OA
ENDBRANCH  13  14
BRANCH  13  23
HETATM   23  O2  UNL     1       9.243  21.476  74.519  1.00  0.00    -0.382 OA
ATOM     24  H2  UNL     1      10.011  21.847  74.936  1.00  0.00     0.210 HD
ENDBRANCH  13  23
ENDBRANCH  12  13
BRANCH  12  25
HETATM   25  O3  UNL     1       6.282  21.694  76.479  1.00  0.00    -0.372 OA
ATOM     26  H3  UNL     1       6.291  22.579  76.135  1.00  0.00     0.212 HD
ENDBRANCH  12  25
ENDBRANCH  10  12
ENDBRANCH   1  10
BRANCH   8  27
HETATM   27  C12 UNL     1      11.900  16.353  74.190  1.00  0.00     0.323 C 
BRANCH  27  28
HETATM   28  N6  UNL     1      12.051  16.611  72.760  1.00  0.00    -0.053 N 
ATOM     29  H63 UNL     1      12.574  17.463  72.556  1.00  0.00     0.277 HD
ATOM     30  H62 UNL     1      12.684  15.960  72.296  1.00  0.00     0.277 HD
ATOM     31  H61 UNL     1      11.110  16.610  72.366  1.00  0.00     0.277 HD
ENDBRANCH  27  28
BRANCH  27  32
HETATM   32  O6  UNL     1      13.117  15.989  74.754  1.00  0.00    -0.369 OA
ATOM     33  H6  UNL     1      13.288  15.062  74.633  1.00  0.00     0.212 HD
ENDBRANCH  27  32
ENDBRANCH   8  27
BRANCH   7  34
HETATM   34  O5  UNL     1      13.253  18.962  74.389  1.00  0.00    -0.388 OA
ATOM     35  H5  UNL     1      13.969  19.450  74.778  1.00  0.00     0.210 HD
ENDBRANCH   7  34
TORSDOF 10
ENDMDL
