MODEL 1
REMARK VINA RESULT: -9.574860309      0.000      0.000
REMARK  9 active torsions:
REMARK  status: ('A' for Active; 'I' for Inactive)
REMARK    1  A    between atoms: N1_2  and  C3_4 
REMARK    2  A    between atoms: N3_9  and  C6_10 
REMARK    3  A    between atoms: C6_10  and  O1_11 
REMARK    4  A    between atoms: C6_10  and  C7_13 
REMARK    5  A    between atoms: C7_13  and  N4_14 
REMARK    6  A    between atoms: C7_13  and  C9_21 
REMARK    7  A    between atoms: N4_14  and  C8_16 
REMARK    8  A    between atoms: C8_16  and  O2_17 
REMARK    9  A    between atoms: C8_16  and  O3_19 
ROOT
HETATM    1  C6  UNL     1       4.333   1.974  19.638  1.00  0.00     0.266 C 
ENDROOT
BRANCH   1   2
HETATM    2  N3  UNL     1       3.685   1.650  20.891  1.00  0.00    -0.256 N 
HETATM    3  C5  UNL     1       2.336   1.201  20.879  1.00  0.00     0.204 A 
HETATM    4  N2  UNL     1       1.714   0.896  21.993  1.00  0.00    -0.346 N 
HETATM    5  C4  UNL     1       2.372   1.006  23.249  1.00  0.00     0.108 A 
ATOM      6  H2  UNL     1       0.745   0.577  21.957  1.00  0.00     0.167 HD
HETATM    7  C3  UNL     1       1.787   0.709  24.408  1.00  0.00     0.133 A 
HETATM    8  C13 UNL     1       3.755   1.467  23.239  1.00  0.00     0.106 A 
HETATM    9  N10 UNL     1       2.455   0.822  25.659  1.00  0.00    -0.328 N 
HETATM   10  C15 UNL     1       3.803   1.272  25.647  1.00  0.00     0.144 A 
ATOM     11  H10 UNL     1       1.984   0.589  26.533  1.00  0.00     0.168 HD
HETATM   12  C14 UNL     1       4.450   1.587  24.514  1.00  0.00     0.117 A 
HETATM   13  N9  UNL     1       4.472   1.386  26.886  1.00  0.00    -0.081 NA
HETATM   14  N8  UNL     1       5.799   2.037  24.510  1.00  0.00    -0.096 NA
HETATM   15  N7  UNL     1       4.332   1.758  22.121  1.00  0.00    -0.291 N 
ATOM     16  H7  UNL     1       5.300   2.079  22.138  1.00  0.00     0.187 HD
BRANCH   7  17
HETATM   17  N1  UNL     1       0.445   0.262  24.398  1.00  0.00    -0.374 N 
HETATM   18  C1  UNL     1      -0.700   1.147  24.302  1.00  0.00     0.150 C 
HETATM   19  C2  UNL     1       0.136  -1.171  24.488  1.00  0.00     0.150 C 
ENDBRANCH   7  17
ENDBRANCH   1   2
BRANCH   1  20
HETATM   20  O1  UNL     1       3.405   1.751  18.639  1.00  0.00    -0.373 OA
ATOM     21  H1  UNL     1       2.602   2.182  18.910  1.00  0.00     0.212 HD
ENDBRANCH   1  20
BRANCH   1  22
HETATM   22  C7  UNL     1       5.515   1.091  19.452  1.00  0.00     0.171 C 
BRANCH  22  23
HETATM   23  N4  UNL     1       6.654   1.517  20.228  1.00  0.00    -0.365 N 
ATOM     24  H4  UNL     1       6.999   2.474  20.156  1.00  0.00     0.158 HD
BRANCH  23  25
HETATM   25  C8  UNL     1       7.276   0.604  21.074  1.00  0.00     0.361 C 
BRANCH  25  26
HETATM   26  O2  UNL     1       6.541  -0.047  22.019  1.00  0.00    -0.355 OA
ATOM     27  H2  UNL     1       6.898  -0.166  22.892  1.00  0.00     0.214 HD
ENDBRANCH  25  26
BRANCH  25  28
HETATM   28  O3  UNL     1       8.339   1.243  21.757  1.00  0.00    -0.355 OA
ATOM     29  H3  UNL     1       8.367   0.936  22.656  1.00  0.00     0.214 HD
ENDBRANCH  25  28
ENDBRANCH  23  25
ENDBRANCH  22  23
BRANCH  22  30
HETATM   30  C9  UNL     1       5.884   0.793  18.023  1.00  0.00     0.303 C 
HETATM   31  N5  UNL     1       7.268   1.281  17.819  1.00  0.00    -0.059 N 
HETATM   32  C10 UNL     1       8.027   0.398  16.954  1.00  0.00     0.253 C 
ATOM     33  H52 UNL     1       7.276   2.240  17.471  1.00  0.00     0.278 HD
ATOM     34  H51 UNL     1       7.745   1.431  18.708  1.00  0.00     0.278 HD
HETATM   35  C11 UNL     1       8.363  -0.841  17.818  1.00  0.00     0.150 C 
HETATM   36  N6  UNL     1       7.022  -1.427  18.037  1.00  0.00    -0.358 N 
HETATM   37  C12 UNL     1       5.876  -0.628  17.654  1.00  0.00     0.250 C 
ATOM     38  H6  UNL     1       6.909  -2.356  18.442  1.00  0.00     0.162 HD
HETATM   39  O4  UNL     1       4.942  -1.199  17.023  1.00  0.00    -0.271 OA
ENDBRANCH  22  30
ENDBRANCH   1  22
TORSDOF 9
ENDMDL
MODEL 2
REMARK VINA RESULT: -9.561741794      1.677      2.296
REMARK  9 active torsions:
REMARK  status: ('A' for Active; 'I' for Inactive)
REMARK    1  A    between atoms: N1_2  and  C3_4 
REMARK    2  A    between atoms: N3_9  and  C6_10 
REMARK    3  A    between atoms: C6_10  and  O1_11 
REMARK    4  A    between atoms: C6_10  and  C7_13 
REMARK    5  A    between atoms: C7_13  and  N4_14 
REMARK    6  A    between atoms: C7_13  and  C9_21 
REMARK    7  A    between atoms: N4_14  and  C8_16 
REMARK    8  A    between atoms: C8_16  and  O2_17 
REMARK    9  A    between atoms: C8_16  and  O3_19 
ROOT
HETATM    1  C6  UNL     1       3.912   0.408  18.923  1.00  0.00     0.266 C 
ENDROOT
BRANCH   1   2
HETATM    2  N3  UNL     1       3.626   0.653  20.321  1.00  0.00    -0.256 N 
HETATM    3  C5  UNL     1       2.279   0.850  20.731  1.00  0.00     0.204 A 
HETATM    4  N2  UNL     1       1.979   1.074  21.988  1.00  0.00    -0.346 N 
HETATM    5  C4  UNL     1       2.995   1.125  22.982  1.00  0.00     0.108 A 
ATOM      6  H2  UNL     1       1.004   1.212  22.256  1.00  0.00     0.167 HD
HETATM    7  C3  UNL     1       2.745   1.348  24.271  1.00  0.00     0.133 A 
HETATM    8  C13 UNL     1       4.370   0.920  22.541  1.00  0.00     0.106 A 
HETATM    9  N10 UNL     1       3.770   1.398  25.256  1.00  0.00    -0.328 N 
HETATM   10  C15 UNL     1       5.108   1.197  24.824  1.00  0.00     0.144 A 
ATOM     11  H10 UNL     1       3.552   1.571  26.238  1.00  0.00     0.168 HD
HETATM   12  C14 UNL     1       5.428   0.968  23.541  1.00  0.00     0.117 A 
HETATM   13  N9  UNL     1       6.130   1.245  25.799  1.00  0.00    -0.081 NA
HETATM   14  N8  UNL     1       6.771   0.769  23.117  1.00  0.00    -0.096 NA
HETATM   15  N7  UNL     1       4.624   0.703  21.294  1.00  0.00    -0.291 N 
ATOM     16  H7  UNL     1       5.593   0.562  21.008  1.00  0.00     0.187 HD
BRANCH   7  17
HETATM   17  N1  UNL     1       1.405   1.544  24.679  1.00  0.00    -0.374 N 
HETATM   18  C1  UNL     1       0.464   0.466  24.905  1.00  0.00     0.150 C 
HETATM   19  C2  UNL     1       0.885   2.900  24.900  1.00  0.00     0.150 C 
ENDBRANCH   7  17
ENDBRANCH   1   2
BRANCH   1  20
HETATM   20  O1  UNL     1       3.545  -0.898  18.665  1.00  0.00    -0.373 OA
ATOM     21  H1  UNL     1       3.658  -1.035  17.731  1.00  0.00     0.212 HD
ENDBRANCH   1  20
BRANCH   1  22
HETATM   22  C7  UNL     1       5.366   0.595  18.678  1.00  0.00     0.171 C 
BRANCH  22  23
HETATM   23  N4  UNL     1       5.646   1.733  17.837  1.00  0.00    -0.365 N 
ATOM     24  H4  UNL     1       5.568   1.658  16.823  1.00  0.00     0.158 HD
BRANCH  23  25
HETATM   25  C8  UNL     1       6.025   2.935  18.429  1.00  0.00     0.361 C 
BRANCH  25  26
HETATM   26  O2  UNL     1       6.856   2.921  19.508  1.00  0.00    -0.355 OA
ATOM     27  H2  UNL     1       6.497   3.053  20.378  1.00  0.00     0.214 HD
ENDBRANCH  25  26
BRANCH  25  28
HETATM   28  O3  UNL     1       4.869   3.654  18.815  1.00  0.00    -0.355 OA
ATOM     29  H3  UNL     1       5.127   4.436  19.291  1.00  0.00     0.214 HD
ENDBRANCH  25  28
ENDBRANCH  23  25
ENDBRANCH  22  23
BRANCH  22  30
HETATM   30  C9  UNL     1       6.112  -0.635  18.233  1.00  0.00     0.303 C 
HETATM   31  N5  UNL     1       6.310  -0.518  16.769  1.00  0.00    -0.059 N 
HETATM   32  C10 UNL     1       7.603  -1.031  16.359  1.00  0.00     0.253 C 
ATOM     33  H52 UNL     1       5.552  -0.966  16.254  1.00  0.00     0.278 HD
ATOM     34  H51 UNL     1       6.173   0.442  16.450  1.00  0.00     0.278 HD
HETATM   35  C11 UNL     1       8.633   0.037  16.800  1.00  0.00     0.150 C 
HETATM   36  N6  UNL     1       8.535  -0.043  18.274  1.00  0.00    -0.358 N 
HETATM   37  C12 UNL     1       7.442  -0.815  18.828  1.00  0.00     0.250 C 
ATOM     38  H6  UNL     1       9.211   0.428  18.877  1.00  0.00     0.162 HD
HETATM   39  O4  UNL     1       7.697  -1.599  19.785  1.00  0.00    -0.271 OA
ENDBRANCH  22  30
ENDBRANCH   1  22
TORSDOF 9
ENDMDL
MODEL 3
REMARK VINA RESULT: -9.540589854      2.363      7.157
REMARK  9 active torsions:
REMARK  status: ('A' for Active; 'I' for Inactive)
REMARK    1  A    between atoms: N1_2  and  C3_4 
REMARK    2  A    between atoms: N3_9  and  C6_10 
REMARK    3  A    between atoms: C6_10  and  O1_11 
REMARK    4  A    between atoms: C6_10  and  C7_13 
REMARK    5  A    between atoms: C7_13  and  N4_14 
REMARK    6  A    between atoms: C7_13  and  C9_21 
REMARK    7  A    between atoms: N4_14  and  C8_16 
REMARK    8  A    between atoms: C8_16  and  O2_17 
REMARK    9  A    between atoms: C8_16  and  O3_19 
ROOT
HETATM    1  C6  UNL     1       6.219   0.333  23.599  1.00  0.00     0.266 C 
ENDROOT
BRANCH   1   2
HETATM    2  N3  UNL     1       6.330   0.356  22.156  1.00  0.00    -0.256 N 
HETATM    3  C5  UNL     1       7.445  -0.267  21.535  1.00  0.00     0.204 A 
HETATM    4  N2  UNL     1       7.582  -0.269  20.230  1.00  0.00    -0.346 N 
HETATM    5  C4  UNL     1       6.614   0.356  19.396  1.00  0.00     0.108 A 
ATOM      6  H2  UNL     1       8.392  -0.724  19.809  1.00  0.00     0.167 HD
HETATM    7  C3  UNL     1       6.703   0.383  18.067  1.00  0.00     0.133 A 
HETATM    8  C13 UNL     1       5.477   0.990  20.053  1.00  0.00     0.106 A 
HETATM    9  N10 UNL     1       5.730   1.011  17.243  1.00  0.00    -0.328 N 
HETATM   10  C15 UNL     1       4.622   1.628  17.885  1.00  0.00     0.144 A 
ATOM     11  H10 UNL     1       5.822   1.019  16.227  1.00  0.00     0.168 HD
HETATM   12  C14 UNL     1       4.472   1.636  19.219  1.00  0.00     0.117 A 
HETATM   13  N9  UNL     1       3.651   2.253  17.071  1.00  0.00    -0.081 NA
HETATM   14  N8  UNL     1       3.361   2.257  19.854  1.00  0.00    -0.096 NA
HETATM   15  N7  UNL     1       5.379   0.969  21.340  1.00  0.00    -0.291 N 
ATOM     16  H7  UNL     1       4.576   1.419  21.778  1.00  0.00     0.187 HD
BRANCH   7  17
HETATM   17  N1  UNL     1       7.813  -0.238  17.448  1.00  0.00    -0.374 N 
HETATM   18  C1  UNL     1       8.974   0.483  16.961  1.00  0.00     0.150 C 
HETATM   19  C2  UNL     1       7.844  -1.695  17.261  1.00  0.00     0.150 C 
ENDBRANCH   7  17
ENDBRANCH   1   2
BRANCH   1  20
HETATM   20  O1  UNL     1       5.573  -0.843  23.930  1.00  0.00    -0.373 OA
ATOM     21  H1  UNL     1       6.044  -1.217  24.666  1.00  0.00     0.212 HD
ENDBRANCH   1  20
BRANCH   1  22
HETATM   22  C7  UNL     1       5.423   1.504  24.051  1.00  0.00     0.171 C 
BRANCH  22  23
HETATM   23  N4  UNL     1       6.093   2.272  25.071  1.00  0.00    -0.365 N 
ATOM     24  H4  UNL     1       5.631   3.072  25.503  1.00  0.00     0.158 HD
BRANCH  23  25
HETATM   25  C8  UNL     1       7.380   1.906  25.458  1.00  0.00     0.361 C 
BRANCH  25  26
HETATM   26  O2  UNL     1       7.624   1.580  26.758  1.00  0.00    -0.355 OA
ATOM     27  H2  UNL     1       7.134   2.009  27.450  1.00  0.00     0.214 HD
ENDBRANCH  25  26
BRANCH  25  28
HETATM   28  O3  UNL     1       8.284   2.942  25.123  1.00  0.00    -0.355 OA
ATOM     29  H3  UNL     1       8.012   3.347  24.308  1.00  0.00     0.214 HD
ENDBRANCH  25  28
ENDBRANCH  23  25
ENDBRANCH  22  23
BRANCH  22  30
HETATM   30  C9  UNL     1       3.989   1.215  24.411  1.00  0.00     0.303 C 
HETATM   31  N5  UNL     1       3.597   2.190  25.456  1.00  0.00    -0.059 N 
HETATM   32  C10 UNL     1       2.225   2.631  25.291  1.00  0.00     0.253 C 
ATOM     33  H52 UNL     1       3.758   1.817  26.392  1.00  0.00     0.278 HD
ATOM     34  H51 UNL     1       4.241   2.981  25.488  1.00  0.00     0.278 HD
HETATM   35  C11 UNL     1       2.244   3.604  24.088  1.00  0.00     0.150 C 
HETATM   36  N6  UNL     1       2.588   2.694  22.972  1.00  0.00    -0.358 N 
HETATM   37  C12 UNL     1       3.023   1.356  23.314  1.00  0.00     0.250 C 
ATOM     38  H6  UNL     1       2.522   2.998  22.001  1.00  0.00     0.162 HD
HETATM   39  O4  UNL     1       2.544   0.391  22.654  1.00  0.00    -0.271 OA
ENDBRANCH  22  30
ENDBRANCH   1  22
TORSDOF 9
ENDMDL
MODEL 4
REMARK VINA RESULT: -9.536345309      1.962      3.467
REMARK  9 active torsions:
REMARK  status: ('A' for Active; 'I' for Inactive)
REMARK    1  A    between atoms: N1_2  and  C3_4 
REMARK    2  A    between atoms: N3_9  and  C6_10 
REMARK    3  A    between atoms: C6_10  and  O1_11 
REMARK    4  A    between atoms: C6_10  and  C7_13 
REMARK    5  A    between atoms: C7_13  and  N4_14 
REMARK    6  A    between atoms: C7_13  and  C9_21 
REMARK    7  A    between atoms: N4_14  and  C8_16 
REMARK    8  A    between atoms: C8_16  and  O2_17 
REMARK    9  A    between atoms: C8_16  and  O3_19 
ROOT
HETATM    1  C6  UNL     1       6.087   1.246  17.940  1.00  0.00     0.266 C 
ENDROOT
BRANCH   1   2
HETATM    2  N3  UNL     1       5.526   1.227  19.275  1.00  0.00    -0.256 N 
HETATM    3  C5  UNL     1       4.190   1.666  19.474  1.00  0.00     0.204 A 
HETATM    4  N2  UNL     1       3.646   1.663  20.667  1.00  0.00    -0.346 N 
HETATM    5  C4  UNL     1       4.380   1.218  21.801  1.00  0.00     0.108 A 
ATOM      6  H2  UNL     1       2.684   1.984  20.784  1.00  0.00     0.167 HD
HETATM    7  C3  UNL     1       3.875   1.193  23.034  1.00  0.00     0.133 A 
HETATM    8  C13 UNL     1       5.749   0.770  21.576  1.00  0.00     0.106 A 
HETATM    9  N10 UNL     1       4.619   0.746  24.161  1.00  0.00    -0.328 N 
HETATM   10  C15 UNL     1       5.953   0.311  23.939  1.00  0.00     0.144 A 
ATOM     11  H10 UNL     1       4.210   0.738  25.095  1.00  0.00     0.168 HD
HETATM   12  C14 UNL     1       6.521   0.310  22.723  1.00  0.00     0.117 A 
HETATM   13  N9  UNL     1       6.696  -0.135  25.055  1.00  0.00    -0.081 NA
HETATM   14  N8  UNL     1       7.857  -0.127  22.509  1.00  0.00    -0.096 NA
HETATM   15  N7  UNL     1       6.248   0.789  20.385  1.00  0.00    -0.291 N 
ATOM     16  H7  UNL     1       7.208   0.472  20.251  1.00  0.00     0.187 HD
BRANCH   7  17
HETATM   17  N1  UNL     1       2.545   1.630  23.233  1.00  0.00    -0.374 N 
HETATM   18  C1  UNL     1       2.169   3.020  23.404  1.00  0.00     0.150 C 
HETATM   19  C2  UNL     1       1.442   0.662  23.279  1.00  0.00     0.150 C 
ENDBRANCH   7  17
ENDBRANCH   1   2
BRANCH   1  20
HETATM   20  O1  UNL     1       5.390   2.204  17.230  1.00  0.00    -0.373 OA
ATOM     21  H1  UNL     1       5.689   2.149  16.329  1.00  0.00     0.212 HD
ENDBRANCH   1  20
BRANCH   1  22
HETATM   22  C7  UNL     1       5.913  -0.091  17.314  1.00  0.00     0.171 C 
BRANCH  22  23
HETATM   23  N4  UNL     1       4.779  -0.809  17.843  1.00  0.00    -0.365 N 
ATOM     24  H4  UNL     1       4.781  -1.138  18.808  1.00  0.00     0.158 HD
BRANCH  23  25
HETATM   25  C8  UNL     1       3.683  -1.048  17.018  1.00  0.00     0.361 C 
BRANCH  25  26
HETATM   26  O2  UNL     1       3.826  -1.848  15.925  1.00  0.00    -0.355 OA
ATOM     27  H2  UNL     1       3.343  -2.665  15.874  1.00  0.00     0.214 HD
ENDBRANCH  25  26
BRANCH  25  28
HETATM   28  O3  UNL     1       3.166   0.185  16.555  1.00  0.00    -0.355 OA
ATOM     29  H3  UNL     1       2.591   0.028  15.814  1.00  0.00     0.214 HD
ENDBRANCH  25  28
ENDBRANCH  23  25
ENDBRANCH  22  23
BRANCH  22  30
HETATM   30  C9  UNL     1       7.150  -0.948  17.259  1.00  0.00     0.303 C 
HETATM   31  N5  UNL     1       7.513  -1.098  15.830  1.00  0.00    -0.059 N 
HETATM   32  C10 UNL     1       8.950  -1.086  15.637  1.00  0.00     0.253 C 
ATOM     33  H52 UNL     1       7.089  -1.933  15.425  1.00  0.00     0.278 HD
ATOM     34  H51 UNL     1       7.055  -0.392  15.253  1.00  0.00     0.278 HD
HETATM   35  C11 UNL     1       9.381   0.390  15.812  1.00  0.00     0.150 C 
HETATM   36  N6  UNL     1       9.091   0.618  17.245  1.00  0.00    -0.358 N 
HETATM   37  C12 UNL     1       8.328  -0.397  17.941  1.00  0.00     0.250 C 
ATOM     38  H6  UNL     1       9.417   1.458  17.725  1.00  0.00     0.162 HD
HETATM   39  O4  UNL     1       8.722  -0.752  19.087  1.00  0.00    -0.271 OA
ENDBRANCH  22  30
ENDBRANCH   1  22
TORSDOF 9
ENDMDL
MODEL 5
REMARK VINA RESULT: -9.468375110      2.155      3.467
REMARK  9 active torsions:
REMARK  status: ('A' for Active; 'I' for Inactive)
REMARK    1  A    between atoms: N1_2  and  C3_4 
REMARK    2  A    between atoms: N3_9  and  C6_10 
REMARK    3  A    between atoms: C6_10  and  O1_11 
REMARK    4  A    between atoms: C6_10  and  C7_13 
REMARK    5  A    between atoms: C7_13  and  N4_14 
REMARK    6  A    between atoms: C7_13  and  C9_21 
REMARK    7  A    between atoms: N4_14  and  C8_16 
REMARK    8  A    between atoms: C8_16  and  O2_17 
REMARK    9  A    between atoms: C8_16  and  O3_19 
ROOT
HETATM    1  C6  UNL     1       3.991   0.669  19.489  1.00  0.00     0.266 C 
ENDROOT
BRANCH   1   2
HETATM    2  N3  UNL     1       4.053   1.055  20.882  1.00  0.00    -0.256 N 
HETATM    3  C5  UNL     1       5.175   0.666  21.662  1.00  0.00     0.204 A 
HETATM    4  N2  UNL     1       5.269   0.997  22.928  1.00  0.00    -0.346 N 
HETATM    5  C4  UNL     1       4.246   1.758  23.559  1.00  0.00     0.108 A 
ATOM      6  H2  UNL     1       6.085   0.706  23.466  1.00  0.00     0.167 HD
HETATM    7  C3  UNL     1       4.292   2.121  24.840  1.00  0.00     0.133 A 
HETATM    8  C13 UNL     1       3.103   2.147  22.742  1.00  0.00     0.106 A 
HETATM    9  N10 UNL     1       3.263   2.882  25.462  1.00  0.00    -0.328 N 
HETATM   10  C15 UNL     1       2.150   3.259  24.663  1.00  0.00     0.144 A 
ATOM     11  H10 UNL     1       3.321   3.146  26.445  1.00  0.00     0.168 HD
HETATM   12  C14 UNL     1       2.043   2.927  23.367  1.00  0.00     0.117 A 
HETATM   13  N9  UNL     1       1.125   4.016  25.275  1.00  0.00    -0.081 NA
HETATM   14  N8  UNL     1       0.925   3.308  22.575  1.00  0.00    -0.096 NA
HETATM   15  N7  UNL     1       3.049   1.800  21.499  1.00  0.00    -0.291 N 
ATOM     16  H7  UNL     1       2.240   2.083  20.946  1.00  0.00     0.187 HD
BRANCH   7  17
HETATM   17  N1  UNL     1       5.409   1.735  25.617  1.00  0.00    -0.374 N 
HETATM   18  C1  UNL     1       6.771   1.725  25.122  1.00  0.00     0.150 C 
HETATM   19  C2  UNL     1       5.234   1.307  27.012  1.00  0.00     0.150 C 
ENDBRANCH   7  17
ENDBRANCH   1   2
BRANCH   1  20
HETATM   20  O1  UNL     1       3.588  -0.652  19.459  1.00  0.00    -0.373 OA
ATOM     21  H1  UNL     1       3.408  -0.864  18.549  1.00  0.00     0.212 HD
ENDBRANCH   1  20
BRANCH   1  22
HETATM   22  C7  UNL     1       5.339   0.812  18.878  1.00  0.00     0.171 C 
BRANCH  22  23
HETATM   23  N4  UNL     1       5.392   1.858  17.887  1.00  0.00    -0.365 N 
ATOM     24  H4  UNL     1       5.164   1.659  16.913  1.00  0.00     0.158 HD
BRANCH  23  25
HETATM   25  C8  UNL     1       5.758   3.143  18.278  1.00  0.00     0.361 C 
BRANCH  25  26
HETATM   26  O2  UNL     1       6.724   3.309  19.224  1.00  0.00    -0.355 OA
ATOM     27  H2  UNL     1       7.439   2.685  19.279  1.00  0.00     0.214 HD
ENDBRANCH  25  26
BRANCH  25  28
HETATM   28  O3  UNL     1       4.615   3.839  18.739  1.00  0.00    -0.355 OA
ATOM     29  H3  UNL     1       4.762   4.775  18.660  1.00  0.00     0.214 HD
ENDBRANCH  25  28
ENDBRANCH  23  25
ENDBRANCH  22  23
BRANCH  22  30
HETATM   30  C9  UNL     1       5.967  -0.466  18.386  1.00  0.00     0.303 C 
HETATM   31  N5  UNL     1       6.079  -0.357  16.912  1.00  0.00    -0.059 N 
HETATM   32  C10 UNL     1       7.304  -0.958  16.421  1.00  0.00     0.253 C 
ATOM     33  H52 UNL     1       5.259  -0.748  16.447  1.00  0.00     0.278 HD
ATOM     34  H51 UNL     1       5.990   0.611  16.602  1.00  0.00     0.278 HD
HETATM   35  C11 UNL     1       8.432   0.034  16.794  1.00  0.00     0.150 C 
HETATM   36  N6  UNL     1       8.423  -0.045  18.272  1.00  0.00    -0.358 N 
HETATM   37  C12 UNL     1       7.317  -0.741  18.895  1.00  0.00     0.250 C 
ATOM     38  H6  UNL     1       9.167   0.375  18.830  1.00  0.00     0.162 HD
HETATM   39  O4  UNL     1       7.577  -1.545  19.834  1.00  0.00    -0.271 OA
ENDBRANCH  22  30
ENDBRANCH   1  22
TORSDOF 9
ENDMDL
