MODEL 1
REMARK VINA RESULT: -11.037719891      0.000      0.000
REMARK  2 active torsions:
REMARK  status: ('A' for Active; 'I' for Inactive)
REMARK    1  A    between atoms: C2_2  and  C3_3 
REMARK    2  A    between atoms: C5_6  and  C6_7 
ROOT
HETATM    1  C3  UNL     1       1.018  24.047   0.262  1.00  0.00    -0.060 A 
HETATM    2  C4  UNL     1       1.632  24.244  -0.854  1.00  0.00     0.165 A 
HETATM    3  N1  UNL     1       1.799  25.701  -1.054  1.00  0.00    -0.327 N 
HETATM    4  C5  UNL     1       2.519  26.054  -2.090  1.00  0.00     0.138 C 
HETATM    5  N3  UNL     1       2.440  27.383  -2.694  1.00  0.00    -0.338 N 
ATOM      6  H3  UNL     1       3.268  27.978  -2.705  1.00  0.00     0.167 HD
HETATM    7  C9  UNL     1       1.209  27.871  -3.276  1.00  0.00     0.064 C 
HETATM    8  C10 UNL     1      -0.087  27.616  -2.829  1.00  0.00     0.062 C 
HETATM    9  C11 UNL     1      -0.663  28.817  -2.313  1.00  0.00     0.047 C 
HETATM   10  C12 UNL     1      -1.101  29.820  -3.255  1.00  0.00     0.018 A 
HETATM   11  C13 UNL     1      -2.261  30.406  -2.802  1.00  0.00     0.017 A 
HETATM   12  C14 UNL     1      -2.783  31.404  -3.596  1.00  0.00     0.018 A 
HETATM   13  C15 UNL     1      -2.183  31.806  -4.786  1.00  0.00     0.088 A 
HETATM   14  N4  UNL     1      -1.042  31.207  -5.195  1.00  0.00    -0.364 N 
ATOM     15  H4  UNL     1      -0.592  31.492  -6.065  1.00  0.00     0.165 HD
HETATM   16  C16 UNL     1      -0.521  30.250  -4.454  1.00  0.00     0.058 A 
HETATM   17  C17 UNL     1       0.691  29.819  -4.977  1.00  0.00     0.036 A 
HETATM   18  C18 UNL     1       1.697  29.927  -5.883  1.00  0.00     0.104 A 
HETATM   19  N5  UNL     1       2.416  28.903  -5.329  1.00  0.00    -0.362 N 
ATOM     20  H5  UNL     1       3.309  28.459  -5.543  1.00  0.00     0.165 HD
HETATM   21  C19 UNL     1       1.475  28.717  -4.392  1.00  0.00     0.073 A 
HETATM   22  N6  UNL     1      -0.742  29.295  -1.091  1.00  0.00    -0.349 N 
ATOM     23  H6  UNL     1      -1.470  30.005  -1.166  1.00  0.00     0.166 HD
HETATM   24  C20 UNL     1      -0.408  29.354   0.130  1.00  0.00     0.086 A 
HETATM   25  S1  UNL     1      -1.174  30.512   1.203  1.00  0.00    -0.071 SA
HETATM   26  C21 UNL     1      -0.119  30.373   2.500  1.00  0.00     0.018 A 
HETATM   27  C22 UNL     1      -0.091  31.050   3.756  1.00  0.00     0.020 A 
HETATM   28  C23 UNL     1       0.889  30.801   4.660  1.00  0.00     0.001 A 
HETATM   29  C24 UNL     1       1.828  29.886   4.315  1.00  0.00     0.001 A 
HETATM   30  C25 UNL     1       1.777  29.261   3.129  1.00  0.00     0.014 A 
HETATM   31  C26 UNL     1       0.782  29.477   2.146  1.00  0.00    -0.006 A 
HETATM   32  C27 UNL     1       0.647  28.860   0.816  1.00  0.00     0.011 A 
HETATM   33  C28 UNL     1       1.187  27.644   0.652  1.00  0.00     0.044 C 
HETATM   34  C29 UNL     1       1.243  26.346   0.044  1.00  0.00     0.037 A 
HETATM   35  C30 UNL     1       0.750  25.275   0.863  1.00  0.00     0.034 A 
ENDROOT
BRANCH   4  36
HETATM   36  C6  UNL     1       3.208  25.089  -3.023  1.00  0.00     0.101 A 
HETATM   37  C7  UNL     1       2.820  24.493  -4.159  1.00  0.00     0.176 A 
HETATM   38  O1  UNL     1       3.773  23.719  -4.603  1.00  0.00    -0.316 OA
HETATM   39  C8  UNL     1       4.776  23.805  -3.772  1.00  0.00     0.233 A 
HETATM   40  N2  UNL     1       4.482  24.642  -2.770  1.00  0.00    -0.342 N 
ATOM     41  H2  UNL     1       5.079  24.895  -1.982  1.00  0.00     0.167 HD
ENDBRANCH   4  36
BRANCH   1  42
HETATM   42  C2  UNL     1       0.652  22.697   0.830  1.00  0.00     0.031 C 
HETATM   43  C1  UNL     1      -0.145  22.940   2.078  1.00  0.00     0.010 C 
ENDBRANCH   1  42
TORSDOF 2
ENDMDL
MODEL 2
REMARK VINA RESULT: -10.445448653      4.817      8.779
REMARK  2 active torsions:
REMARK  status: ('A' for Active; 'I' for Inactive)
REMARK    1  A    between atoms: C2_2  and  C3_3 
REMARK    2  A    between atoms: C5_6  and  C6_7 
ROOT
HETATM    1  C3  UNL     1       6.518  25.646  -3.657  1.00  0.00    -0.060 A 
HETATM    2  C4  UNL     1       5.288  25.481  -3.309  1.00  0.00     0.165 A 
HETATM    3  N1  UNL     1       4.462  25.352  -4.531  1.00  0.00    -0.327 N 
HETATM    4  C5  UNL     1       3.202  25.055  -4.336  1.00  0.00     0.138 C 
HETATM    5  N3  UNL     1       2.164  25.308  -5.335  1.00  0.00    -0.338 N 
ATOM      6  H3  UNL     1       1.641  24.523  -5.723  1.00  0.00     0.167 HD
HETATM    7  C9  UNL     1       1.866  26.650  -5.784  1.00  0.00     0.064 C 
HETATM    8  C10 UNL     1       2.772  27.696  -5.952  1.00  0.00     0.062 C 
HETATM    9  C11 UNL     1       2.902  28.002  -7.343  1.00  0.00     0.047 C 
HETATM   10  C12 UNL     1       1.828  28.723  -7.983  1.00  0.00     0.018 A 
HETATM   11  C13 UNL     1       2.346  29.614  -8.894  1.00  0.00     0.017 A 
HETATM   12  C14 UNL     1       1.428  30.359  -9.601  1.00  0.00     0.018 A 
HETATM   13  C15 UNL     1       0.055  30.228  -9.415  1.00  0.00     0.088 A 
HETATM   14  N4  UNL     1      -0.416  29.340  -8.511  1.00  0.00    -0.364 N 
ATOM     15  H4  UNL     1      -1.420  29.234  -8.365  1.00  0.00     0.165 HD
HETATM   16  C16 UNL     1       0.441  28.614  -7.823  1.00  0.00     0.058 A 
HETATM   17  C17 UNL     1      -0.218  27.695  -7.016  1.00  0.00     0.036 A 
HETATM   18  C18 UNL     1      -1.360  27.092  -6.595  1.00  0.00     0.104 A 
HETATM   19  N5  UNL     1      -0.699  26.253  -5.740  1.00  0.00    -0.362 N 
ATOM     20  H5  UNL     1      -0.987  25.517  -5.096  1.00  0.00     0.165 HD
HETATM   21  C19 UNL     1       0.481  26.787  -6.090  1.00  0.00     0.073 A 
HETATM   22  N6  UNL     1       3.770  27.608  -8.247  1.00  0.00    -0.349 N 
ATOM     23  H6  UNL     1       3.648  28.289  -8.997  1.00  0.00     0.166 HD
HETATM   24  C20 UNL     1       4.677  26.845  -8.696  1.00  0.00     0.086 A 
HETATM   25  S1  UNL     1       5.360  27.122 -10.288  1.00  0.00    -0.071 SA
HETATM   26  C21 UNL     1       6.180  25.668 -10.454  1.00  0.00     0.018 A 
HETATM   27  C22 UNL     1       6.961  25.156 -11.534  1.00  0.00     0.020 A 
HETATM   28  C23 UNL     1       7.515  23.920 -11.467  1.00  0.00     0.001 A 
HETATM   29  C24 UNL     1       7.295  23.205 -10.337  1.00  0.00     0.001 A 
HETATM   30  C25 UNL     1       6.560  23.711  -9.335  1.00  0.00     0.014 A 
HETATM   31  C26 UNL     1       5.957  24.991  -9.344  1.00  0.00    -0.006 A 
HETATM   32  C27 UNL     1       5.123  25.628  -8.311  1.00  0.00     0.011 A 
HETATM   33  C28 UNL     1       5.311  25.227  -7.046  1.00  0.00     0.044 C 
HETATM   34  C29 UNL     1       5.310  25.442  -5.628  1.00  0.00     0.037 A 
HETATM   35  C30 UNL     1       6.609  25.633  -5.047  1.00  0.00     0.034 A 
ENDROOT
BRANCH   4  36
HETATM   36  C6  UNL     1       2.582  24.791  -2.986  1.00  0.00     0.101 A 
HETATM   37  C7  UNL     1       2.005  25.593  -2.081  1.00  0.00     0.176 A 
HETATM   38  O1  UNL     1       1.629  24.896  -1.044  1.00  0.00    -0.316 OA
HETATM   39  C8  UNL     1       1.952  23.651  -1.263  1.00  0.00     0.233 A 
HETATM   40  N2  UNL     1       2.549  23.525  -2.455  1.00  0.00    -0.342 N 
ATOM     41  H2  UNL     1       2.904  22.668  -2.879  1.00  0.00     0.167 HD
ENDBRANCH   4  36
BRANCH   1  42
HETATM   42  C2  UNL     1       7.678  25.820  -2.707  1.00  0.00     0.031 C 
HETATM   43  C1  UNL     1       8.754  26.559  -3.447  1.00  0.00     0.010 C 
ENDBRANCH   1  42
TORSDOF 2
ENDMDL
MODEL 3
REMARK VINA RESULT: -10.343668007      7.095     10.301
REMARK  2 active torsions:
REMARK  status: ('A' for Active; 'I' for Inactive)
REMARK    1  A    between atoms: C2_2  and  C3_3 
REMARK    2  A    between atoms: C5_6  and  C6_7 
ROOT
HETATM    1  C3  UNL     1       7.789  23.648 -11.121  1.00  0.00    -0.060 A 
HETATM    2  C4  UNL     1       8.225  24.816 -11.449  1.00  0.00     0.165 A 
HETATM    3  N1  UNL     1       7.706  25.807 -10.479  1.00  0.00    -0.327 N 
HETATM    4  C5  UNL     1       8.166  27.026 -10.611  1.00  0.00     0.138 C 
HETATM    5  N3  UNL     1       7.479  28.195 -10.065  1.00  0.00    -0.338 N 
ATOM      6  H3  UNL     1       7.945  28.766  -9.360  1.00  0.00     0.167 HD
HETATM    7  C9  UNL     1       6.150  28.559 -10.506  1.00  0.00     0.064 C 
HETATM    8  C10 UNL     1       5.122  27.689 -10.867  1.00  0.00     0.062 C 
HETATM    9  C11 UNL     1       4.071  27.759  -9.901  1.00  0.00     0.047 C 
HETATM   10  C12 UNL     1       3.207  28.916  -9.920  1.00  0.00     0.018 A 
HETATM   11  C13 UNL     1       1.916  28.535  -9.633  1.00  0.00     0.017 A 
HETATM   12  C14 UNL     1       0.982  29.546  -9.593  1.00  0.00     0.018 A 
HETATM   13  C15 UNL     1       1.311  30.879  -9.826  1.00  0.00     0.088 A 
HETATM   14  N4  UNL     1       2.591  31.214 -10.103  1.00  0.00    -0.364 N 
ATOM     15  H4  UNL     1       2.845  32.186 -10.275  1.00  0.00     0.165 HD
HETATM   16  C16 UNL     1       3.504  30.265 -10.145  1.00  0.00     0.058 A 
HETATM   17  C17 UNL     1       4.770  30.800 -10.346  1.00  0.00     0.036 A 
HETATM   18  C18 UNL     1       5.599  31.869 -10.472  1.00  0.00     0.104 A 
HETATM   19  N5  UNL     1       6.716  31.090 -10.608  1.00  0.00    -0.362 N 
ATOM     20  H5  UNL     1       7.709  31.281 -10.740  1.00  0.00     0.165 HD
HETATM   21  C19 UNL     1       5.981  29.974 -10.495  1.00  0.00     0.073 A 
HETATM   22  N6  UNL     1       3.806  27.027  -8.843  1.00  0.00    -0.349 N 
ATOM     23  H6  UNL     1       2.833  27.256  -8.639  1.00  0.00     0.166 HD
HETATM   24  C20 UNL     1       4.100  26.191  -7.936  1.00  0.00     0.086 A 
HETATM   25  S1  UNL     1       2.910  25.742  -6.727  1.00  0.00    -0.071 SA
HETATM   26  C21 UNL     1       3.937  24.949  -5.662  1.00  0.00     0.018 A 
HETATM   27  C22 UNL     1       3.677  24.328  -4.404  1.00  0.00     0.020 A 
HETATM   28  C23 UNL     1       4.680  23.766  -3.685  1.00  0.00     0.001 A 
HETATM   29  C24 UNL     1       5.926  23.821  -4.216  1.00  0.00     0.001 A 
HETATM   30  C25 UNL     1       6.143  24.408  -5.402  1.00  0.00     0.014 A 
HETATM   31  C26 UNL     1       5.141  25.010  -6.199  1.00  0.00    -0.006 A 
HETATM   32  C27 UNL     1       5.276  25.691  -7.498  1.00  0.00     0.011 A 
HETATM   33  C28 UNL     1       6.308  25.324  -8.272  1.00  0.00     0.044 C 
HETATM   34  C29 UNL     1       6.938  25.124  -9.545  1.00  0.00     0.037 A 
HETATM   35  C30 UNL     1       7.003  23.756  -9.976  1.00  0.00     0.034 A 
ENDROOT
BRANCH   4  36
HETATM   36  C6  UNL     1       9.201  27.446 -11.625  1.00  0.00     0.101 A 
HETATM   37  C7  UNL     1       9.549  26.956 -12.823  1.00  0.00     0.176 A 
HETATM   38  O1  UNL     1      10.525  27.661 -13.325  1.00  0.00    -0.316 OA
HETATM   39  C8  UNL     1      10.816  28.604 -12.472  1.00  0.00     0.233 A 
HETATM   40  N2  UNL     1      10.026  28.521 -11.395  1.00  0.00    -0.342 N 
ATOM     41  H2  UNL     1      10.034  29.128 -10.575  1.00  0.00     0.167 HD
ENDBRANCH   4  36
BRANCH   1  42
HETATM   42  C2  UNL     1       8.089  22.366 -11.859  1.00  0.00     0.031 C 
HETATM   43  C1  UNL     1       9.526  22.026 -11.595  1.00  0.00     0.010 C 
ENDBRANCH   1  42
TORSDOF 2
ENDMDL
MODEL 4
REMARK VINA RESULT: -9.981921077      1.239      1.415
REMARK  2 active torsions:
REMARK  status: ('A' for Active; 'I' for Inactive)
REMARK    1  A    between atoms: C2_2  and  C3_3 
REMARK    2  A    between atoms: C5_6  and  C6_7 
ROOT
HETATM    1  C3  UNL     1       1.665  24.803  -0.726  1.00  0.00    -0.060 A 
HETATM    2  C4  UNL     1       2.082  25.293  -1.843  1.00  0.00     0.165 A 
HETATM    3  N1  UNL     1       1.932  26.765  -1.802  1.00  0.00    -0.327 N 
HETATM    4  C5  UNL     1       2.431  27.416  -2.823  1.00  0.00     0.138 C 
HETATM    5  N3  UNL     1       2.016  28.772  -3.178  1.00  0.00    -0.338 N 
ATOM      6  H3  UNL     1       2.703  29.525  -3.162  1.00  0.00     0.167 HD
HETATM    7  C9  UNL     1       0.650  29.066  -3.550  1.00  0.00     0.064 C 
HETATM    8  C10 UNL     1      -0.503  28.474  -3.035  1.00  0.00     0.062 C 
HETATM    9  C11 UNL     1      -1.235  29.432  -2.268  1.00  0.00     0.047 C 
HETATM   10  C12 UNL     1      -1.976  30.447  -2.977  1.00  0.00     0.018 A 
HETATM   11  C13 UNL     1      -3.163  30.696  -2.325  1.00  0.00     0.017 A 
HETATM   12  C14 UNL     1      -3.967  31.666  -2.881  1.00  0.00     0.018 A 
HETATM   13  C15 UNL     1      -3.613  32.361  -4.034  1.00  0.00     0.088 A 
HETATM   14  N4  UNL     1      -2.439  32.090  -4.645  1.00  0.00    -0.364 N 
ATOM     15  H4  UNL     1      -2.167  32.592  -5.491  1.00  0.00     0.165 HD
HETATM   16  C16 UNL     1      -1.650  31.167  -4.133  1.00  0.00     0.058 A 
HETATM   17  C17 UNL     1      -0.452  31.090  -4.832  1.00  0.00     0.036 A 
HETATM   18  C18 UNL     1       0.390  31.546  -5.795  1.00  0.00     0.104 A 
HETATM   19  N5  UNL     1       1.360  30.630  -5.496  1.00  0.00    -0.362 N 
ATOM     20  H5  UNL     1       2.289  30.426  -5.865  1.00  0.00     0.165 HD
HETATM   21  C19 UNL     1       0.601  30.107  -4.522  1.00  0.00     0.073 A 
HETATM   22  N6  UNL     1      -1.251  29.692  -0.980  1.00  0.00    -0.349 N 
ATOM     23  H6  UNL     1      -2.108  30.233  -0.863  1.00  0.00     0.166 HD
HETATM   24  C20 UNL     1      -0.783  29.638   0.197  1.00  0.00     0.086 A 
HETATM   25  S1  UNL     1      -1.620  30.430   1.520  1.00  0.00    -0.071 SA
HETATM   26  C21 UNL     1      -0.402  30.327   2.670  1.00  0.00     0.018 A 
HETATM   27  C22 UNL     1      -0.349  30.798   4.016  1.00  0.00     0.020 A 
HETATM   28  C23 UNL     1       0.767  30.632   4.768  1.00  0.00     0.001 A 
HETATM   29  C24 UNL     1       1.817  30.003   4.185  1.00  0.00     0.001 A 
HETATM   30  C25 UNL     1       1.739  29.567   2.918  1.00  0.00     0.014 A 
HETATM   31  C26 UNL     1       0.605  29.709   2.084  1.00  0.00    -0.006 A 
HETATM   32  C27 UNL     1       0.427  29.284   0.686  1.00  0.00     0.011 A 
HETATM   33  C28 UNL     1       1.170  28.251   0.264  1.00  0.00     0.044 C 
HETATM   34  C29 UNL     1       1.404  27.103  -0.563  1.00  0.00     0.037 A 
HETATM   35  C30 UNL     1       1.239  25.840   0.100  1.00  0.00     0.034 A 
ENDROOT
BRANCH   4  36
HETATM   36  C6  UNL     1       3.172  26.773  -3.969  1.00  0.00     0.101 A 
HETATM   37  C7  UNL     1       2.761  26.207  -5.113  1.00  0.00     0.176 A 
HETATM   38  O1  UNL     1       3.789  25.772  -5.789  1.00  0.00    -0.316 OA
HETATM   39  C8  UNL     1       4.863  26.048  -5.102  1.00  0.00     0.233 A 
HETATM   40  N2  UNL     1       4.542  26.671  -3.961  1.00  0.00    -0.342 N 
ATOM     41  H2  UNL     1       5.181  27.000  -3.237  1.00  0.00     0.167 HD
ENDBRANCH   4  36
BRANCH   1  42
HETATM   42  C2  UNL     1       1.646  23.337  -0.369  1.00  0.00     0.031 C 
HETATM   43  C1  UNL     1       0.674  23.165   0.761  1.00  0.00     0.010 C 
ENDBRANCH   1  42
TORSDOF 2
ENDMDL
MODEL 5
REMARK VINA RESULT: -9.922364239      1.054      1.261
REMARK  2 active torsions:
REMARK  status: ('A' for Active; 'I' for Inactive)
REMARK    1  A    between atoms: C2_2  and  C3_3 
REMARK    2  A    between atoms: C5_6  and  C6_7 
ROOT
HETATM    1  C3  UNL     1       0.999  24.890   0.885  1.00  0.00    -0.060 A 
HETATM    2  C4  UNL     1       1.570  25.122  -0.247  1.00  0.00     0.165 A 
HETATM    3  N1  UNL     1       1.595  26.585  -0.475  1.00  0.00    -0.327 N 
HETATM    4  C5  UNL     1       2.258  26.984  -1.532  1.00  0.00     0.138 C 
HETATM    5  N3  UNL     1       2.042  28.288  -2.157  1.00  0.00    -0.338 N 
ATOM      6  H3  UNL     1       2.810  28.957  -2.196  1.00  0.00     0.167 HD
HETATM    7  C9  UNL     1       0.760  28.647  -2.721  1.00  0.00     0.064 C 
HETATM    8  C10 UNL     1      -0.497  28.280  -2.241  1.00  0.00     0.062 C 
HETATM    9  C11 UNL     1      -1.174  29.432  -1.734  1.00  0.00     0.047 C 
HETATM   10  C12 UNL     1      -1.722  30.371  -2.683  1.00  0.00     0.018 A 
HETATM   11  C13 UNL     1      -2.923  30.854  -2.216  1.00  0.00     0.017 A 
HETATM   12  C14 UNL     1      -3.552  31.784  -3.015  1.00  0.00     0.018 A 
HETATM   13  C15 UNL     1      -3.016  32.217  -4.224  1.00  0.00     0.088 A 
HETATM   14  N4  UNL     1      -1.833  31.720  -4.648  1.00  0.00    -0.364 N 
ATOM     15  H4  UNL     1      -1.429  32.029  -5.532  1.00  0.00     0.165 HD
HETATM   16  C16 UNL     1      -1.210  30.831  -3.902  1.00  0.00     0.058 A 
HETATM   17  C17 UNL     1       0.028  30.505  -4.443  1.00  0.00     0.036 A 
HETATM   18  C18 UNL     1       1.001  30.690  -5.372  1.00  0.00     0.104 A 
HETATM   19  N5  UNL     1       1.824  29.749  -4.816  1.00  0.00    -0.362 N 
ATOM     20  H5  UNL     1       2.750  29.387  -5.041  1.00  0.00     0.165 HD
HETATM   21  C19 UNL     1       0.923  29.493  -3.856  1.00  0.00     0.073 A 
HETATM   22  N6  UNL     1      -1.274  29.923  -0.519  1.00  0.00    -0.349 N 
ATOM     23  H6  UNL     1      -2.066  30.560  -0.591  1.00  0.00     0.166 HD
HETATM   24  C20 UNL     1      -0.922  30.036   0.694  1.00  0.00     0.086 A 
HETATM   25  S1  UNL     1      -1.773  31.138   1.763  1.00  0.00    -0.071 SA
HETATM   26  C21 UNL     1      -0.684  31.123   3.039  1.00  0.00     0.018 A 
HETATM   27  C22 UNL     1      -0.695  31.823   4.282  1.00  0.00     0.020 A 
HETATM   28  C23 UNL     1       0.321  31.684   5.169  1.00  0.00     0.001 A 
HETATM   29  C24 UNL     1       1.336  30.855   4.820  1.00  0.00     0.001 A 
HETATM   30  C25 UNL     1       1.320  30.206   3.646  1.00  0.00     0.014 A 
HETATM   31  C26 UNL     1       0.290  30.308   2.681  1.00  0.00    -0.006 A 
HETATM   32  C27 UNL     1       0.188  29.656   1.365  1.00  0.00     0.011 A 
HETATM   33  C28 UNL     1       0.836  28.493   1.210  1.00  0.00     0.044 C 
HETATM   34  C29 UNL     1       1.003  27.196   0.623  1.00  0.00     0.037 A 
HETATM   35  C30 UNL     1       0.629  26.098   1.470  1.00  0.00     0.034 A 
ENDROOT
BRANCH   4  36
HETATM   36  C6  UNL     1       3.016  26.071  -2.463  1.00  0.00     0.101 A 
HETATM   37  C7  UNL     1       4.285  25.639  -2.477  1.00  0.00     0.176 A 
HETATM   38  O1  UNL     1       4.479  24.862  -3.507  1.00  0.00    -0.316 OA
HETATM   39  C8  UNL     1       3.354  24.781  -4.164  1.00  0.00     0.233 A 
HETATM   40  N2  UNL     1       2.408  25.512  -3.562  1.00  0.00    -0.342 N 
ATOM     41  H2  UNL     1       1.439  25.631  -3.857  1.00  0.00     0.167 HD
ENDBRANCH   4  36
BRANCH   1  42
HETATM   42  C2  UNL     1       0.773  23.523   1.484  1.00  0.00     0.031 C 
HETATM   43  C1  UNL     1       0.746  22.539   0.351  1.00  0.00     0.010 C 
ENDBRANCH   1  42
TORSDOF 2
ENDMDL
