MODEL 1
REMARK VINA RESULT: -7.511552692      0.000      0.000
REMARK  1 active torsions:
REMARK  status: ('A' for Active; 'I' for Inactive)
REMARK       I    between atoms: C3_3  and  N1_5 
REMARK       I    between atoms: N1_5  and  C4_7 
REMARK       I    between atoms: C4_7  and  N3_11 
REMARK       I    between atoms: C5_13  and  N5_15 
REMARK    1  A    between atoms: N5_15  and  N6_17 
ROOT
HETATM    1  C1  UNL     1      52.853  39.185  67.234  1.00  0.00     0.022 C 
HETATM    2  C2  UNL     1      52.373  39.794  68.159  1.00  0.00    -0.016 C 
HETATM    3  C3  UNL     1      51.812  40.532  69.240  1.00  0.00     0.313 C 
HETATM    4  O1  UNL     1      51.248  39.932  70.182  1.00  0.00    -0.257 OA
HETATM    5  N1  UNL     1      51.878  41.943  69.275  1.00  0.00    -0.149 N 
ATOM      6  H1  UNL     1      52.340  42.424  68.504  1.00  0.00     0.188 HD
HETATM    7  C4  UNL     1      51.335  42.724  70.326  1.00  0.00     0.681 C 
HETATM    8  N2  UNL     1      51.440  44.002  70.275  1.00  0.00    -0.234 N 
ATOM      9  H21 UNL     1      51.050  44.564  71.031  1.00  0.00     0.174 HD
ATOM     10  H22 UNL     1      51.900  44.493  69.508  1.00  0.00     0.174 HD
HETATM   11  N3  UNL     1      50.697  42.042  71.393  1.00  0.00    -0.162 N 
ATOM     12  H3  UNL     1      51.185  41.301  71.895  1.00  0.00     0.187 HD
HETATM   13  C5  UNL     1      49.506  42.364  71.719  1.00  0.00     0.222 C 
HETATM   14  N4  UNL     1      48.843  43.397  71.012  1.00  0.00    -0.061 NA
HETATM   15  N5  UNL     1      48.817  41.718  72.777  1.00  0.00    -0.259 N 
ATOM     16  H5  UNL     1      48.162  42.263  73.338  1.00  0.00     0.191 HD
ENDROOT
BRANCH  15  17
HETATM   17  N6  UNL     1      48.996  40.369  73.084  1.00  0.00    -0.247 N 
HETATM   18  N7  UNL     1      49.952  39.669  72.644  1.00  0.00    -0.331 N 
ATOM     19  H72 UNL     1      50.622  40.132  72.030  1.00  0.00     0.178 HD
ATOM     20  H71 UNL     1      50.083  38.683  72.869  1.00  0.00     0.178 HD
ATOM     21  H6  UNL     1      48.317  39.922  73.700  1.00  0.00     0.207 HD
ENDBRANCH  15  17
TORSDOF 1
ENDMDL
MODEL 2
REMARK VINA RESULT: -6.828661061      1.827      2.244
REMARK  1 active torsions:
REMARK  status: ('A' for Active; 'I' for Inactive)
REMARK       I    between atoms: C3_3  and  N1_5 
REMARK       I    between atoms: N1_5  and  C4_7 
REMARK       I    between atoms: C4_7  and  N3_11 
REMARK       I    between atoms: C5_13  and  N5_15 
REMARK    1  A    between atoms: N5_15  and  N6_17 
ROOT
HETATM    1  C1  UNL     1      52.813  39.480  66.372  1.00  0.00     0.022 C 
HETATM    2  C2  UNL     1      52.671  39.804  67.526  1.00  0.00    -0.016 C 
HETATM    3  C3  UNL     1      52.525  40.192  68.889  1.00  0.00     0.313 C 
HETATM    4  O1  UNL     1      51.403  40.138  69.440  1.00  0.00    -0.257 OA
HETATM    5  N1  UNL     1      53.632  40.643  69.643  1.00  0.00    -0.149 N 
ATOM      6  H1  UNL     1      54.543  40.683  69.188  1.00  0.00     0.188 HD
HETATM    7  C4  UNL     1      53.541  41.041  71.001  1.00  0.00     0.681 C 
HETATM    8  N2  UNL     1      54.599  41.437  71.609  1.00  0.00    -0.234 N 
ATOM      9  H21 UNL     1      54.534  41.724  72.586  1.00  0.00     0.174 HD
ATOM     10  H22 UNL     1      55.515  41.482  71.162  1.00  0.00     0.174 HD
HETATM   11  N3  UNL     1      52.268  40.979  71.623  1.00  0.00    -0.162 N 
ATOM     12  H3  UNL     1      51.731  40.112  71.608  1.00  0.00     0.187 HD
HETATM   13  C5  UNL     1      51.802  42.016  72.201  1.00  0.00     0.222 C 
HETATM   14  N4  UNL     1      52.563  43.210  72.213  1.00  0.00    -0.061 NA
HETATM   15  N5  UNL     1      50.535  42.014  72.840  1.00  0.00    -0.259 N 
ATOM     16  H5  UNL     1      50.407  42.590  73.672  1.00  0.00     0.191 HD
ENDROOT
BRANCH  15  17
HETATM   17  N6  UNL     1      49.457  41.258  72.380  1.00  0.00    -0.247 N 
HETATM   18  N7  UNL     1      48.775  40.488  73.114  1.00  0.00    -0.331 N 
ATOM     19  H72 UNL     1      49.040  40.427  74.096  1.00  0.00     0.178 HD
ATOM     20  H71 UNL     1      47.986  39.935  72.777  1.00  0.00     0.178 HD
ATOM     21  H6  UNL     1      49.205  41.331  71.394  1.00  0.00     0.207 HD
ENDBRANCH  15  17
TORSDOF 1
ENDMDL
MODEL 3
REMARK VINA RESULT: -6.792673762      2.463      3.925
REMARK  1 active torsions:
REMARK  status: ('A' for Active; 'I' for Inactive)
REMARK       I    between atoms: C3_3  and  N1_5 
REMARK       I    between atoms: N1_5  and  C4_7 
REMARK       I    between atoms: C4_7  and  N3_11 
REMARK       I    between atoms: C5_13  and  N5_15 
REMARK    1  A    between atoms: N5_15  and  N6_17 
ROOT
HETATM    1  C1  UNL     1      55.135  45.039  73.044  1.00  0.00     0.022 C 
HETATM    2  C2  UNL     1      54.250  44.371  72.568  1.00  0.00    -0.016 C 
HETATM    3  C3  UNL     1      53.209  43.592  71.985  1.00  0.00     0.313 C 
HETATM    4  O1  UNL     1      52.613  42.730  72.668  1.00  0.00    -0.257 OA
HETATM    5  N1  UNL     1      52.828  43.773  70.636  1.00  0.00    -0.149 N 
ATOM      6  H1  UNL     1      53.318  44.479  70.086  1.00  0.00     0.188 HD
HETATM    7  C4  UNL     1      51.801  43.025  70.008  1.00  0.00     0.681 C 
HETATM    8  N2  UNL     1      51.521  43.256  68.777  1.00  0.00    -0.234 N 
ATOM      9  H21 UNL     1      50.782  42.717  68.325  1.00  0.00     0.174 HD
ATOM     10  H22 UNL     1      52.006  43.958  68.218  1.00  0.00     0.174 HD
HETATM   11  N3  UNL     1      51.127  42.048  70.785  1.00  0.00    -0.162 N 
ATOM     12  H3  UNL     1      50.704  42.303  71.677  1.00  0.00     0.187 HD
HETATM   13  C5  UNL     1      51.055  40.848  70.357  1.00  0.00     0.222 C 
HETATM   14  N4  UNL     1      51.647  40.513  69.115  1.00  0.00    -0.061 NA
HETATM   15  N5  UNL     1      50.394  39.829  71.090  1.00  0.00    -0.259 N 
ATOM     16  H5  UNL     1      49.911  39.093  70.575  1.00  0.00     0.191 HD
ENDROOT
BRANCH  15  17
HETATM   17  N6  UNL     1      50.376  39.789  72.483  1.00  0.00    -0.247 N 
HETATM   18  N7  UNL     1      49.317  39.752  73.172  1.00  0.00    -0.331 N 
ATOM     19  H72 UNL     1      48.433  39.751  72.664  1.00  0.00     0.178 HD
ATOM     20  H71 UNL     1      49.304  39.723  74.191  1.00  0.00     0.178 HD
ATOM     21  H6  UNL     1      51.270  39.791  72.976  1.00  0.00     0.207 HD
ENDBRANCH  15  17
TORSDOF 1
ENDMDL
MODEL 4
REMARK VINA RESULT: -6.697779235      1.392      1.437
REMARK  1 active torsions:
REMARK  status: ('A' for Active; 'I' for Inactive)
REMARK       I    between atoms: C3_3  and  N1_5 
REMARK       I    between atoms: N1_5  and  C4_7 
REMARK       I    between atoms: C4_7  and  N3_11 
REMARK       I    between atoms: C5_13  and  N5_15 
REMARK    1  A    between atoms: N5_15  and  N6_17 
ROOT
HETATM    1  C1  UNL     1      54.912  39.448  67.307  1.00  0.00     0.022 C 
HETATM    2  C2  UNL     1      54.228  39.935  68.174  1.00  0.00    -0.016 C 
HETATM    3  C3  UNL     1      53.426  40.530  69.190  1.00  0.00     0.313 C 
HETATM    4  O1  UNL     1      52.715  39.813  69.928  1.00  0.00    -0.257 OA
HETATM    5  N1  UNL     1      53.414  41.930  69.385  1.00  0.00    -0.149 N 
ATOM      6  H1  UNL     1      53.997  42.507  68.780  1.00  0.00     0.188 HD
HETATM    7  C4  UNL     1      52.635  42.572  70.380  1.00  0.00     0.681 C 
HETATM    8  N2  UNL     1      52.686  43.851  70.487  1.00  0.00    -0.234 N 
ATOM      9  H21 UNL     1      52.125  44.313  71.202  1.00  0.00     0.174 HD
ATOM     10  H22 UNL     1      53.265  44.437  69.885  1.00  0.00     0.174 HD
HETATM   11  N3  UNL     1      51.831  41.757  71.216  1.00  0.00    -0.162 N 
ATOM     12  H3  UNL     1      52.245  40.978  71.727  1.00  0.00     0.187 HD
HETATM   13  C5  UNL     1      50.584  42.009  71.325  1.00  0.00     0.222 C 
HETATM   14  N4  UNL     1      50.027  43.097  70.610  1.00  0.00    -0.061 NA
HETATM   15  N5  UNL     1      49.730  41.228  72.146  1.00  0.00    -0.259 N 
ATOM     16  H5  UNL     1      48.951  41.689  72.615  1.00  0.00     0.191 HD
ENDROOT
BRANCH  15  17
HETATM   17  N6  UNL     1      49.910  39.859  72.339  1.00  0.00    -0.247 N 
HETATM   18  N7  UNL     1      49.490  39.231  73.353  1.00  0.00    -0.331 N 
ATOM     19  H72 UNL     1      48.993  39.771  74.060  1.00  0.00     0.178 HD
ATOM     20  H71 UNL     1      49.621  38.230  73.494  1.00  0.00     0.178 HD
ATOM     21  H6  UNL     1      50.410  39.334  71.622  1.00  0.00     0.207 HD
ENDBRANCH  15  17
TORSDOF 1
ENDMDL
MODEL 5
REMARK VINA RESULT: -6.591579822      3.815      5.681
REMARK  1 active torsions:
REMARK  status: ('A' for Active; 'I' for Inactive)
REMARK       I    between atoms: C3_3  and  N1_5 
REMARK       I    between atoms: N1_5  and  C4_7 
REMARK       I    between atoms: C4_7  and  N3_11 
REMARK       I    between atoms: C5_13  and  N5_15 
REMARK    1  A    between atoms: N5_15  and  N6_17 
ROOT
HETATM    1  C1  UNL     1      51.006  43.493  69.074  1.00  0.00     0.022 C 
HETATM    2  C2  UNL     1      51.658  42.492  69.240  1.00  0.00    -0.016 C 
HETATM    3  C3  UNL     1      52.421  41.301  69.415  1.00  0.00     0.313 C 
HETATM    4  O1  UNL     1      53.152  41.168  70.421  1.00  0.00    -0.257 OA
HETATM    5  N1  UNL     1      52.370  40.254  68.467  1.00  0.00    -0.149 N 
ATOM      6  H1  UNL     1      51.771  40.370  67.650  1.00  0.00     0.188 HD
HETATM    7  C4  UNL     1      53.109  39.051  68.594  1.00  0.00     0.681 C 
HETATM    8  N2  UNL     1      53.002  38.152  67.683  1.00  0.00    -0.234 N 
ATOM      9  H21 UNL     1      53.534  37.286  67.774  1.00  0.00     0.174 HD
ATOM     10  H22 UNL     1      52.406  38.259  66.862  1.00  0.00     0.174 HD
HETATM   11  N3  UNL     1      53.937  38.902  69.735  1.00  0.00    -0.162 N 
ATOM     12  H3  UNL     1      53.550  39.025  70.670  1.00  0.00     0.187 HD
HETATM   13  C5  UNL     1      55.170  38.611  69.581  1.00  0.00     0.222 C 
HETATM   14  N4  UNL     1      55.689  38.442  68.275  1.00  0.00    -0.061 NA
HETATM   15  N5  UNL     1      56.046  38.450  70.685  1.00  0.00    -0.259 N 
ATOM     16  H5  UNL     1      56.799  37.766  70.613  1.00  0.00     0.191 HD
ENDROOT
BRANCH  15  17
HETATM   17  N6  UNL     1      55.923  39.185  71.863  1.00  0.00    -0.247 N 
HETATM   18  N7  UNL     1      56.302  38.769  72.995  1.00  0.00    -0.331 N 
ATOM     19  H72 UNL     1      56.720  37.840  73.031  1.00  0.00     0.178 HD
ATOM     20  H71 UNL     1      56.212  39.307  73.856  1.00  0.00     0.178 HD
ATOM     21  H6  UNL     1      55.502  40.113  71.808  1.00  0.00     0.207 HD
ENDBRANCH  15  17
TORSDOF 1
ENDMDL
