MODEL 1
REMARK VINA RESULT: -6.703078754      0.000      0.000
REMARK  8 active torsions:
REMARK  status: ('A' for Active; 'I' for Inactive)
REMARK    1  A    between atoms: S1_2  and  O3_5 
REMARK    2  A    between atoms: O3_5  and  C2_6 
REMARK    3  A    between atoms: C3_7  and  O4_8 
REMARK    4  A    between atoms: C5_12  and  O6_13 
REMARK    5  A    between atoms: O6_13  and  N1_14 
REMARK    6  A    between atoms: N1_14  and  N2_16 
REMARK    7  A    between atoms: N2_16  and  N3_17 
REMARK    8  A    between atoms: N2_16  and  O7_20 
ROOT
HETATM    1  C2  UNL     1      31.538  42.516  21.982  1.00  0.00     0.230 C 
HETATM    2  C3  UNL     1      30.345  41.707  22.498  1.00  0.00     0.289 C 
HETATM    3  O5  UNL     1      29.241  42.139  21.819  1.00  0.00    -0.356 OA
HETATM    4  C4  UNL     1      29.494  43.352  21.240  1.00  0.00     0.208 C 
HETATM    5  C5  UNL     1      30.824  43.851  21.763  1.00  0.00     0.213 C 
ENDROOT
BRANCH   5   6
HETATM    6  O6  UNL     1      31.494  44.671  20.855  1.00  0.00    -0.251 OA
BRANCH   6   7
HETATM    7  N1  UNL     1      31.669  44.233  19.566  1.00  0.00    -0.165 N 
ATOM      8  H1  UNL     1      31.195  43.383  19.257  1.00  0.00     0.220 HD
BRANCH   7   9
HETATM    9  N2  UNL     1      32.419  44.875  18.739  1.00  0.00    -0.081 N 
BRANCH   9  10
HETATM   10  N3  UNL     1      33.795  44.714  18.720  1.00  0.00    -0.302 N 
ATOM     11  H32 UNL     1      34.174  43.768  18.740  1.00  0.00     0.181 HD
ATOM     12  H31 UNL     1      34.431  45.511  18.685  1.00  0.00     0.181 HD
ENDBRANCH   9  10
BRANCH   9  13
HETATM   13  O7  UNL     1      31.848  45.751  17.843  1.00  0.00    -0.252 OA
ATOM     14  H7  UNL     1      32.352  46.049  17.095  1.00  0.00     0.248 HD
ENDBRANCH   9  13
ENDBRANCH   7   9
ENDBRANCH   6   7
ENDBRANCH   5   6
BRANCH   1  15
HETATM   15  O3  UNL     1      32.538  42.601  22.915  1.00  0.00    -0.263 OA
BRANCH  15  16
HETATM   16  S1  UNL     1      34.007  42.573  22.099  1.00  0.00     0.262 S 
HETATM   17  C1  UNL     1      34.769  44.194  22.137  1.00  0.00     0.194 C 
HETATM   18  O1  UNL     1      34.892  41.543  22.717  1.00  0.00    -0.199 OA
HETATM   19  O2  UNL     1      33.815  42.230  20.649  1.00  0.00    -0.199 OA
ENDBRANCH  15  16
ENDBRANCH   1  15
BRANCH   2  20
HETATM   20  O4  UNL     1      30.192  42.049  23.859  1.00  0.00    -0.368 OA
ATOM     21  H4  UNL     1      29.604  42.795  23.882  1.00  0.00     0.212 HD
ENDBRANCH   2  20
TORSDOF 8
ENDMDL
MODEL 2
REMARK VINA RESULT: -6.322516730      1.752      2.060
REMARK  8 active torsions:
REMARK  status: ('A' for Active; 'I' for Inactive)
REMARK    1  A    between atoms: S1_2  and  O3_5 
REMARK    2  A    between atoms: O3_5  and  C2_6 
REMARK    3  A    between atoms: C3_7  and  O4_8 
REMARK    4  A    between atoms: C5_12  and  O6_13 
REMARK    5  A    between atoms: O6_13  and  N1_14 
REMARK    6  A    between atoms: N1_14  and  N2_16 
REMARK    7  A    between atoms: N2_16  and  N3_17 
REMARK    8  A    between atoms: N2_16  and  O7_20 
ROOT
HETATM    1  C2  UNL     1      30.839  42.211  21.673  1.00  0.00     0.230 C 
HETATM    2  C3  UNL     1      30.249  41.812  23.029  1.00  0.00     0.289 C 
HETATM    3  O5  UNL     1      29.204  40.968  22.780  1.00  0.00    -0.356 OA
HETATM    4  C4  UNL     1      28.810  41.084  21.475  1.00  0.00     0.208 C 
HETATM    5  C5  UNL     1      29.538  42.266  20.870  1.00  0.00     0.213 C 
ENDROOT
BRANCH   5   6
HETATM    6  O6  UNL     1      29.753  42.130  19.498  1.00  0.00    -0.251 OA
BRANCH   6   7
HETATM    7  N1  UNL     1      31.004  41.787  19.050  1.00  0.00    -0.165 N 
ATOM      8  H1  UNL     1      31.453  40.946  19.414  1.00  0.00     0.220 HD
BRANCH   7   9
HETATM    9  N2  UNL     1      31.622  42.508  18.181  1.00  0.00    -0.081 N 
BRANCH   9  10
HETATM   10  N3  UNL     1      31.875  43.854  18.389  1.00  0.00    -0.302 N 
ATOM     11  H32 UNL     1      31.241  44.536  17.974  1.00  0.00     0.181 HD
ATOM     12  H31 UNL     1      32.669  44.175  18.941  1.00  0.00     0.181 HD
ENDBRANCH   9  10
BRANCH   9  13
HETATM   13  O7  UNL     1      32.047  41.935  17.003  1.00  0.00    -0.252 OA
ATOM     14  H7  UNL     1      32.077  42.459  16.211  1.00  0.00     0.248 HD
ENDBRANCH   9  13
ENDBRANCH   7   9
ENDBRANCH   6   7
ENDBRANCH   5   6
BRANCH   1  15
HETATM   15  O3  UNL     1      31.473  43.424  21.730  1.00  0.00    -0.263 OA
BRANCH  15  16
HETATM   16  S1  UNL     1      33.128  43.139  21.764  1.00  0.00     0.262 S 
HETATM   17  C1  UNL     1      34.027  44.685  21.639  1.00  0.00     0.194 C 
HETATM   18  O1  UNL     1      33.476  42.411  23.020  1.00  0.00    -0.199 OA
HETATM   19  O2  UNL     1      33.559  42.304  20.592  1.00  0.00    -0.199 OA
ENDBRANCH  15  16
ENDBRANCH   1  15
BRANCH   2  20
HETATM   20  O4  UNL     1      29.737  42.996  23.603  1.00  0.00    -0.368 OA
ATOM     21  H4  UNL     1      29.221  42.728  24.354  1.00  0.00     0.212 HD
ENDBRANCH   2  20
TORSDOF 8
ENDMDL
MODEL 3
REMARK VINA RESULT: -6.215853448      2.144      2.719
REMARK  8 active torsions:
REMARK  status: ('A' for Active; 'I' for Inactive)
REMARK    1  A    between atoms: S1_2  and  O3_5 
REMARK    2  A    between atoms: O3_5  and  C2_6 
REMARK    3  A    between atoms: C3_7  and  O4_8 
REMARK    4  A    between atoms: C5_12  and  O6_13 
REMARK    5  A    between atoms: O6_13  and  N1_14 
REMARK    6  A    between atoms: N1_14  and  N2_16 
REMARK    7  A    between atoms: N2_16  and  N3_17 
REMARK    8  A    between atoms: N2_16  and  O7_20 
ROOT
HETATM    1  C2  UNL     1      31.231  43.012  21.528  1.00  0.00     0.230 C 
HETATM    2  C3  UNL     1      30.849  43.190  23.000  1.00  0.00     0.289 C 
HETATM    3  O5  UNL     1      29.929  42.224  23.297  1.00  0.00    -0.356 OA
HETATM    4  C4  UNL     1      29.394  41.719  22.144  1.00  0.00     0.208 C 
HETATM    5  C5  UNL     1      29.864  42.583  20.993  1.00  0.00     0.213 C 
ENDROOT
BRANCH   5   6
HETATM    6  O6  UNL     1      29.958  41.883  19.789  1.00  0.00    -0.251 OA
BRANCH   6   7
HETATM    7  N1  UNL     1      30.584  42.476  18.722  1.00  0.00    -0.165 N 
ATOM      8  H1  UNL     1      30.538  43.489  18.614  1.00  0.00     0.220 HD
BRANCH   7   9
HETATM    9  N2  UNL     1      31.229  41.776  17.854  1.00  0.00    -0.081 N 
BRANCH   9  10
HETATM   10  N3  UNL     1      30.845  40.489  17.516  1.00  0.00    -0.302 N 
ATOM     11  H32 UNL     1      30.564  40.303  16.554  1.00  0.00     0.181 HD
ATOM     12  H31 UNL     1      30.836  39.731  18.198  1.00  0.00     0.181 HD
ENDBRANCH   9  10
BRANCH   9  13
HETATM   13  O7  UNL     1      32.338  42.312  17.237  1.00  0.00    -0.252 OA
ATOM     14  H7  UNL     1      32.907  42.898  17.724  1.00  0.00     0.248 HD
ENDBRANCH   9  13
ENDBRANCH   7   9
ENDBRANCH   6   7
ENDBRANCH   5   6
BRANCH   1  15
HETATM   15  O3  UNL     1      31.669  44.184  20.970  1.00  0.00    -0.263 OA
BRANCH  15  16
HETATM   16  S1  UNL     1      33.190  43.904  20.312  1.00  0.00     0.262 S 
HETATM   17  C1  UNL     1      34.446  44.747  21.273  1.00  0.00     0.194 C 
HETATM   18  O1  UNL     1      33.440  42.434  20.263  1.00  0.00    -0.199 OA
HETATM   19  O2  UNL     1      33.287  44.453  18.917  1.00  0.00    -0.199 OA
ENDBRANCH  15  16
ENDBRANCH   1  15
BRANCH   2  20
HETATM   20  O4  UNL     1      30.218  44.449  23.097  1.00  0.00    -0.368 OA
ATOM     21  H4  UNL     1      29.703  44.430  23.896  1.00  0.00     0.212 HD
ENDBRANCH   2  20
TORSDOF 8
ENDMDL
MODEL 4
REMARK VINA RESULT: -6.194411505      2.160      2.898
REMARK  8 active torsions:
REMARK  status: ('A' for Active; 'I' for Inactive)
REMARK    1  A    between atoms: S1_2  and  O3_5 
REMARK    2  A    between atoms: O3_5  and  C2_6 
REMARK    3  A    between atoms: C3_7  and  O4_8 
REMARK    4  A    between atoms: C5_12  and  O6_13 
REMARK    5  A    between atoms: O6_13  and  N1_14 
REMARK    6  A    between atoms: N1_14  and  N2_16 
REMARK    7  A    between atoms: N2_16  and  N3_17 
REMARK    8  A    between atoms: N2_16  and  O7_20 
ROOT
HETATM    1  C2  UNL     1      32.202  44.345  21.861  1.00  0.00     0.230 C 
HETATM    2  C3  UNL     1      31.653  43.539  23.042  1.00  0.00     0.289 C 
HETATM    3  O5  UNL     1      31.281  42.317  22.556  1.00  0.00    -0.356 OA
HETATM    4  C4  UNL     1      31.154  42.374  21.196  1.00  0.00     0.208 C 
HETATM    5  C5  UNL     1      31.256  43.825  20.776  1.00  0.00     0.213 C 
ENDROOT
BRANCH   5   6
HETATM    6  O6  UNL     1      31.778  43.986  19.492  1.00  0.00    -0.251 OA
BRANCH   6   7
HETATM    7  N1  UNL     1      31.898  45.253  18.977  1.00  0.00    -0.165 N 
ATOM      8  H1  UNL     1      31.212  45.964  19.231  1.00  0.00     0.220 HD
BRANCH   7   9
HETATM    9  N2  UNL     1      32.859  45.559  18.177  1.00  0.00    -0.081 N 
BRANCH   9  10
HETATM   10  N3  UNL     1      33.202  46.874  17.911  1.00  0.00    -0.302 N 
ATOM     11  H32 UNL     1      32.593  47.421  17.303  1.00  0.00     0.181 HD
ATOM     12  H31 UNL     1      34.039  47.305  18.305  1.00  0.00     0.181 HD
ENDBRANCH   9  10
BRANCH   9  13
HETATM   13  O7  UNL     1      33.576  44.557  17.561  1.00  0.00    -0.252 OA
ATOM     14  H7  UNL     1      33.123  43.785  17.244  1.00  0.00     0.248 HD
ENDBRANCH   9  13
ENDBRANCH   7   9
ENDBRANCH   6   7
ENDBRANCH   5   6
BRANCH   1  15
HETATM   15  O3  UNL     1      32.078  45.694  22.064  1.00  0.00    -0.263 OA
BRANCH  15  16
HETATM   16  S1  UNL     1      33.605  46.379  21.921  1.00  0.00     0.262 S 
HETATM   17  C1  UNL     1      34.827  45.108  21.597  1.00  0.00     0.194 C 
HETATM   18  O1  UNL     1      33.586  47.402  20.835  1.00  0.00    -0.199 OA
HETATM   19  O2  UNL     1      34.021  47.047  23.201  1.00  0.00    -0.199 OA
ENDBRANCH  15  16
ENDBRANCH   1  15
BRANCH   2  20
HETATM   20  O4  UNL     1      30.494  44.215  23.480  1.00  0.00    -0.368 OA
ATOM     21  H4  UNL     1      29.822  43.552  23.588  1.00  0.00     0.212 HD
ENDBRANCH   2  20
TORSDOF 8
ENDMDL
MODEL 5
REMARK VINA RESULT: -6.174608054      1.825      2.184
REMARK  8 active torsions:
REMARK  status: ('A' for Active; 'I' for Inactive)
REMARK    1  A    between atoms: S1_2  and  O3_5 
REMARK    2  A    between atoms: O3_5  and  C2_6 
REMARK    3  A    between atoms: C3_7  and  O4_8 
REMARK    4  A    between atoms: C5_12  and  O6_13 
REMARK    5  A    between atoms: O6_13  and  N1_14 
REMARK    6  A    between atoms: N1_14  and  N2_16 
REMARK    7  A    between atoms: N2_16  and  N3_17 
REMARK    8  A    between atoms: N2_16  and  O7_20 
ROOT
HETATM    1  C2  UNL     1      32.998  43.455  21.550  1.00  0.00     0.230 C 
HETATM    2  C3  UNL     1      32.646  42.452  22.653  1.00  0.00     0.289 C 
HETATM    3  O5  UNL     1      31.516  41.796  22.255  1.00  0.00    -0.356 OA
HETATM    4  C4  UNL     1      30.894  42.499  21.261  1.00  0.00     0.208 C 
HETATM    5  C5  UNL     1      31.576  43.845  21.141  1.00  0.00     0.213 C 
ENDROOT
BRANCH   5   6
HETATM    6  O6  UNL     1      31.519  44.373  19.851  1.00  0.00    -0.251 OA
BRANCH   6   7
HETATM    7  N1  UNL     1      32.410  45.353  19.492  1.00  0.00    -0.165 N 
ATOM      8  H1  UNL     1      32.846  45.923  20.218  1.00  0.00     0.220 HD
BRANCH   7   9
HETATM    9  N2  UNL     1      32.706  45.566  18.258  1.00  0.00    -0.081 N 
BRANCH   9  10
HETATM   10  N3  UNL     1      33.873  45.085  17.689  1.00  0.00    -0.302 N 
ATOM     11  H32 UNL     1      33.920  45.003  16.673  1.00  0.00     0.181 HD
ATOM     12  H31 UNL     1      34.679  44.816  18.253  1.00  0.00     0.181 HD
ENDBRANCH   9  10
BRANCH   9  13
HETATM   13  O7  UNL     1      31.844  46.295  17.469  1.00  0.00    -0.252 OA
ATOM     14  H7  UNL     1      31.961  46.299  16.526  1.00  0.00     0.248 HD
ENDBRANCH   9  13
ENDBRANCH   7   9
ENDBRANCH   6   7
ENDBRANCH   5   6
BRANCH   1  15
HETATM   15  O3  UNL     1      33.715  44.516  22.036  1.00  0.00    -0.263 OA
BRANCH  15  16
HETATM   16  S1  UNL     1      35.303  44.346  21.516  1.00  0.00     0.262 S 
HETATM   17  C1  UNL     1      36.061  42.920  22.294  1.00  0.00     0.194 C 
HETATM   18  O1  UNL     1      35.323  44.226  20.028  1.00  0.00    -0.199 OA
HETATM   19  O2  UNL     1      36.134  45.533  21.911  1.00  0.00    -0.199 OA
ENDBRANCH  15  16
ENDBRANCH   1  15
BRANCH   2  20
HETATM   20  O4  UNL     1      32.336  43.215  23.799  1.00  0.00    -0.368 OA
ATOM     21  H4  UNL     1      32.848  42.848  24.511  1.00  0.00     0.212 HD
ENDBRANCH   2  20
TORSDOF 8
ENDMDL
