MODEL 1
REMARK VINA RESULT: -5.357794880      0.000      0.000
REMARK  3 active torsions:
REMARK  status: ('A' for Active; 'I' for Inactive)
REMARK    1  A    between atoms: C4_4  and  C5_5 
REMARK    2  A    between atoms: C11_11  and  N1_12 
REMARK    3  A    between atoms: N1_12  and  C12_14 
ROOT
HETATM    1  C1  UNL     1       0.495   7.726   6.890  1.00  0.00     0.012 C 
HETATM    2  C2  UNL     1      -0.325   6.557   6.383  1.00  0.00     0.004 C 
HETATM    3  C3  UNL     1      -0.243   5.467   7.412  1.00  0.00     0.011 C 
HETATM    4  C4  UNL     1      -1.123   4.296   7.103  1.00  0.00    -0.007 C 
HETATM    5  C9  UNL     1      -2.098   4.575   5.992  1.00  0.00     0.007 C 
HETATM    6  C10 UNL     1      -2.739   5.941   6.072  1.00  0.00     0.026 C 
HETATM    7  C11 UNL     1      -1.724   7.048   6.136  1.00  0.00     0.087 C 
ENDROOT
BRANCH   7   8
HETATM    8  N1  UNL     1      -2.117   8.044   7.106  1.00  0.00    -0.364 N 
ATOM      9  H1  UNL     1      -1.411   8.360   7.771  1.00  0.00     0.162 HD
BRANCH   8  10
HETATM   10  C12 UNL     1      -3.409   8.615   7.202  1.00  0.00     0.181 C 
HETATM   11  N2  UNL     1      -4.302   8.301   8.264  1.00  0.00    -0.070 NA
HETATM   12  S1  UNL     1      -3.866   9.671   6.040  1.00  0.00    -0.044 SA
ENDBRANCH   8  10
ENDBRANCH   7   8
BRANCH   4  13
HETATM   13  C5  UNL     1      -1.747   3.775   8.349  1.00  0.00    -0.048 C 
HETATM   14  C6  UNL     1      -0.686   2.929   9.063  1.00  0.00     0.015 C 
HETATM   15  C7  UNL     1      -2.236   4.785   9.325  1.00  0.00     0.015 C 
HETATM   16  C8  UNL     1      -2.913   2.838   8.051  1.00  0.00     0.015 C 
ENDBRANCH   4  13
TORSDOF 3
ENDMDL
MODEL 2
REMARK VINA RESULT: -5.306222609      2.793      5.264
REMARK  3 active torsions:
REMARK  status: ('A' for Active; 'I' for Inactive)
REMARK    1  A    between atoms: C4_4  and  C5_5 
REMARK    2  A    between atoms: C11_11  and  N1_12 
REMARK    3  A    between atoms: N1_12  and  C12_14 
ROOT
HETATM    1  C1  UNL     1      -0.277   7.147   6.385  1.00  0.00     0.012 C 
HETATM    2  C2  UNL     1      -1.484   7.552   7.206  1.00  0.00     0.004 C 
HETATM    3  C3  UNL     1      -2.198   8.639   6.455  1.00  0.00     0.011 C 
HETATM    4  C4  UNL     1      -3.492   9.043   7.089  1.00  0.00    -0.007 C 
HETATM    5  C9  UNL     1      -3.933   8.096   8.172  1.00  0.00     0.007 C 
HETATM    6  C10 UNL     1      -3.739   6.639   7.823  1.00  0.00     0.026 C 
HETATM    7  C11 UNL     1      -2.322   6.326   7.432  1.00  0.00     0.087 C 
ENDROOT
BRANCH   7   8
HETATM    8  N1  UNL     1      -2.292   5.443   6.288  1.00  0.00    -0.364 N 
ATOM      9  H1  UNL     1      -2.584   5.826   5.389  1.00  0.00     0.162 HD
BRANCH   8  10
HETATM   10  C12 UNL     1      -1.887   4.088   6.322  1.00  0.00     0.181 C 
HETATM   11  N2  UNL     1      -1.182   3.477   5.248  1.00  0.00    -0.070 NA
HETATM   12  S1  UNL     1      -2.254   3.214   7.654  1.00  0.00    -0.044 SA
ENDBRANCH   8  10
ENDBRANCH   7   8
BRANCH   4  13
HETATM   13  C5  UNL     1      -4.521   9.301   6.046  1.00  0.00    -0.048 C 
HETATM   14  C6  UNL     1      -3.987  10.433   5.159  1.00  0.00     0.015 C 
HETATM   15  C7  UNL     1      -4.865   8.165   5.150  1.00  0.00     0.015 C 
HETATM   16  C8  UNL     1      -5.826   9.809   6.649  1.00  0.00     0.015 C 
ENDBRANCH   4  13
TORSDOF 3
ENDMDL
MODEL 3
REMARK VINA RESULT: -5.282897589      0.117      1.085
REMARK  3 active torsions:
REMARK  status: ('A' for Active; 'I' for Inactive)
REMARK    1  A    between atoms: C4_4  and  C5_5 
REMARK    2  A    between atoms: C11_11  and  N1_12 
REMARK    3  A    between atoms: N1_12  and  C12_14 
ROOT
HETATM    1  C1  UNL     1       0.488   7.818   6.907  1.00  0.00     0.012 C 
HETATM    2  C2  UNL     1      -0.284   6.625   6.382  1.00  0.00     0.004 C 
HETATM    3  C3  UNL     1      -0.156   5.521   7.392  1.00  0.00     0.011 C 
HETATM    4  C4  UNL     1      -0.987   4.321   7.063  1.00  0.00    -0.007 C 
HETATM    5  C9  UNL     1      -1.974   4.578   5.958  1.00  0.00     0.007 C 
HETATM    6  C10 UNL     1      -2.671   5.915   6.062  1.00  0.00     0.026 C 
HETATM    7  C11 UNL     1      -1.702   7.061   6.144  1.00  0.00     0.087 C 
ENDROOT
BRANCH   7   8
HETATM    8  N1  UNL     1      -2.135   8.024   7.131  1.00  0.00    -0.364 N 
ATOM      9  H1  UNL     1      -1.447   8.339   7.816  1.00  0.00     0.162 HD
BRANCH   8  10
HETATM   10  C12 UNL     1      -3.440   8.563   7.218  1.00  0.00     0.181 C 
HETATM   11  N2  UNL     1      -4.339   8.214   8.265  1.00  0.00    -0.070 NA
HETATM   12  S1  UNL     1      -3.909   9.623   6.065  1.00  0.00    -0.044 SA
ENDBRANCH   8  10
ENDBRANCH   7   8
BRANCH   4  13
HETATM   13  C5  UNL     1      -1.587   3.753   8.301  1.00  0.00    -0.048 C 
HETATM   14  C6  UNL     1      -2.769   2.877   7.866  1.00  0.00     0.015 C 
HETATM   15  C7  UNL     1      -0.702   2.911   9.149  1.00  0.00     0.015 C 
HETATM   16  C8  UNL     1      -2.168   4.840   9.200  1.00  0.00     0.015 C 
ENDBRANCH   4  13
TORSDOF 3
ENDMDL
MODEL 4
REMARK VINA RESULT: -5.253360002      2.855      5.702
REMARK  3 active torsions:
REMARK  status: ('A' for Active; 'I' for Inactive)
REMARK    1  A    between atoms: C4_4  and  C5_5 
REMARK    2  A    between atoms: C11_11  and  N1_12 
REMARK    3  A    between atoms: N1_12  and  C12_14 
ROOT
HETATM    1  C1  UNL     1       0.140   7.462   6.330  1.00  0.00     0.012 C 
HETATM    2  C2  UNL     1      -1.024   8.242   6.907  1.00  0.00     0.004 C 
HETATM    3  C3  UNL     1      -1.138   9.524   6.134  1.00  0.00     0.011 C 
HETATM    4  C4  UNL     1      -2.337  10.336   6.511  1.00  0.00    -0.007 C 
HETATM    5  C9  UNL     1      -3.310   9.576   7.371  1.00  0.00     0.007 C 
HETATM    6  C10 UNL     1      -3.532   8.150   6.925  1.00  0.00     0.026 C 
HETATM    7  C11 UNL     1      -2.248   7.375   6.820  1.00  0.00     0.087 C 
ENDROOT
BRANCH   7   8
HETATM    8  N1  UNL     1      -2.240   6.561   5.626  1.00  0.00    -0.364 N 
ATOM      9  H1  UNL     1      -2.205   7.043   4.727  1.00  0.00     0.162 HD
BRANCH   8  10
HETATM   10  C12 UNL     1      -2.278   5.147   5.610  1.00  0.00     0.181 C 
HETATM   11  N2  UNL     1      -1.556   4.377   4.656  1.00  0.00    -0.070 NA
HETATM   12  S1  UNL     1      -3.188   4.394   6.740  1.00  0.00    -0.044 SA
ENDBRANCH   8  10
ENDBRANCH   7   8
BRANCH   4  13
HETATM   13  C5  UNL     1      -2.943  10.956   5.302  1.00  0.00    -0.048 C 
HETATM   14  C6  UNL     1      -2.241  12.303   5.088  1.00  0.00     0.015 C 
HETATM   15  C7  UNL     1      -2.829  10.193   4.031  1.00  0.00     0.015 C 
HETATM   16  C8  UNL     1      -4.421  11.270   5.505  1.00  0.00     0.015 C 
ENDBRANCH   4  13
TORSDOF 3
ENDMDL
MODEL 5
REMARK VINA RESULT: -5.248111246      2.726      5.264
REMARK  3 active torsions:
REMARK  status: ('A' for Active; 'I' for Inactive)
REMARK    1  A    between atoms: C4_4  and  C5_5 
REMARK    2  A    between atoms: C11_11  and  N1_12 
REMARK    3  A    between atoms: N1_12  and  C12_14 
ROOT
HETATM    1  C1  UNL     1      -0.345   7.113   6.357  1.00  0.00     0.012 C 
HETATM    2  C2  UNL     1      -1.523   7.588   7.183  1.00  0.00     0.004 C 
HETATM    3  C3  UNL     1      -2.152   8.741   6.454  1.00  0.00     0.011 C 
HETATM    4  C4  UNL     1      -3.416   9.224   7.093  1.00  0.00    -0.007 C 
HETATM    5  C9  UNL     1      -3.931   8.288   8.153  1.00  0.00     0.007 C 
HETATM    6  C10 UNL     1      -3.842   6.829   7.772  1.00  0.00     0.026 C 
HETATM    7  C11 UNL     1      -2.450   6.422   7.378  1.00  0.00     0.087 C 
ENDROOT
BRANCH   7   8
HETATM    8  N1  UNL     1      -2.478   5.565   6.215  1.00  0.00    -0.364 N 
ATOM      9  H1  UNL     1      -2.698   5.996   5.317  1.00  0.00     0.162 HD
BRANCH   8  10
HETATM   10  C12 UNL     1      -2.225   4.172   6.229  1.00  0.00     0.181 C 
HETATM   11  N2  UNL     1      -1.282   3.562   5.356  1.00  0.00    -0.070 NA
HETATM   12  S1  UNL     1      -3.057   3.255   7.296  1.00  0.00    -0.044 SA
ENDBRANCH   8  10
ENDBRANCH   7   8
BRANCH   4  13
HETATM   13  C5  UNL     1      -4.418   9.580   6.052  1.00  0.00    -0.048 C 
HETATM   14  C6  UNL     1      -4.587   8.349   5.151  1.00  0.00     0.015 C 
HETATM   15  C7  UNL     1      -5.773   9.964   6.530  1.00  0.00     0.015 C 
HETATM   16  C8  UNL     1      -3.924  10.706   5.151  1.00  0.00     0.015 C 
ENDBRANCH   4  13
TORSDOF 3
ENDMDL
