MODEL 1
REMARK VINA RESULT: -7.170862603      0.000      0.000
REMARK  10 active torsions:
REMARK  status: ('A' for Active; 'I' for Inactive)
REMARK    1  A    between atoms: N1_2  and  C2_3 
REMARK    2  A    between atoms: N1_2  and  C15_22 
REMARK    3  A    between atoms: C2_3  and  N2_5 
REMARK    4  A    between atoms: N2_5  and  C3_7 
REMARK    5  A    between atoms: C3_7  and  C4_8 
REMARK    6  A    between atoms: C4_8  and  C5_9 
REMARK    7  A    between atoms: C5_9  and  C6_10 
REMARK    8  A    between atoms: C6_10  and  C7_11 
REMARK    9  A    between atoms: C7_11  and  N3_12 
REMARK       I    between atoms: N3_12  and  C8_14 
REMARK   10  A    between atoms: C8_14  and  C9_16 
ROOT
HETATM    1  C4  UNL     1      54.497  10.554  -1.702  1.00  0.00     0.020 C 
ENDROOT
BRANCH   1   2
HETATM    2  C3  UNL     1      53.220  11.266  -2.044  1.00  0.00     0.122 C 
BRANCH   2   3
HETATM    3  N2  UNL     1      52.489  11.591  -0.865  1.00  0.00    -0.367 N 
ATOM      4  H2  UNL     1      52.212  10.791  -0.297  1.00  0.00     0.161 HD
BRANCH   3   5
HETATM    5  C2  UNL     1      52.092  12.839  -0.364  1.00  0.00     0.169 C 
HETATM    6  S1  UNL     1      50.431  13.121  -0.510  1.00  0.00    -0.041 SA
BRANCH   5   7
HETATM    7  N1  UNL     1      52.842  13.851   0.219  1.00  0.00    -0.358 N 
HETATM    8  C1  UNL     1      52.364  14.403   1.512  1.00  0.00     0.152 C 
BRANCH   7   9
HETATM    9  C15 UNL     1      54.034  14.414  -0.269  1.00  0.00     0.086 C 
HETATM   10  C16 UNL     1      55.274  13.645   0.249  1.00  0.00     0.025 C 
HETATM   11  C17 UNL     1      56.368  14.618  -0.176  1.00  0.00     0.002 C 
HETATM   12  C18 UNL     1      55.737  15.996  -0.159  1.00  0.00     0.002 C 
HETATM   13  C19 UNL     1      54.348  15.763   0.455  1.00  0.00     0.025 C 
ENDBRANCH   7   9
ENDBRANCH   5   7
ENDBRANCH   3   5
ENDBRANCH   2   3
ENDBRANCH   1   2
BRANCH   1  14
HETATM   14  C5  UNL     1      54.331   9.051  -1.939  1.00  0.00     0.007 C 
BRANCH  14  15
HETATM   15  C6  UNL     1      54.861   8.202  -0.871  1.00  0.00     0.044 C 
BRANCH  15  16
HETATM   16  C7  UNL     1      54.297   8.348   0.479  1.00  0.00     0.064 C 
BRANCH  16  17
HETATM   17  N3  UNL     1      54.934   9.220   1.376  1.00  0.00    -0.340 N 
HETATM   18  C8  UNL     1      54.487  10.373   2.002  1.00  0.00     0.225 C 
HETATM   19  O1  UNL     1      53.341  10.857   1.887  1.00  0.00    -0.273 OA
ATOM     20  H3  UNL     1      55.892   8.959   1.607  1.00  0.00     0.167 HD
BRANCH  18  21
HETATM   21  C9  UNL     1      55.463  11.111   2.901  1.00  0.00     0.078 C 
HETATM   22  C10 UNL     1      55.238  10.680   4.348  1.00  0.00     0.014 C 
HETATM   23  C11 UNL     1      55.877  11.777   5.208  1.00  0.00     0.001 C 
HETATM   24  C12 UNL     1      57.166  12.220   4.567  1.00  0.00     0.000 C 
HETATM   25  C13 UNL     1      57.784  11.136   3.711  1.00  0.00     0.001 C 
HETATM   26  C14 UNL     1      56.887  10.727   2.566  1.00  0.00     0.014 C 
ENDBRANCH  18  21
ENDBRANCH  16  17
ENDBRANCH  15  16
ENDBRANCH  14  15
ENDBRANCH   1  14
TORSDOF 10
ENDMDL
MODEL 2
REMARK VINA RESULT: -7.129512563      0.418      1.089
REMARK  10 active torsions:
REMARK  status: ('A' for Active; 'I' for Inactive)
REMARK    1  A    between atoms: N1_2  and  C2_3 
REMARK    2  A    between atoms: N1_2  and  C15_22 
REMARK    3  A    between atoms: C2_3  and  N2_5 
REMARK    4  A    between atoms: N2_5  and  C3_7 
REMARK    5  A    between atoms: C3_7  and  C4_8 
REMARK    6  A    between atoms: C4_8  and  C5_9 
REMARK    7  A    between atoms: C5_9  and  C6_10 
REMARK    8  A    between atoms: C6_10  and  C7_11 
REMARK    9  A    between atoms: C7_11  and  N3_12 
REMARK       I    between atoms: N3_12  and  C8_14 
REMARK   10  A    between atoms: C8_14  and  C9_16 
ROOT
HETATM    1  C4  UNL     1      54.556  10.695  -1.599  1.00  0.00     0.020 C 
ENDROOT
BRANCH   1   2
HETATM    2  C3  UNL     1      53.193  11.245  -1.902  1.00  0.00     0.122 C 
BRANCH   2   3
HETATM    3  N2  UNL     1      52.506  11.591  -0.703  1.00  0.00    -0.367 N 
ATOM      4  H2  UNL     1      52.335  10.812  -0.066  1.00  0.00     0.161 HD
BRANCH   3   5
HETATM    5  C2  UNL     1      52.029  12.832  -0.261  1.00  0.00     0.169 C 
HETATM    6  S1  UNL     1      50.342  12.922  -0.212  1.00  0.00    -0.041 SA
BRANCH   5   7
HETATM    7  N1  UNL     1      52.720  13.971   0.131  1.00  0.00    -0.358 N 
HETATM    8  C1  UNL     1      52.092  14.835   1.162  1.00  0.00     0.152 C 
BRANCH   7   9
HETATM    9  C15 UNL     1      53.978  14.401  -0.327  1.00  0.00     0.086 C 
HETATM   10  C16 UNL     1      55.127  13.670   0.411  1.00  0.00     0.025 C 
HETATM   11  C17 UNL     1      56.304  14.520  -0.055  1.00  0.00     0.002 C 
HETATM   12  C18 UNL     1      55.750  15.909  -0.303  1.00  0.00     0.002 C 
HETATM   13  C19 UNL     1      54.304  15.832   0.210  1.00  0.00     0.025 C 
ENDBRANCH   7   9
ENDBRANCH   5   7
ENDBRANCH   3   5
ENDBRANCH   2   3
ENDBRANCH   1   2
BRANCH   1  14
HETATM   14  C5  UNL     1      54.670   9.266  -2.135  1.00  0.00     0.007 C 
BRANCH  14  15
HETATM   15  C6  UNL     1      54.852   8.240  -1.108  1.00  0.00     0.044 C 
BRANCH  15  16
HETATM   16  C7  UNL     1      54.145   8.403   0.171  1.00  0.00     0.064 C 
BRANCH  16  17
HETATM   17  N3  UNL     1      54.847   8.951   1.256  1.00  0.00    -0.340 N 
HETATM   18  C8  UNL     1      54.594  10.069   2.036  1.00  0.00     0.225 C 
HETATM   19  O1  UNL     1      53.606  10.822   1.917  1.00  0.00    -0.273 OA
ATOM     20  H3  UNL     1      55.690   8.439   1.514  1.00  0.00     0.167 HD
BRANCH  18  21
HETATM   21  C9  UNL     1      55.596  10.409   3.127  1.00  0.00     0.078 C 
HETATM   22  C10 UNL     1      56.735  11.228   2.525  1.00  0.00     0.014 C 
HETATM   23  C11 UNL     1      57.895  11.110   3.520  1.00  0.00     0.001 C 
HETATM   24  C12 UNL     1      57.353  11.176   4.924  1.00  0.00     0.000 C 
HETATM   25  C13 UNL     1      56.047  11.935   4.999  1.00  0.00     0.001 C 
HETATM   26  C14 UNL     1      54.956  11.288   4.178  1.00  0.00     0.014 C 
ENDBRANCH  18  21
ENDBRANCH  16  17
ENDBRANCH  15  16
ENDBRANCH  14  15
ENDBRANCH   1  14
TORSDOF 10
ENDMDL
MODEL 3
REMARK VINA RESULT: -6.909741999      1.596      3.057
REMARK  10 active torsions:
REMARK  status: ('A' for Active; 'I' for Inactive)
REMARK    1  A    between atoms: N1_2  and  C2_3 
REMARK    2  A    between atoms: N1_2  and  C15_22 
REMARK    3  A    between atoms: C2_3  and  N2_5 
REMARK    4  A    between atoms: N2_5  and  C3_7 
REMARK    5  A    between atoms: C3_7  and  C4_8 
REMARK    6  A    between atoms: C4_8  and  C5_9 
REMARK    7  A    between atoms: C5_9  and  C6_10 
REMARK    8  A    between atoms: C6_10  and  C7_11 
REMARK    9  A    between atoms: C7_11  and  N3_12 
REMARK       I    between atoms: N3_12  and  C8_14 
REMARK   10  A    between atoms: C8_14  and  C9_16 
ROOT
HETATM    1  C4  UNL     1      53.576  11.259  -1.452  1.00  0.00     0.020 C 
ENDROOT
BRANCH   1   2
HETATM    2  C3  UNL     1      54.813  12.045  -1.129  1.00  0.00     0.122 C 
BRANCH   2   3
HETATM    3  N2  UNL     1      54.614  12.852   0.027  1.00  0.00    -0.367 N 
ATOM      4  H2  UNL     1      55.159  12.575   0.844  1.00  0.00     0.161 HD
BRANCH   3   5
HETATM    5  C2  UNL     1      53.787  13.967   0.220  1.00  0.00     0.169 C 
HETATM    6  S1  UNL     1      54.378  15.373  -0.511  1.00  0.00    -0.041 SA
BRANCH   5   7
HETATM    7  N1  UNL     1      52.586  14.086   0.906  1.00  0.00    -0.358 N 
HETATM    8  C1  UNL     1      52.498  15.126   1.963  1.00  0.00     0.152 C 
BRANCH   7   9
HETATM    9  C15 UNL     1      51.414  13.338   0.702  1.00  0.00     0.086 C 
HETATM   10  C16 UNL     1      50.810  13.607  -0.699  1.00  0.00     0.025 C 
HETATM   11  C17 UNL     1      49.456  12.929  -0.523  1.00  0.00     0.002 C 
HETATM   12  C18 UNL     1      49.120  13.033   0.951  1.00  0.00     0.002 C 
HETATM   13  C19 UNL     1      50.225  13.934   1.524  1.00  0.00     0.025 C 
ENDBRANCH   7   9
ENDBRANCH   5   7
ENDBRANCH   3   5
ENDBRANCH   2   3
ENDBRANCH   1   2
BRANCH   1  14
HETATM   14  C5  UNL     1      53.958   9.970  -2.184  1.00  0.00     0.007 C 
BRANCH  14  15
HETATM   15  C6  UNL     1      54.795   9.052  -1.410  1.00  0.00     0.044 C 
BRANCH  15  16
HETATM   16  C7  UNL     1      54.315   8.619  -0.090  1.00  0.00     0.064 C 
BRANCH  16  17
HETATM   17  N3  UNL     1      54.968   9.109   1.051  1.00  0.00    -0.340 N 
HETATM   18  C8  UNL     1      54.598  10.081   1.968  1.00  0.00     0.225 C 
HETATM   19  O1  UNL     1      53.522  10.715   1.951  1.00  0.00    -0.273 OA
ATOM     20  H3  UNL     1      55.872   8.676   1.237  1.00  0.00     0.167 HD
BRANCH  18  21
HETATM   21  C9  UNL     1      55.574  10.402   3.087  1.00  0.00     0.078 C 
HETATM   22  C10 UNL     1      56.718  11.245   2.528  1.00  0.00     0.014 C 
HETATM   23  C11 UNL     1      57.859  11.112   3.545  1.00  0.00     0.001 C 
HETATM   24  C12 UNL     1      57.287  11.141   4.937  1.00  0.00     0.000 C 
HETATM   25  C13 UNL     1      55.974  11.888   5.004  1.00  0.00     0.001 C 
HETATM   26  C14 UNL     1      54.906  11.252   4.145  1.00  0.00     0.014 C 
ENDBRANCH  18  21
ENDBRANCH  16  17
ENDBRANCH  15  16
ENDBRANCH  14  15
ENDBRANCH   1  14
TORSDOF 10
ENDMDL
MODEL 4
REMARK VINA RESULT: -6.813698360      2.269      5.997
REMARK  10 active torsions:
REMARK  status: ('A' for Active; 'I' for Inactive)
REMARK    1  A    between atoms: N1_2  and  C2_3 
REMARK    2  A    between atoms: N1_2  and  C15_22 
REMARK    3  A    between atoms: C2_3  and  N2_5 
REMARK    4  A    between atoms: N2_5  and  C3_7 
REMARK    5  A    between atoms: C3_7  and  C4_8 
REMARK    6  A    between atoms: C4_8  and  C5_9 
REMARK    7  A    between atoms: C5_9  and  C6_10 
REMARK    8  A    between atoms: C6_10  and  C7_11 
REMARK    9  A    between atoms: C7_11  and  N3_12 
REMARK       I    between atoms: N3_12  and  C8_14 
REMARK   10  A    between atoms: C8_14  and  C9_16 
ROOT
HETATM    1  C4  UNL     1      56.200  13.114  -0.365  1.00  0.00     0.020 C 
ENDROOT
BRANCH   1   2
HETATM    2  C3  UNL     1      54.968  12.406  -0.848  1.00  0.00     0.122 C 
BRANCH   2   3
HETATM    3  N2  UNL     1      55.043  11.011  -0.573  1.00  0.00    -0.367 N 
ATOM      4  H2  UNL     1      55.272  10.426  -1.376  1.00  0.00     0.161 HD
BRANCH   3   5
HETATM    5  C2  UNL     1      54.851  10.316   0.629  1.00  0.00     0.169 C 
HETATM    6  S1  UNL     1      54.653   8.650   0.415  1.00  0.00    -0.041 SA
BRANCH   5   7
HETATM    7  N1  UNL     1      54.799  10.781   1.936  1.00  0.00    -0.358 N 
HETATM    8  C1  UNL     1      53.545  11.439   2.383  1.00  0.00     0.152 C 
BRANCH   7   9
HETATM    9  C15 UNL     1      55.805  10.683   2.914  1.00  0.00     0.086 C 
HETATM   10  C16 UNL     1      55.760  11.883   3.891  1.00  0.00     0.025 C 
HETATM   11  C17 UNL     1      57.087  11.669   4.612  1.00  0.00     0.002 C 
HETATM   12  C18 UNL     1      58.003  10.986   3.615  1.00  0.00     0.002 C 
HETATM   13  C19 UNL     1      57.206  11.005   2.302  1.00  0.00     0.025 C 
ENDBRANCH   7   9
ENDBRANCH   5   7
ENDBRANCH   3   5
ENDBRANCH   2   3
ENDBRANCH   1   2
BRANCH   1  14
HETATM   14  C5  UNL     1      55.810  14.224   0.614  1.00  0.00     0.007 C 
BRANCH  14  15
HETATM   15  C6  UNL     1      55.435  15.491  -0.015  1.00  0.00     0.044 C 
BRANCH  15  16
HETATM   16  C7  UNL     1      54.141  16.089   0.344  1.00  0.00     0.064 C 
BRANCH  16  17
HETATM   17  N3  UNL     1      53.014  15.255   0.404  1.00  0.00    -0.340 N 
HETATM   18  C8  UNL     1      52.250  14.829   1.479  1.00  0.00     0.225 C 
HETATM   19  O1  UNL     1      52.430  15.164   2.669  1.00  0.00    -0.273 OA
ATOM     20  H3  UNL     1      52.705  14.900  -0.500  1.00  0.00     0.167 HD
BRANCH  18  21
HETATM   21  C9  UNL     1      51.099  13.879   1.194  1.00  0.00     0.078 C 
HETATM   22  C10 UNL     1      49.778  14.602   1.449  1.00  0.00     0.014 C 
HETATM   23  C11 UNL     1      48.732  13.493   1.620  1.00  0.00     0.001 C 
HETATM   24  C12 UNL     1      49.007  12.395   0.627  1.00  0.00     0.000 C 
HETATM   25  C13 UNL     1      49.734  12.899  -0.599  1.00  0.00     0.001 C 
HETATM   26  C14 UNL     1      51.087  13.485  -0.265  1.00  0.00     0.014 C 
ENDBRANCH  18  21
ENDBRANCH  16  17
ENDBRANCH  15  16
ENDBRANCH  14  15
ENDBRANCH   1  14
TORSDOF 10
ENDMDL
MODEL 5
REMARK VINA RESULT: -6.762185615      2.011      5.317
REMARK  10 active torsions:
REMARK  status: ('A' for Active; 'I' for Inactive)
REMARK    1  A    between atoms: N1_2  and  C2_3 
REMARK    2  A    between atoms: N1_2  and  C15_22 
REMARK    3  A    between atoms: C2_3  and  N2_5 
REMARK    4  A    between atoms: N2_5  and  C3_7 
REMARK    5  A    between atoms: C3_7  and  C4_8 
REMARK    6  A    between atoms: C4_8  and  C5_9 
REMARK    7  A    between atoms: C5_9  and  C6_10 
REMARK    8  A    between atoms: C6_10  and  C7_11 
REMARK    9  A    between atoms: C7_11  and  N3_12 
REMARK       I    between atoms: N3_12  and  C8_14 
REMARK   10  A    between atoms: C8_14  and  C9_16 
ROOT
HETATM    1  C4  UNL     1      51.870  15.566   0.897  1.00  0.00     0.020 C 
ENDROOT
BRANCH   1   2
HETATM    2  C3  UNL     1      53.313  15.906   1.131  1.00  0.00     0.122 C 
BRANCH   2   3
HETATM    3  N2  UNL     1      54.045  14.756   1.543  1.00  0.00    -0.367 N 
ATOM      4  H2  UNL     1      53.606  14.211   2.285  1.00  0.00     0.161 HD
BRANCH   3   5
HETATM    5  C2  UNL     1      55.273  14.255   1.089  1.00  0.00     0.169 C 
HETATM    6  S1  UNL     1      55.924  15.143  -0.195  1.00  0.00    -0.041 SA
BRANCH   5   7
HETATM    7  N1  UNL     1      56.014  13.165   1.524  1.00  0.00    -0.358 N 
HETATM    8  C1  UNL     1      56.696  12.342   0.493  1.00  0.00     0.152 C 
BRANCH   7   9
HETATM    9  C15 UNL     1      56.216  12.750   2.852  1.00  0.00     0.086 C 
HETATM   10  C16 UNL     1      56.965  11.396   2.912  1.00  0.00     0.025 C 
HETATM   11  C17 UNL     1      56.777  11.071   4.390  1.00  0.00     0.002 C 
HETATM   12  C18 UNL     1      55.472  11.723   4.803  1.00  0.00     0.002 C 
HETATM   13  C19 UNL     1      54.880  12.242   3.483  1.00  0.00     0.025 C 
ENDBRANCH   7   9
ENDBRANCH   5   7
ENDBRANCH   3   5
ENDBRANCH   2   3
ENDBRANCH   1   2
BRANCH   1  14
HETATM   14  C5  UNL     1      51.404  14.542   1.934  1.00  0.00     0.007 C 
BRANCH  14  15
HETATM   15  C6  UNL     1      50.314  13.673   1.489  1.00  0.00     0.044 C 
BRANCH  15  16
HETATM   16  C7  UNL     1      50.458  12.982   0.199  1.00  0.00     0.064 C 
BRANCH  16  17
HETATM   17  N3  UNL     1      51.321  11.877   0.127  1.00  0.00    -0.340 N 
HETATM   18  C8  UNL     1      52.626  11.766  -0.327  1.00  0.00     0.225 C 
HETATM   19  O1  UNL     1      53.322  12.708  -0.757  1.00  0.00    -0.273 OA
ATOM     20  H3  UNL     1      50.917  11.005   0.467  1.00  0.00     0.167 HD
BRANCH  18  21
HETATM   21  C9  UNL     1      53.266  10.388  -0.300  1.00  0.00     0.078 C 
HETATM   22  C10 UNL     1      54.384  10.334  -1.339  1.00  0.00     0.014 C 
HETATM   23  C11 UNL     1      54.635   8.843  -1.594  1.00  0.00     0.001 C 
HETATM   24  C12 UNL     1      54.551   8.096  -0.289  1.00  0.00     0.000 C 
HETATM   25  C13 UNL     1      54.881   8.975   0.897  1.00  0.00     0.001 C 
HETATM   26  C14 UNL     1      53.924  10.135   1.038  1.00  0.00     0.014 C 
ENDBRANCH  18  21
ENDBRANCH  16  17
ENDBRANCH  15  16
ENDBRANCH  14  15
ENDBRANCH   1  14
TORSDOF 10
ENDMDL
