MODEL 1
REMARK VINA RESULT: -7.026103846      0.000      0.000
REMARK  10 active torsions:
REMARK  status: ('A' for Active; 'I' for Inactive)
REMARK    1  A    between atoms: C1_2  and  C2_3 
REMARK       I    between atoms: C1_2  and  N3_19 
REMARK    2  A    between atoms: C2_3  and  C3_4 
REMARK    3  A    between atoms: C3_4  and  C4_5 
REMARK    4  A    between atoms: C4_5  and  C5_6 
REMARK    5  A    between atoms: C5_6  and  C6_7 
REMARK    6  A    between atoms: C6_7  and  C7_8 
REMARK    7  A    between atoms: C7_8  and  N1_9 
REMARK    8  A    between atoms: N1_9  and  C8_11 
REMARK    9  A    between atoms: C8_11  and  N2_13 
REMARK   10  A    between atoms: N3_19  and  C14_21 
ROOT
HETATM    1  C5  UNL     1      56.383  11.340   3.059  1.00  0.00     0.002 C 
ENDROOT
BRANCH   1   2
HETATM    2  C4  UNL     1      56.233  12.470   2.079  1.00  0.00     0.001 C 
BRANCH   2   3
HETATM    3  C3  UNL     1      56.763  12.110   0.718  1.00  0.00     0.009 C 
BRANCH   3   4
HETATM    4  C2  UNL     1      57.195  13.328  -0.031  1.00  0.00     0.103 C 
BRANCH   4   5
HETATM    5  C1  UNL     1      56.067  14.237  -0.297  1.00  0.00     0.217 C 
HETATM    6  O1  UNL     1      55.105  13.832  -0.991  1.00  0.00    -0.274 OA
HETATM    7  N3  UNL     1      56.050  15.575   0.226  1.00  0.00    -0.356 N 
ATOM      8  H3  UNL     1      56.841  15.885   0.790  1.00  0.00     0.162 HD
BRANCH   7   9
HETATM    9  C14 UNL     1      54.978  16.496  -0.006  1.00  0.00     0.084 C 
HETATM   10  C15 UNL     1      55.430  17.936   0.016  1.00  0.00     0.025 C 
HETATM   11  C16 UNL     1      55.020  18.402   1.415  1.00  0.00     0.002 C 
HETATM   12  C17 UNL     1      53.672  17.719   1.536  1.00  0.00     0.002 C 
HETATM   13  C18 UNL     1      53.964  16.323   1.085  1.00  0.00     0.025 C 
ENDBRANCH   7   9
ENDBRANCH   4   5
ENDBRANCH   3   4
ENDBRANCH   2   3
ENDBRANCH   1   2
BRANCH   1  14
HETATM   14  C6  UNL     1      55.044  10.973   3.640  1.00  0.00     0.020 C 
BRANCH  14  15
HETATM   15  C7  UNL     1      53.951  11.724   2.971  1.00  0.00     0.122 C 
BRANCH  15  16
HETATM   16  N1  UNL     1      53.199  10.806   2.095  1.00  0.00    -0.367 N 
ATOM     17  H1  UNL     1      52.641  10.070   2.528  1.00  0.00     0.161 HD
BRANCH  16  18
HETATM   18  C8  UNL     1      53.215  10.899   0.696  1.00  0.00     0.169 C 
HETATM   19  S1  UNL     1      52.121  11.908  -0.024  1.00  0.00    -0.041 SA
BRANCH  18  20
HETATM   20  N2  UNL     1      54.110  10.214  -0.107  1.00  0.00    -0.358 N 
HETATM   21  C9  UNL     1      54.865   9.076   0.433  1.00  0.00     0.125 C 
HETATM   22  C10 UNL     1      54.365   7.866  -0.325  1.00  0.00     0.020 C 
HETATM   23  C11 UNL     1      54.485   8.042  -1.813  1.00  0.00     0.003 C 
HETATM   24  C12 UNL     1      53.962   9.339  -2.331  1.00  0.00     0.020 C 
HETATM   25  C13 UNL     1      54.375  10.527  -1.478  1.00  0.00     0.125 C 
ENDBRANCH  18  20
ENDBRANCH  16  18
ENDBRANCH  15  16
ENDBRANCH  14  15
ENDBRANCH   1  14
TORSDOF 10
ENDMDL
MODEL 2
REMARK VINA RESULT: -6.900483617      2.245      6.232
REMARK  10 active torsions:
REMARK  status: ('A' for Active; 'I' for Inactive)
REMARK    1  A    between atoms: C1_2  and  C2_3 
REMARK       I    between atoms: C1_2  and  N3_19 
REMARK    2  A    between atoms: C2_3  and  C3_4 
REMARK    3  A    between atoms: C3_4  and  C4_5 
REMARK    4  A    between atoms: C4_5  and  C5_6 
REMARK    5  A    between atoms: C5_6  and  C6_7 
REMARK    6  A    between atoms: C6_7  and  C7_8 
REMARK    7  A    between atoms: C7_8  and  N1_9 
REMARK    8  A    between atoms: N1_9  and  C8_11 
REMARK    9  A    between atoms: C8_11  and  N2_13 
REMARK   10  A    between atoms: N3_19  and  C14_21 
ROOT
HETATM    1  C5  UNL     1      52.319  15.874   0.028  1.00  0.00     0.002 C 
ENDROOT
BRANCH   1   2
HETATM    2  C4  UNL     1      51.626  14.655  -0.516  1.00  0.00     0.001 C 
BRANCH   2   3
HETATM    3  C3  UNL     1      50.870  13.914   0.551  1.00  0.00     0.009 C 
BRANCH   3   4
HETATM    4  C2  UNL     1      50.862  12.444   0.283  1.00  0.00     0.103 C 
BRANCH   4   5
HETATM    5  C1  UNL     1      52.187  11.840   0.500  1.00  0.00     0.217 C 
HETATM    6  O1  UNL     1      52.766  12.012   1.599  1.00  0.00    -0.274 OA
HETATM    7  N3  UNL     1      52.825  11.057  -0.522  1.00  0.00    -0.356 N 
ATOM      8  H3  UNL     1      52.337  10.928  -1.408  1.00  0.00     0.162 HD
BRANCH   7   9
HETATM    9  C14 UNL     1      54.112  10.451  -0.360  1.00  0.00     0.084 C 
HETATM   10  C15 UNL     1      54.642   9.853  -1.641  1.00  0.00     0.025 C 
HETATM   11  C16 UNL     1      54.341   8.363  -1.473  1.00  0.00     0.002 C 
HETATM   12  C17 UNL     1      54.686   8.187  -0.007  1.00  0.00     0.002 C 
HETATM   13  C18 UNL     1      53.988   9.341   0.640  1.00  0.00     0.025 C 
ENDBRANCH   7   9
ENDBRANCH   4   5
ENDBRANCH   3   4
ENDBRANCH   2   3
ENDBRANCH   1   2
BRANCH   1  14
HETATM   14  C6  UNL     1      53.144  15.510   1.231  1.00  0.00     0.020 C 
BRANCH  14  15
HETATM   15  C7  UNL     1      54.476  14.991   0.827  1.00  0.00     0.122 C 
BRANCH  15  16
HETATM   16  N1  UNL     1      54.990  14.102   1.885  1.00  0.00    -0.367 N 
ATOM     17  H1  UNL     1      54.705  14.278   2.848  1.00  0.00     0.161 HD
BRANCH  16  18
HETATM   18  C8  UNL     1      55.852  13.025   1.628  1.00  0.00     0.169 C 
HETATM   19  S1  UNL     1      56.694  13.032   0.205  1.00  0.00    -0.041 SA
BRANCH  18  20
HETATM   20  N2  UNL     1      56.053  11.977   2.509  1.00  0.00    -0.358 N 
HETATM   21  C9  UNL     1      56.942  10.867   2.145  1.00  0.00     0.125 C 
HETATM   22  C10 UNL     1      58.108  10.953   3.106  1.00  0.00     0.020 C 
HETATM   23  C11 UNL     1      57.658  10.946   4.540  1.00  0.00     0.003 C 
HETATM   24  C12 UNL     1      56.548  11.891   4.850  1.00  0.00     0.020 C 
HETATM   25  C13 UNL     1      55.448  11.876   3.802  1.00  0.00     0.125 C 
ENDBRANCH  18  20
ENDBRANCH  16  18
ENDBRANCH  15  16
ENDBRANCH  14  15
ENDBRANCH   1  14
TORSDOF 10
ENDMDL
MODEL 3
REMARK VINA RESULT: -6.868778017      2.406      6.335
REMARK  10 active torsions:
REMARK  status: ('A' for Active; 'I' for Inactive)
REMARK    1  A    between atoms: C1_2  and  C2_3 
REMARK       I    between atoms: C1_2  and  N3_19 
REMARK    2  A    between atoms: C2_3  and  C3_4 
REMARK    3  A    between atoms: C3_4  and  C4_5 
REMARK    4  A    between atoms: C4_5  and  C5_6 
REMARK    5  A    between atoms: C5_6  and  C6_7 
REMARK    6  A    between atoms: C6_7  and  C7_8 
REMARK    7  A    between atoms: C7_8  and  N1_9 
REMARK    8  A    between atoms: N1_9  and  C8_11 
REMARK    9  A    between atoms: C8_11  and  N2_13 
REMARK   10  A    between atoms: N3_19  and  C14_21 
ROOT
HETATM    1  C5  UNL     1      56.591  13.136  -0.117  1.00  0.00     0.002 C 
ENDROOT
BRANCH   1   2
HETATM    2  C4  UNL     1      56.225  12.731   1.284  1.00  0.00     0.001 C 
BRANCH   2   3
HETATM    3  C3  UNL     1      56.908  11.457   1.699  1.00  0.00     0.009 C 
BRANCH   3   4
HETATM    4  C2  UNL     1      55.933  10.489   2.285  1.00  0.00     0.103 C 
BRANCH   4   5
HETATM    5  C1  UNL     1      54.827  10.197   1.357  1.00  0.00     0.217 C 
HETATM    6  O1  UNL     1      53.646  10.380   1.736  1.00  0.00    -0.274 OA
HETATM    7  N3  UNL     1      55.077   9.708   0.029  1.00  0.00    -0.356 N 
ATOM      8  H3  UNL     1      56.045   9.567  -0.260  1.00  0.00     0.162 HD
BRANCH   7   9
HETATM    9  C14 UNL     1      54.037   9.409  -0.908  1.00  0.00     0.084 C 
HETATM   10  C15 UNL     1      54.329   8.178  -1.731  1.00  0.00     0.025 C 
HETATM   11  C16 UNL     1      54.829   8.762  -3.054  1.00  0.00     0.002 C 
HETATM   12  C17 UNL     1      53.873   9.929  -3.206  1.00  0.00     0.002 C 
HETATM   13  C18 UNL     1      53.906  10.565  -1.853  1.00  0.00     0.025 C 
ENDBRANCH   7   9
ENDBRANCH   4   5
ENDBRANCH   3   4
ENDBRANCH   2   3
ENDBRANCH   1   2
BRANCH   1  14
HETATM   14  C6  UNL     1      55.487  13.955  -0.727  1.00  0.00     0.020 C 
BRANCH  14  15
HETATM   15  C7  UNL     1      55.657  15.396  -0.413  1.00  0.00     0.122 C 
BRANCH  15  16
HETATM   16  N1  UNL     1      54.576  16.164  -1.057  1.00  0.00    -0.367 N 
ATOM     17  H1  UNL     1      54.631  16.331  -2.062  1.00  0.00     0.161 HD
BRANCH  16  18
HETATM   18  C8  UNL     1      53.475  16.674  -0.353  1.00  0.00     0.169 C 
HETATM   19  S1  UNL     1      53.202  18.304  -0.424  1.00  0.00    -0.041 SA
BRANCH  18  20
HETATM   20  N2  UNL     1      52.596  15.888   0.370  1.00  0.00    -0.358 N 
HETATM   21  C9  UNL     1      51.513  15.171  -0.314  1.00  0.00     0.125 C 
HETATM   22  C10 UNL     1      51.836  13.702  -0.149  1.00  0.00     0.020 C 
HETATM   23  C11 UNL     1      52.019  13.323   1.294  1.00  0.00     0.003 C 
HETATM   24  C12 UNL     1      52.914  14.230   2.067  1.00  0.00     0.020 C 
HETATM   25  C13 UNL     1      52.653  15.700   1.788  1.00  0.00     0.125 C 
ENDBRANCH  18  20
ENDBRANCH  16  18
ENDBRANCH  15  16
ENDBRANCH  14  15
ENDBRANCH   1  14
TORSDOF 10
ENDMDL
MODEL 4
REMARK VINA RESULT: -6.818758101      2.158      5.692
REMARK  10 active torsions:
REMARK  status: ('A' for Active; 'I' for Inactive)
REMARK    1  A    between atoms: C1_2  and  C2_3 
REMARK       I    between atoms: C1_2  and  N3_19 
REMARK    2  A    between atoms: C2_3  and  C3_4 
REMARK    3  A    between atoms: C3_4  and  C4_5 
REMARK    4  A    between atoms: C4_5  and  C5_6 
REMARK    5  A    between atoms: C5_6  and  C6_7 
REMARK    6  A    between atoms: C6_7  and  C7_8 
REMARK    7  A    between atoms: C7_8  and  N1_9 
REMARK    8  A    between atoms: N1_9  and  C8_11 
REMARK    9  A    between atoms: C8_11  and  N2_13 
REMARK   10  A    between atoms: N3_19  and  C14_21 
ROOT
HETATM    1  C5  UNL     1      54.716   9.701  -2.408  1.00  0.00     0.002 C 
ENDROOT
BRANCH   1   2
HETATM    2  C4  UNL     1      54.356   8.434  -1.682  1.00  0.00     0.001 C 
BRANCH   2   3
HETATM    3  C3  UNL     1      55.181   8.243  -0.439  1.00  0.00     0.009 C 
BRANCH   3   4
HETATM    4  C2  UNL     1      54.337   8.345   0.789  1.00  0.00     0.103 C 
BRANCH   4   5
HETATM    5  C1  UNL     1      54.551   9.619   1.497  1.00  0.00     0.217 C 
HETATM    6  O1  UNL     1      53.604  10.436   1.586  1.00  0.00    -0.274 OA
HETATM    7  N3  UNL     1      55.821   9.939   2.087  1.00  0.00    -0.356 N 
ATOM      8  H3  UNL     1      56.578   9.260   2.006  1.00  0.00     0.162 HD
BRANCH   7   9
HETATM    9  C14 UNL     1      56.078  11.163   2.785  1.00  0.00     0.084 C 
HETATM   10  C15 UNL     1      57.539  11.350   3.116  1.00  0.00     0.025 C 
HETATM   11  C16 UNL     1      57.610  10.942   4.589  1.00  0.00     0.002 C 
HETATM   12  C17 UNL     1      56.325  11.565   5.098  1.00  0.00     0.002 C 
HETATM   13  C18 UNL     1      55.320  11.138   4.077  1.00  0.00     0.025 C 
ENDBRANCH   7   9
ENDBRANCH   4   5
ENDBRANCH   3   4
ENDBRANCH   2   3
ENDBRANCH   1   2
BRANCH   1  14
HETATM   14  C6  UNL     1      53.578  10.681  -2.339  1.00  0.00     0.020 C 
BRANCH  14  15
HETATM   15  C7  UNL     1      53.870  11.770  -1.372  1.00  0.00     0.122 C 
BRANCH  15  16
HETATM   16  N1  UNL     1      52.602  12.288  -0.827  1.00  0.00    -0.367 N 
ATOM     17  H1  UNL     1      51.728  11.887  -1.168  1.00  0.00     0.161 HD
BRANCH  16  18
HETATM   18  C8  UNL     1      52.541  13.304   0.138  1.00  0.00     0.169 C 
HETATM   19  S1  UNL     1      51.221  13.346   1.133  1.00  0.00    -0.041 SA
BRANCH  18  20
HETATM   20  N2  UNL     1      53.533  14.252   0.316  1.00  0.00    -0.358 N 
HETATM   21  C9  UNL     1      54.519  14.094   1.393  1.00  0.00     0.125 C 
HETATM   22  C10 UNL     1      55.845  13.882   0.696  1.00  0.00     0.020 C 
HETATM   23  C11 UNL     1      56.155  14.987  -0.275  1.00  0.00     0.003 C 
HETATM   24  C12 UNL     1      55.037  15.339  -1.196  1.00  0.00     0.020 C 
HETATM   25  C13 UNL     1      53.693  15.422  -0.491  1.00  0.00     0.125 C 
ENDBRANCH  18  20
ENDBRANCH  16  18
ENDBRANCH  15  16
ENDBRANCH  14  15
ENDBRANCH   1  14
TORSDOF 10
ENDMDL
MODEL 5
REMARK VINA RESULT: -6.748672831      1.944      2.352
REMARK  10 active torsions:
REMARK  status: ('A' for Active; 'I' for Inactive)
REMARK    1  A    between atoms: C1_2  and  C2_3 
REMARK       I    between atoms: C1_2  and  N3_19 
REMARK    2  A    between atoms: C2_3  and  C3_4 
REMARK    3  A    between atoms: C3_4  and  C4_5 
REMARK    4  A    between atoms: C4_5  and  C5_6 
REMARK    5  A    between atoms: C5_6  and  C6_7 
REMARK    6  A    between atoms: C6_7  and  C7_8 
REMARK    7  A    between atoms: C7_8  and  N1_9 
REMARK    8  A    between atoms: N1_9  and  C8_11 
REMARK    9  A    between atoms: C8_11  and  N2_13 
REMARK   10  A    between atoms: N3_19  and  C14_21 
ROOT
HETATM    1  C5  UNL     1      56.191  12.345   2.877  1.00  0.00     0.002 C 
ENDROOT
BRANCH   1   2
HETATM    2  C4  UNL     1      56.496  12.710   1.451  1.00  0.00     0.001 C 
BRANCH   2   3
HETATM    3  C3  UNL     1      55.705  13.904   0.993  1.00  0.00     0.009 C 
BRANCH   3   4
HETATM    4  C2  UNL     1      56.285  14.489  -0.253  1.00  0.00     0.103 C 
BRANCH   4   5
HETATM    5  C1  UNL     1      55.752  15.834  -0.527  1.00  0.00     0.217 C 
HETATM    6  O1  UNL     1      56.144  16.801   0.167  1.00  0.00    -0.274 OA
HETATM    7  N3  UNL     1      54.794  16.056  -1.575  1.00  0.00    -0.356 N 
ATOM      8  H3  UNL     1      54.489  15.256  -2.130  1.00  0.00     0.162 HD
BRANCH   7   9
HETATM    9  C14 UNL     1      54.245  17.343  -1.880  1.00  0.00     0.084 C 
HETATM   10  C15 UNL     1      52.751  17.404  -1.679  1.00  0.00     0.025 C 
HETATM   11  C16 UNL     1      52.208  17.259  -3.102  1.00  0.00     0.002 C 
HETATM   12  C17 UNL     1      53.207  18.119  -3.854  1.00  0.00     0.002 C 
HETATM   13  C18 UNL     1      54.522  17.644  -3.322  1.00  0.00     0.025 C 
ENDBRANCH   7   9
ENDBRANCH   4   5
ENDBRANCH   3   4
ENDBRANCH   2   3
ENDBRANCH   1   2
BRANCH   1  14
HETATM   14  C6  UNL     1      54.711  12.431   3.132  1.00  0.00     0.020 C 
BRANCH  14  15
HETATM   15  C7  UNL     1      54.124  11.081   3.327  1.00  0.00     0.122 C 
BRANCH  15  16
HETATM   16  N1  UNL     1      53.036  10.881   2.353  1.00  0.00    -0.367 N 
ATOM     17  H1  UNL     1      52.117  10.606   2.701  1.00  0.00     0.161 HD
BRANCH  16  18
HETATM   18  C8  UNL     1      53.204  11.051   0.970  1.00  0.00     0.169 C 
HETATM   19  S1  UNL     1      52.225  12.140   0.202  1.00  0.00    -0.041 SA
BRANCH  18  20
HETATM   20  N2  UNL     1      54.156  10.378   0.226  1.00  0.00    -0.358 N 
HETATM   21  C9  UNL     1      54.847   9.213   0.792  1.00  0.00     0.125 C 
HETATM   22  C10 UNL     1      54.401   8.035  -0.046  1.00  0.00     0.020 C 
HETATM   23  C11 UNL     1      54.652   8.257  -1.511  1.00  0.00     0.003 C 
HETATM   24  C12 UNL     1      54.193   9.577  -2.030  1.00  0.00     0.020 C 
HETATM   25  C13 UNL     1      54.544  10.731  -1.106  1.00  0.00     0.125 C 
ENDBRANCH  18  20
ENDBRANCH  16  18
ENDBRANCH  15  16
ENDBRANCH  14  15
ENDBRANCH   1  14
TORSDOF 10
ENDMDL
