MODEL 1
REMARK VINA RESULT: -6.653321949      0.000      0.000
REMARK  12 active torsions:
REMARK  status: ('A' for Active; 'I' for Inactive)
REMARK    1  A    between atoms: C2_2  and  C3_3 
REMARK    2  A    between atoms: C3_3  and  N1_4 
REMARK    3  A    between atoms: C5_9  and  C6_10 
REMARK    4  A    between atoms: C6_10  and  C7_11 
REMARK    5  A    between atoms: C9_16  and  C10_17 
REMARK       I    between atoms: C10_17  and  N5_19 
REMARK    6  A    between atoms: N5_19  and  C12_21 
REMARK    7  A    between atoms: C12_21  and  C14_23 
REMARK    8  A    between atoms: C12_21  and  C20_30 
REMARK    9  A    between atoms: C14_23  and  C15_24 
REMARK   10  A    between atoms: C15_24  and  C16_25 
REMARK   11  A    between atoms: C16_25  and  N6_26 
REMARK   12  A    between atoms: C20_30  and  N7_31 
ROOT
HETATM    1  C10 UNL     1      28.246  -7.662  43.111  1.00  0.00     0.254 C 
HETATM    2  O1  UNL     1      27.026  -7.559  43.366  1.00  0.00    -0.271 OA
HETATM    3  N5  UNL     1      29.273  -7.449  44.056  1.00  0.00    -0.341 N 
HETATM    4  C11 UNL     1      30.651  -7.618  43.647  1.00  0.00     0.154 C 
ENDROOT
BRANCH   1   5
HETATM    5  C9  UNL     1      28.564  -8.039  41.687  1.00  0.00     0.311 C 
HETATM    6  C3  UNL     1      28.389  -6.869  40.718  1.00  0.00     0.115 C 
HETATM    7  C5  UNL     1      27.515  -7.787  39.982  1.00  0.00     0.221 C 
HETATM    8  N4  UNL     1      27.401  -8.705  41.119  1.00  0.00    -0.052 N 
ATOM      9  H42 UNL     1      26.531  -8.789  41.645  1.00  0.00     0.278 HD
ATOM     10  H41 UNL     1      27.386  -9.716  40.981  1.00  0.00     0.278 HD
BRANCH   6  11
HETATM   11  C2  UNL     1      29.698  -6.477  40.158  1.00  0.00    -0.002 C 
HETATM   12  C1  UNL     1      30.594  -5.744  40.774  1.00  0.00     0.009 C 
ENDBRANCH   6  11
BRANCH   6  13
HETATM   13  N1  UNL     1      27.791  -5.766  41.395  1.00  0.00    -0.350 N 
HETATM   14  C4  UNL     1      27.155  -4.775  41.010  1.00  0.00     0.198 C 
HETATM   15  N2  UNL     1      26.687  -3.839  41.985  1.00  0.00    -0.067 NA
HETATM   16  N3  UNL     1      26.846  -4.488  39.668  1.00  0.00    -0.067 NA
ATOM     17  H1  UNL     1      27.912  -5.801  42.407  1.00  0.00     0.163 HD
ENDBRANCH   6  13
BRANCH   7  18
HETATM   18  C6  UNL     1      27.943  -8.530  38.783  1.00  0.00     0.036 C 
BRANCH  18  19
HETATM   19  C7  UNL     1      27.126  -8.317  37.535  1.00  0.00    -0.002 C 
HETATM   20  C8  UNL     1      25.904  -7.510  37.965  1.00  0.00     0.005 C 
ENDBRANCH  18  19
ENDBRANCH   7  18
ENDBRANCH   1   5
BRANCH   3  21
HETATM   21  C12 UNL     1      28.869  -7.132  45.431  1.00  0.00     0.063 C 
HETATM   22  C13 UNL     1      30.175  -7.095  46.243  1.00  0.00     0.044 C 
BRANCH  21  23
HETATM   23  C14 UNL     1      28.051  -8.212  46.051  1.00  0.00     0.038 C 
BRANCH  23  24
HETATM   24  C15 UNL     1      28.762  -9.505  46.329  1.00  0.00     0.031 C 
BRANCH  24  25
HETATM   25  C16 UNL     1      27.953 -10.722  46.113  1.00  0.00     0.236 C 
BRANCH  25  26
HETATM   26  N6  UNL     1      27.952 -11.335  44.838  1.00  0.00    -0.079 N 
HETATM   27  C17 UNL     1      29.163 -11.073  44.066  1.00  0.00     0.271 C 
HETATM   28  C18 UNL     1      27.934 -12.787  45.073  1.00  0.00     0.271 C 
HETATM   29  C19 UNL     1      26.793 -11.037  44.027  1.00  0.00     0.271 C 
ENDBRANCH  25  26
ENDBRANCH  24  25
ENDBRANCH  23  24
ENDBRANCH  21  23
BRANCH  21  30
HETATM   30  C20 UNL     1      28.161  -5.811  45.441  1.00  0.00     0.086 C 
BRANCH  30  31
HETATM   31  N7  UNL     1      28.881  -4.614  45.553  1.00  0.00    -0.404 N 
HETATM   32  C21 UNL     1      29.323  -3.898  44.431  1.00  0.00     0.145 C 
ATOM     33  H7  UNL     1      29.091  -4.250  46.483  1.00  0.00     0.158 HD
ENDBRANCH  30  31
ENDBRANCH  21  30
ENDBRANCH   3  21
TORSDOF 12
ENDMDL
MODEL 2
REMARK VINA RESULT: -6.594630024      1.830      6.198
REMARK  12 active torsions:
REMARK  status: ('A' for Active; 'I' for Inactive)
REMARK    1  A    between atoms: C2_2  and  C3_3 
REMARK    2  A    between atoms: C3_3  and  N1_4 
REMARK    3  A    between atoms: C5_9  and  C6_10 
REMARK    4  A    between atoms: C6_10  and  C7_11 
REMARK    5  A    between atoms: C9_16  and  C10_17 
REMARK       I    between atoms: C10_17  and  N5_19 
REMARK    6  A    between atoms: N5_19  and  C12_21 
REMARK    7  A    between atoms: C12_21  and  C14_23 
REMARK    8  A    between atoms: C12_21  and  C20_30 
REMARK    9  A    between atoms: C14_23  and  C15_24 
REMARK   10  A    between atoms: C15_24  and  C16_25 
REMARK   11  A    between atoms: C16_25  and  N6_26 
REMARK   12  A    between atoms: C20_30  and  N7_31 
ROOT
HETATM    1  C10 UNL     1      27.393  -7.237  44.742  1.00  0.00     0.254 C 
HETATM    2  O1  UNL     1      26.603  -7.693  43.888  1.00  0.00    -0.271 OA
HETATM    3  N5  UNL     1      27.955  -5.942  44.691  1.00  0.00    -0.341 N 
HETATM    4  C11 UNL     1      28.843  -5.518  45.752  1.00  0.00     0.154 C 
ENDROOT
BRANCH   1   5
HETATM    5  C9  UNL     1      27.720  -8.183  45.869  1.00  0.00     0.311 C 
HETATM    6  C3  UNL     1      28.724  -9.260  45.457  1.00  0.00     0.115 C 
HETATM    7  C5  UNL     1      27.714 -10.199  45.953  1.00  0.00     0.221 C 
HETATM    8  N4  UNL     1      26.662  -9.178  45.954  1.00  0.00    -0.052 N 
ATOM      9  H42 UNL     1      25.904  -9.201  45.272  1.00  0.00     0.278 HD
ATOM     10  H41 UNL     1      25.962  -9.143  46.695  1.00  0.00     0.278 HD
BRANCH   6  11
HETATM   11  C2  UNL     1      29.993  -9.075  46.190  1.00  0.00    -0.002 C 
HETATM   12  C1  UNL     1      30.980  -8.299  45.808  1.00  0.00     0.009 C 
ENDBRANCH   6  11
BRANCH   6  13
HETATM   13  N1  UNL     1      28.952  -9.195  44.051  1.00  0.00    -0.350 N 
HETATM   14  C4  UNL     1      29.295 -10.034  43.205  1.00  0.00     0.198 C 
HETATM   15  N2  UNL     1      29.432  -9.618  41.843  1.00  0.00    -0.067 NA
HETATM   16  N3  UNL     1      29.562 -11.388  43.476  1.00  0.00    -0.067 NA
ATOM     17  H1  UNL     1      28.802  -8.265  43.660  1.00  0.00     0.163 HD
ENDBRANCH   6  13
BRANCH   7  18
HETATM   18  C6  UNL     1      27.785 -10.842  47.277  1.00  0.00     0.036 C 
BRANCH  18  19
HETATM   19  C7  UNL     1      27.599 -12.337  47.307  1.00  0.00    -0.002 C 
HETATM   20  C8  UNL     1      28.886 -12.932  46.742  1.00  0.00     0.005 C 
ENDBRANCH  18  19
ENDBRANCH   7  18
ENDBRANCH   1   5
BRANCH   3  21
HETATM   21  C12 UNL     1      27.542  -5.073  43.582  1.00  0.00     0.063 C 
HETATM   22  C13 UNL     1      26.010  -5.197  43.514  1.00  0.00     0.044 C 
BRANCH  21  23
HETATM   23  C14 UNL     1      28.035  -5.555  42.262  1.00  0.00     0.038 C 
BRANCH  23  24
HETATM   24  C15 UNL     1      27.047  -5.518  41.132  1.00  0.00     0.031 C 
BRANCH  24  25
HETATM   25  C16 UNL     1      26.984  -6.749  40.317  1.00  0.00     0.236 C 
BRANCH  25  26
HETATM   26  N6  UNL     1      26.381  -6.702  39.037  1.00  0.00    -0.079 N 
HETATM   27  C17 UNL     1      26.045  -5.350  38.603  1.00  0.00     0.271 C 
HETATM   28  C18 UNL     1      27.390  -7.190  38.084  1.00  0.00     0.271 C 
HETATM   29  C19 UNL     1      25.226  -7.557  38.883  1.00  0.00     0.271 C 
ENDBRANCH  25  26
ENDBRANCH  24  25
ENDBRANCH  23  24
ENDBRANCH  21  23
BRANCH  21  30
HETATM   30  C20 UNL     1      27.981  -3.670  43.870  1.00  0.00     0.086 C 
BRANCH  30  31
HETATM   31  N7  UNL     1      27.043  -2.634  43.980  1.00  0.00    -0.404 N 
HETATM   32  C21 UNL     1      27.101  -1.675  45.002  1.00  0.00     0.145 C 
ATOM     33  H7  UNL     1      26.292  -2.575  43.292  1.00  0.00     0.158 HD
ENDBRANCH  30  31
ENDBRANCH  21  30
ENDBRANCH   3  21
TORSDOF 12
ENDMDL
MODEL 3
REMARK VINA RESULT: -6.570439040      2.754      4.335
REMARK  12 active torsions:
REMARK  status: ('A' for Active; 'I' for Inactive)
REMARK    1  A    between atoms: C2_2  and  C3_3 
REMARK    2  A    between atoms: C3_3  and  N1_4 
REMARK    3  A    between atoms: C5_9  and  C6_10 
REMARK    4  A    between atoms: C6_10  and  C7_11 
REMARK    5  A    between atoms: C9_16  and  C10_17 
REMARK       I    between atoms: C10_17  and  N5_19 
REMARK    6  A    between atoms: N5_19  and  C12_21 
REMARK    7  A    between atoms: C12_21  and  C14_23 
REMARK    8  A    between atoms: C12_21  and  C20_30 
REMARK    9  A    between atoms: C14_23  and  C15_24 
REMARK   10  A    between atoms: C15_24  and  C16_25 
REMARK   11  A    between atoms: C16_25  and  N6_26 
REMARK   12  A    between atoms: C20_30  and  N7_31 
ROOT
HETATM    1  C10 UNL     1      29.191  -7.587  39.893  1.00  0.00     0.254 C 
HETATM    2  O1  UNL     1      29.052  -8.625  39.211  1.00  0.00    -0.271 OA
HETATM    3  N5  UNL     1      29.391  -7.577  41.290  1.00  0.00    -0.341 N 
HETATM    4  C11 UNL     1      29.560  -6.310  41.968  1.00  0.00     0.154 C 
ENDROOT
BRANCH   1   5
HETATM    5  C9  UNL     1      29.129  -6.302  39.106  1.00  0.00     0.311 C 
HETATM    6  C3  UNL     1      27.708  -5.957  38.658  1.00  0.00     0.115 C 
HETATM    7  C5  UNL     1      28.296  -5.880  37.318  1.00  0.00     0.221 C 
HETATM    8  N4  UNL     1      29.512  -6.588  37.731  1.00  0.00    -0.052 N 
ATOM      9  H42 UNL     1      29.698  -7.542  37.423  1.00  0.00     0.278 HD
ATOM     10  H41 UNL     1      30.427  -6.319  37.371  1.00  0.00     0.278 HD
BRANCH   6  11
HETATM   11  C2  UNL     1      27.247  -4.732  39.341  1.00  0.00    -0.002 C 
HETATM   12  C1  UNL     1      26.832  -4.670  40.584  1.00  0.00     0.009 C 
ENDBRANCH   6  11
BRANCH   6  13
HETATM   13  N1  UNL     1      26.833  -7.044  38.949  1.00  0.00    -0.350 N 
HETATM   14  C4  UNL     1      25.756  -7.422  38.465  1.00  0.00     0.198 C 
HETATM   15  N2  UNL     1      25.130  -8.586  39.012  1.00  0.00    -0.067 NA
HETATM   16  N3  UNL     1      25.086  -6.792  37.402  1.00  0.00    -0.067 NA
ATOM     17  H1  UNL     1      27.161  -7.634  39.714  1.00  0.00     0.163 HD
ENDBRANCH   6  13
BRANCH   7  18
HETATM   18  C6  UNL     1      28.658  -4.611  36.662  1.00  0.00     0.036 C 
BRANCH  18  19
HETATM   19  C7  UNL     1      27.985  -4.320  35.345  1.00  0.00    -0.002 C 
HETATM   20  C8  UNL     1      28.311  -2.866  35.018  1.00  0.00     0.005 C 
ENDBRANCH  18  19
ENDBRANCH   7  18
ENDBRANCH   1   5
BRANCH   3  21
HETATM   21  C12 UNL     1      29.485  -8.877  41.966  1.00  0.00     0.063 C 
HETATM   22  C13 UNL     1      28.079  -9.493  41.864  1.00  0.00     0.044 C 
BRANCH  21  23
HETATM   23  C14 UNL     1      29.752  -8.747  43.425  1.00  0.00     0.038 C 
BRANCH  23  24
HETATM   24  C15 UNL     1      29.367  -9.921  44.278  1.00  0.00     0.031 C 
BRANCH  24  25
HETATM   25  C16 UNL     1      28.692  -9.578  45.546  1.00  0.00     0.236 C 
BRANCH  25  26
HETATM   26  N6  UNL     1      27.718 -10.459  46.073  1.00  0.00    -0.079 N 
HETATM   27  C17 UNL     1      26.374  -9.888  46.104  1.00  0.00     0.271 C 
HETATM   28  C18 UNL     1      27.645 -11.601  45.149  1.00  0.00     0.271 C 
HETATM   29  C19 UNL     1      28.038 -11.004  47.373  1.00  0.00     0.271 C 
ENDBRANCH  25  26
ENDBRANCH  24  25
ENDBRANCH  23  24
ENDBRANCH  21  23
BRANCH  21  30
HETATM   30  C20 UNL     1      30.518  -9.715  41.275  1.00  0.00     0.086 C 
BRANCH  30  31
HETATM   31  N7  UNL     1      30.223 -11.022  40.864  1.00  0.00    -0.404 N 
HETATM   32  C21 UNL     1      31.103 -12.092  41.081  1.00  0.00     0.145 C 
ATOM     33  H7  UNL     1      29.337 -11.201  40.391  1.00  0.00     0.158 HD
ENDBRANCH  30  31
ENDBRANCH  21  30
ENDBRANCH   3  21
TORSDOF 12
ENDMDL
MODEL 4
REMARK VINA RESULT: -6.567787008      2.833      4.699
REMARK  12 active torsions:
REMARK  status: ('A' for Active; 'I' for Inactive)
REMARK    1  A    between atoms: C2_2  and  C3_3 
REMARK    2  A    between atoms: C3_3  and  N1_4 
REMARK    3  A    between atoms: C5_9  and  C6_10 
REMARK    4  A    between atoms: C6_10  and  C7_11 
REMARK    5  A    between atoms: C9_16  and  C10_17 
REMARK       I    between atoms: C10_17  and  N5_19 
REMARK    6  A    between atoms: N5_19  and  C12_21 
REMARK    7  A    between atoms: C12_21  and  C14_23 
REMARK    8  A    between atoms: C12_21  and  C20_30 
REMARK    9  A    between atoms: C14_23  and  C15_24 
REMARK   10  A    between atoms: C15_24  and  C16_25 
REMARK   11  A    between atoms: C16_25  and  N6_26 
REMARK   12  A    between atoms: C20_30  and  N7_31 
ROOT
HETATM    1  C10 UNL     1      29.182  -7.553  39.669  1.00  0.00     0.254 C 
HETATM    2  O1  UNL     1      28.996  -8.556  38.945  1.00  0.00    -0.271 OA
HETATM    3  N5  UNL     1      29.492  -7.616  41.045  1.00  0.00    -0.341 N 
HETATM    4  C11 UNL     1      29.706  -6.385  41.775  1.00  0.00     0.154 C 
ENDROOT
BRANCH   1   5
HETATM    5  C9  UNL     1      29.050  -6.229  38.960  1.00  0.00     0.311 C 
HETATM    6  C3  UNL     1      27.597  -5.884  38.630  1.00  0.00     0.115 C 
HETATM    7  C5  UNL     1      28.089  -5.725  37.259  1.00  0.00     0.221 C 
HETATM    8  N4  UNL     1      29.339  -6.434  37.549  1.00  0.00    -0.052 N 
ATOM      9  H42 UNL     1      29.515  -7.367  37.176  1.00  0.00     0.278 HD
ATOM     10  H41 UNL     1      30.224  -6.131  37.142  1.00  0.00     0.278 HD
BRANCH   6  11
HETATM   11  C2  UNL     1      27.169  -4.704  39.410  1.00  0.00    -0.002 C 
HETATM   12  C1  UNL     1      26.797  -4.725  40.668  1.00  0.00     0.009 C 
ENDBRANCH   6  11
BRANCH   6  13
HETATM   13  N1  UNL     1      26.757  -6.999  38.921  1.00  0.00    -0.350 N 
HETATM   14  C4  UNL     1      25.659  -7.374  38.485  1.00  0.00     0.198 C 
HETATM   15  N2  UNL     1      25.085  -8.573  39.012  1.00  0.00    -0.067 NA
HETATM   16  N3  UNL     1      24.918  -6.708  37.493  1.00  0.00    -0.067 NA
ATOM     17  H1  UNL     1      27.140  -7.617  39.637  1.00  0.00     0.163 HD
ENDBRANCH   6  13
BRANCH   7  18
HETATM   18  C6  UNL     1      28.388  -4.416  36.651  1.00  0.00     0.036 C 
BRANCH  18  19
HETATM   19  C7  UNL     1      28.046  -4.262  35.192  1.00  0.00    -0.002 C 
HETATM   20  C8  UNL     1      28.328  -2.802  34.846  1.00  0.00     0.005 C 
ENDBRANCH  18  19
ENDBRANCH   7  18
ENDBRANCH   1   5
BRANCH   3  21
HETATM   21  C12 UNL     1      29.648  -8.949  41.640  1.00  0.00     0.063 C 
HETATM   22  C13 UNL     1      28.218  -9.486  41.820  1.00  0.00     0.044 C 
BRANCH  21  23
HETATM   23  C14 UNL     1      30.225  -8.900  43.012  1.00  0.00     0.038 C 
BRANCH  23  24
HETATM   24  C15 UNL     1      29.346  -9.407  44.119  1.00  0.00     0.031 C 
BRANCH  24  25
HETATM   25  C16 UNL     1      29.640  -8.849  45.456  1.00  0.00     0.236 C 
BRANCH  25  26
HETATM   26  N6  UNL     1      28.641  -8.110  46.132  1.00  0.00    -0.079 N 
HETATM   27  C17 UNL     1      27.534  -8.933  46.610  1.00  0.00     0.271 C 
HETATM   28  C18 UNL     1      29.276  -7.556  47.337  1.00  0.00     0.271 C 
HETATM   29  C19 UNL     1      28.117  -6.985  45.391  1.00  0.00     0.271 C 
ENDBRANCH  25  26
ENDBRANCH  24  25
ENDBRANCH  23  24
ENDBRANCH  21  23
BRANCH  21  30
HETATM   30  C20 UNL     1      30.459  -9.806  40.716  1.00  0.00     0.086 C 
BRANCH  30  31
HETATM   31  N7  UNL     1      30.012 -11.081  40.345  1.00  0.00    -0.404 N 
HETATM   32  C21 UNL     1      30.504 -11.747  39.212  1.00  0.00     0.145 C 
ATOM     33  H7  UNL     1      29.305 -11.542  40.917  1.00  0.00     0.158 HD
ENDBRANCH  30  31
ENDBRANCH  21  30
ENDBRANCH   3  21
TORSDOF 12
ENDMDL
MODEL 5
REMARK VINA RESULT: -6.550629746      1.740      6.437
REMARK  12 active torsions:
REMARK  status: ('A' for Active; 'I' for Inactive)
REMARK    1  A    between atoms: C2_2  and  C3_3 
REMARK    2  A    between atoms: C3_3  and  N1_4 
REMARK    3  A    between atoms: C5_9  and  C6_10 
REMARK    4  A    between atoms: C6_10  and  C7_11 
REMARK    5  A    between atoms: C9_16  and  C10_17 
REMARK       I    between atoms: C10_17  and  N5_19 
REMARK    6  A    between atoms: N5_19  and  C12_21 
REMARK    7  A    between atoms: C12_21  and  C14_23 
REMARK    8  A    between atoms: C12_21  and  C20_30 
REMARK    9  A    between atoms: C14_23  and  C15_24 
REMARK   10  A    between atoms: C15_24  and  C16_25 
REMARK   11  A    between atoms: C16_25  and  N6_26 
REMARK   12  A    between atoms: C20_30  and  N7_31 
ROOT
HETATM    1  C10 UNL     1      27.521  -7.177  44.380  1.00  0.00     0.254 C 
HETATM    2  O1  UNL     1      26.896  -7.633  43.398  1.00  0.00    -0.271 OA
HETATM    3  N5  UNL     1      28.122  -5.899  44.413  1.00  0.00    -0.341 N 
HETATM    4  C11 UNL     1      28.802  -5.473  45.617  1.00  0.00     0.154 C 
ENDROOT
BRANCH   1   5
HETATM    5  C9  UNL     1      27.598  -8.104  45.566  1.00  0.00     0.311 C 
HETATM    6  C3  UNL     1      28.562  -9.269  45.338  1.00  0.00     0.115 C 
HETATM    7  C5  UNL     1      27.417 -10.109  45.696  1.00  0.00     0.221 C 
HETATM    8  N4  UNL     1      26.462  -9.012  45.512  1.00  0.00    -0.052 N 
ATOM      9  H42 UNL     1      25.815  -9.002  44.723  1.00  0.00     0.278 HD
ATOM     10  H41 UNL     1      25.663  -8.897  46.136  1.00  0.00     0.278 HD
BRANCH   6  11
HETATM   11  C2  UNL     1      29.717  -9.154  46.252  1.00  0.00    -0.002 C 
HETATM   12  C1  UNL     1      30.803  -8.457  46.013  1.00  0.00     0.009 C 
ENDBRANCH   6  11
BRANCH   6  13
HETATM   13  N1  UNL     1      29.003  -9.272  43.982  1.00  0.00    -0.350 N 
HETATM   14  C4  UNL     1      29.414 -10.162  43.223  1.00  0.00     0.198 C 
HETATM   15  N2  UNL     1      29.782  -9.808  41.887  1.00  0.00    -0.067 NA
HETATM   16  N3  UNL     1      29.547 -11.518  43.571  1.00  0.00    -0.067 NA
ATOM     17  H1  UNL     1      28.975  -8.350  43.546  1.00  0.00     0.163 HD
ENDBRANCH   6  13
BRANCH   7  18
HETATM   18  C6  UNL     1      27.235 -10.708  47.031  1.00  0.00     0.036 C 
BRANCH  18  19
HETATM   19  C7  UNL     1      27.185 -12.213  47.089  1.00  0.00    -0.002 C 
HETATM   20  C8  UNL     1      28.614 -12.691  46.849  1.00  0.00     0.005 C 
ENDBRANCH  18  19
ENDBRANCH   7  18
ENDBRANCH   1   5
BRANCH   3  21
HETATM   21  C12 UNL     1      27.955  -5.046  43.230  1.00  0.00     0.063 C 
HETATM   22  C13 UNL     1      27.823  -3.614  43.775  1.00  0.00     0.044 C 
BRANCH  21  23
HETATM   23  C14 UNL     1      26.680  -5.311  42.507  1.00  0.00     0.038 C 
BRANCH  23  24
HETATM   24  C15 UNL     1      26.636  -4.895  41.065  1.00  0.00     0.031 C 
BRANCH  24  25
HETATM   25  C16 UNL     1      26.260  -5.964  40.117  1.00  0.00     0.236 C 
BRANCH  25  26
HETATM   26  N6  UNL     1      26.458  -5.762  38.731  1.00  0.00    -0.079 N 
HETATM   27  C17 UNL     1      27.044  -6.915  38.054  1.00  0.00     0.271 C 
HETATM   28  C18 UNL     1      25.122  -5.587  38.140  1.00  0.00     0.271 C 
HETATM   29  C19 UNL     1      27.212  -4.575  38.397  1.00  0.00     0.271 C 
ENDBRANCH  25  26
ENDBRANCH  24  25
ENDBRANCH  23  24
ENDBRANCH  21  23
BRANCH  21  30
HETATM   30  C20 UNL     1      29.151  -5.202  42.341  1.00  0.00     0.086 C 
BRANCH  30  31
HETATM   31  N7  UNL     1      29.502  -6.458  41.826  1.00  0.00    -0.404 N 
HETATM   32  C21 UNL     1      29.963  -6.625  40.511  1.00  0.00     0.145 C 
ATOM     33  H7  UNL     1      29.419  -7.278  42.426  1.00  0.00     0.158 HD
ENDBRANCH  30  31
ENDBRANCH  21  30
ENDBRANCH   3  21
TORSDOF 12
ENDMDL
