MODEL 1
REMARK VINA RESULT: -10.994589828      0.000      0.000
REMARK  16 active torsions:
REMARK  status: ('A' for Active; 'I' for Inactive)
REMARK    1  A    between atoms: C2_2  and  C3_3 
REMARK    2  A    between atoms: C2_2  and  C18_30 
REMARK    3  A    between atoms: C3_3  and  C4_4 
REMARK    4  A    between atoms: C4_4  and  C5_5 
REMARK    5  A    between atoms: C5_5  and  O1_6 
REMARK    6  A    between atoms: C5_5  and  C6_8 
REMARK       I    between atoms: C6_8  and  N1_10 
REMARK    7  A    between atoms: N1_10  and  C7_12 
REMARK    8  A    between atoms: C7_12  and  C8_13 
REMARK    9  A    between atoms: C8_13  and  C9_14 
REMARK   10  A    between atoms: C9_14  and  C10_15 
REMARK   11  A    between atoms: C10_15  and  C11_16 
REMARK   12  A    between atoms: C16_24  and  C17_25 
REMARK   13  A    between atoms: C17_25  and  O3_26 
REMARK   14  A    between atoms: C23_35  and  O4_36 
REMARK   15  A    between atoms: C28_42  and  C29_43 
REMARK   16  A    between atoms: C29_43  and  C30_44 
ROOT
HETATM    1  C1  UNL     1      29.038  -1.579  24.627  1.00  0.00     0.010 C 
HETATM    2  C2  UNL     1      28.149  -2.221  23.582  1.00  0.00    -0.013 C 
ENDROOT
BRANCH   2   3
HETATM    3  C3  UNL     1      27.453  -0.998  22.914  1.00  0.00     0.011 C 
BRANCH   3   4
HETATM    4  C4  UNL     1      26.011  -0.923  23.179  1.00  0.00     0.070 C 
BRANCH   4   5
HETATM    5  C5  UNL     1      25.451   0.418  22.945  1.00  0.00     0.111 C 
BRANCH   5   6
HETATM    6  O1  UNL     1      24.215   0.463  22.503  1.00  0.00    -0.359 OA
ATOM      7  H1  UNL     1      24.106   0.637  21.575  1.00  0.00     0.217 HD
ENDBRANCH   5   6
BRANCH   5   8
HETATM    8  C6  UNL     1      26.145   1.659  23.162  1.00  0.00     0.270 C 
HETATM    9  O2  UNL     1      26.912   2.171  22.341  1.00  0.00    -0.266 OA
HETATM   10  N1  UNL     1      25.946   2.354  24.395  1.00  0.00    -0.355 N 
ATOM     11  H1  UNL     1      25.316   1.937  25.081  1.00  0.00     0.162 HD
BRANCH  10  12
HETATM   12  C7  UNL     1      26.574   3.597  24.727  1.00  0.00     0.123 C 
BRANCH  12  13
HETATM   13  C8  UNL     1      25.672   4.766  24.558  1.00  0.00     0.020 C 
BRANCH  13  14
HETATM   14  C9  UNL     1      26.338   5.911  23.821  1.00  0.00     0.005 C 
BRANCH  14  15
HETATM   15  C10 UNL     1      27.695   6.261  24.345  1.00  0.00     0.054 C 
BRANCH  15  16
HETATM   16  C11 UNL     1      27.790   7.730  24.755  1.00  0.00     0.280 C 
HETATM   17  N2  UNL     1      29.153   8.179  24.625  1.00  0.00    -0.050 N 
HETATM   18  C12 UNL     1      29.589   8.210  23.264  1.00  0.00     0.190 C 
ATOM     19  H22 UNL     1      29.285   9.085  25.074  1.00  0.00     0.280 HD
ATOM     20  H21 UNL     1      29.781   7.617  25.199  1.00  0.00     0.280 HD
HETATM   21  C13 UNL     1      30.965   8.880  23.231  1.00  0.00     0.040 C 
HETATM   22  C14 UNL     1      28.670   8.979  22.388  1.00  0.00     0.036 C 
HETATM   23  C15 UNL     1      28.591   8.234  21.050  1.00  0.00     0.014 C 
HETATM   24  C16 UNL     1      27.315   9.268  22.930  1.00  0.00     0.107 C 
HETATM   25  N3  UNL     1      26.848   8.448  23.987  1.00  0.00    -0.389 N 
ATOM     26  H3  UNL     1      25.850   8.378  24.189  1.00  0.00     0.155 HD
BRANCH  24  27
HETATM   27  C17 UNL     1      27.133  10.764  23.234  1.00  0.00     0.189 C 
BRANCH  27  28
HETATM   28  O3  UNL     1      26.263  10.986  24.268  1.00  0.00    -0.399 OA
ATOM     29  H3  UNL     1      26.557  10.592  25.080  1.00  0.00     0.209 HD
ENDBRANCH  27  28
ENDBRANCH  24  27
ENDBRANCH  15  16
ENDBRANCH  14  15
ENDBRANCH  13  14
ENDBRANCH  12  13
ENDBRANCH  10  12
ENDBRANCH   5   8
ENDBRANCH   4   5
ENDBRANCH   3   4
ENDBRANCH   2   3
BRANCH   2  30
HETATM   30  C18 UNL     1      27.137  -3.162  24.108  1.00  0.00    -0.002 C 
HETATM   31  C19 UNL     1      27.213  -3.359  25.597  1.00  0.00     0.006 C 
HETATM   32  C20 UNL     1      26.280  -4.560  25.766  1.00  0.00     0.011 C 
HETATM   33  C21 UNL     1      26.718  -5.425  24.606  1.00  0.00    -0.023 C 
HETATM   34  C22 UNL     1      27.991  -6.143  25.080  1.00  0.00     0.042 C 
HETATM   35  C26 UNL     1      25.748  -6.531  24.317  1.00  0.00     0.024 C 
HETATM   36  C36 UNL     1      27.019  -4.504  23.477  1.00  0.00    -0.031 C 
HETATM   37  C23 UNL     1      27.805  -7.050  26.221  1.00  0.00     0.119 C 
HETATM   38  C24 UNL     1      26.477  -7.653  26.424  1.00  0.00     0.032 C 
HETATM   39  C25 UNL     1      25.336  -7.034  25.708  1.00  0.00     0.012 C 
HETATM   40  C27 UNL     1      24.601  -6.151  23.482  1.00  0.00    -0.079 C 
HETATM   41  C28 UNL     1      23.644  -7.029  23.269  1.00  0.00    -0.022 C 
HETATM   42  C34 UNL     1      24.558  -4.812  22.902  1.00  0.00     0.035 C 
HETATM   43  C35 UNL     1      25.939  -4.446  22.425  1.00  0.00     0.014 C 
HETATM   44  C37 UNL     1      28.238  -4.982  22.716  1.00  0.00     0.016 C 
BRANCH  37  45
HETATM   45  O4  UNL     1      28.301  -6.410  27.387  1.00  0.00    -0.396 OA
ATOM     46  H4  UNL     1      28.732  -7.063  27.927  1.00  0.00     0.210 HD
ENDBRANCH  37  45
BRANCH  41  47
HETATM   47  C29 UNL     1      22.419  -6.853  22.474  1.00  0.00     0.060 C 
BRANCH  47  48
HETATM   48  C30 UNL     1      22.654  -7.032  20.996  1.00  0.00     0.189 C 
HETATM   49  C31 UNL     1      21.624  -7.885  20.331  1.00  0.00     0.035 C 
HETATM   50  C32 UNL     1      21.858  -7.558  18.853  1.00  0.00     0.029 C 
HETATM   51  C33 UNL     1      22.728  -6.307  18.871  1.00  0.00     0.233 C 
HETATM   52  N4  UNL     1      22.640  -5.820  20.238  1.00  0.00    -0.071 N 
ATOM     53  H42 UNL     1      21.847  -5.206  20.425  1.00  0.00     0.277 HD
ATOM     54  H41 UNL     1      23.355  -5.141  20.500  1.00  0.00     0.277 HD
ENDBRANCH  47  48
ENDBRANCH  41  47
ENDBRANCH   2  30
TORSDOF 16
ENDMDL
MODEL 2
REMARK VINA RESULT: -10.983587069      1.318      1.662
REMARK  16 active torsions:
REMARK  status: ('A' for Active; 'I' for Inactive)
REMARK    1  A    between atoms: C2_2  and  C3_3 
REMARK    2  A    between atoms: C2_2  and  C18_30 
REMARK    3  A    between atoms: C3_3  and  C4_4 
REMARK    4  A    between atoms: C4_4  and  C5_5 
REMARK    5  A    between atoms: C5_5  and  O1_6 
REMARK    6  A    between atoms: C5_5  and  C6_8 
REMARK       I    between atoms: C6_8  and  N1_10 
REMARK    7  A    between atoms: N1_10  and  C7_12 
REMARK    8  A    between atoms: C7_12  and  C8_13 
REMARK    9  A    between atoms: C8_13  and  C9_14 
REMARK   10  A    between atoms: C9_14  and  C10_15 
REMARK   11  A    between atoms: C10_15  and  C11_16 
REMARK   12  A    between atoms: C16_24  and  C17_25 
REMARK   13  A    between atoms: C17_25  and  O3_26 
REMARK   14  A    between atoms: C23_35  and  O4_36 
REMARK   15  A    between atoms: C28_42  and  C29_43 
REMARK   16  A    between atoms: C29_43  and  C30_44 
ROOT
HETATM    1  C1  UNL     1      29.066  -1.617  24.510  1.00  0.00     0.010 C 
HETATM    2  C2  UNL     1      28.189  -2.312  23.488  1.00  0.00    -0.013 C 
ENDROOT
BRANCH   2   3
HETATM    3  C3  UNL     1      27.499  -1.125  22.753  1.00  0.00     0.011 C 
BRANCH   3   4
HETATM    4  C4  UNL     1      26.070  -0.992  23.060  1.00  0.00     0.070 C 
BRANCH   4   5
HETATM    5  C5  UNL     1      25.576   0.388  22.919  1.00  0.00     0.111 C 
BRANCH   5   6
HETATM    6  O1  UNL     1      24.306   0.523  22.611  1.00  0.00    -0.359 OA
ATOM      7  H1  UNL     1      24.016   0.085  21.818  1.00  0.00     0.217 HD
ENDBRANCH   5   6
BRANCH   5   8
HETATM    8  C6  UNL     1      26.366   1.577  23.093  1.00  0.00     0.270 C 
HETATM    9  O2  UNL     1      27.087   2.058  22.215  1.00  0.00    -0.266 OA
HETATM   10  N1  UNL     1      26.326   2.253  24.351  1.00  0.00    -0.355 N 
ATOM     11  H1  UNL     1      25.735   1.862  25.085  1.00  0.00     0.162 HD
BRANCH  10  12
HETATM   12  C7  UNL     1      27.062   3.445  24.646  1.00  0.00     0.123 C 
BRANCH  12  13
HETATM   13  C8  UNL     1      26.187   4.601  24.974  1.00  0.00     0.020 C 
BRANCH  13  14
HETATM   14  C9  UNL     1      26.977   5.837  25.360  1.00  0.00     0.005 C 
BRANCH  14  15
HETATM   15  C10 UNL     1      28.316   5.929  24.702  1.00  0.00     0.054 C 
BRANCH  15  16
HETATM   16  C11 UNL     1      28.346   6.996  23.609  1.00  0.00     0.280 C 
HETATM   17  N2  UNL     1      29.386   7.950  23.895  1.00  0.00    -0.050 N 
HETATM   18  C12 UNL     1      30.692   7.378  23.801  1.00  0.00     0.190 C 
ATOM     19  H22 UNL     1      29.303   8.775  23.300  1.00  0.00     0.280 HD
ATOM     20  H21 UNL     1      29.241   8.389  24.804  1.00  0.00     0.280 HD
HETATM   21  C13 UNL     1      31.710   8.515  23.930  1.00  0.00     0.040 C 
HETATM   22  C14 UNL     1      30.920   6.687  22.507  1.00  0.00     0.036 C 
HETATM   23  C15 UNL     1      31.739   5.425  22.807  1.00  0.00     0.014 C 
HETATM   24  C16 UNL     1      29.714   6.373  21.695  1.00  0.00     0.107 C 
HETATM   25  N3  UNL     1      28.468   6.332  22.368  1.00  0.00    -0.389 N 
ATOM     26  H3  UNL     1      27.675   5.833  21.965  1.00  0.00     0.155 HD
BRANCH  24  27
HETATM   27  C17 UNL     1      29.654   7.225  20.416  1.00  0.00     0.189 C 
BRANCH  27  28
HETATM   28  O3  UNL     1      28.526   7.999  20.356  1.00  0.00    -0.399 OA
ATOM     29  H3  UNL     1      28.484   8.519  19.563  1.00  0.00     0.209 HD
ENDBRANCH  27  28
ENDBRANCH  24  27
ENDBRANCH  15  16
ENDBRANCH  14  15
ENDBRANCH  13  14
ENDBRANCH  12  13
ENDBRANCH  10  12
ENDBRANCH   5   8
ENDBRANCH   4   5
ENDBRANCH   3   4
ENDBRANCH   2   3
BRANCH   2  30
HETATM   30  C18 UNL     1      27.172  -3.228  24.049  1.00  0.00    -0.002 C 
HETATM   31  C19 UNL     1      27.280  -3.411  25.538  1.00  0.00     0.006 C 
HETATM   32  C20 UNL     1      26.330  -4.591  25.743  1.00  0.00     0.011 C 
HETATM   33  C21 UNL     1      26.722  -5.476  24.581  1.00  0.00    -0.023 C 
HETATM   34  C22 UNL     1      27.992  -6.215  25.032  1.00  0.00     0.042 C 
HETATM   35  C26 UNL     1      25.723  -6.566  24.328  1.00  0.00     0.024 C 
HETATM   36  C36 UNL     1      27.012  -4.573  23.436  1.00  0.00    -0.031 C 
HETATM   37  C23 UNL     1      27.816  -7.106  26.187  1.00  0.00     0.119 C 
HETATM   38  C24 UNL     1      26.482  -7.681  26.429  1.00  0.00     0.032 C 
HETATM   39  C25 UNL     1      25.337  -7.047  25.734  1.00  0.00     0.012 C 
HETATM   40  C27 UNL     1      24.564  -6.172  23.518  1.00  0.00    -0.079 C 
HETATM   41  C28 UNL     1      23.585  -7.033  23.337  1.00  0.00    -0.022 C 
HETATM   42  C34 UNL     1      24.532  -4.839  22.925  1.00  0.00     0.035 C 
HETATM   43  C35 UNL     1      25.908  -4.505  22.410  1.00  0.00     0.014 C 
HETATM   44  C37 UNL     1      28.203  -5.082  22.650  1.00  0.00     0.016 C 
BRANCH  37  45
HETATM   45  O4  UNL     1      28.354  -6.464  27.333  1.00  0.00    -0.396 OA
ATOM     46  H4  UNL     1      28.653  -7.132  27.939  1.00  0.00     0.210 HD
ENDBRANCH  37  45
BRANCH  41  47
HETATM   47  C29 UNL     1      22.344  -6.842  22.571  1.00  0.00     0.060 C 
BRANCH  47  48
HETATM   48  C30 UNL     1      22.520  -7.122  21.100  1.00  0.00     0.189 C 
HETATM   49  C31 UNL     1      21.571  -8.149  20.575  1.00  0.00     0.035 C 
HETATM   50  C32 UNL     1      21.682  -7.929  19.063  1.00  0.00     0.029 C 
HETATM   51  C33 UNL     1      22.387  -6.585  18.923  1.00  0.00     0.233 C 
HETATM   52  N4  UNL     1      22.312  -5.992  20.248  1.00  0.00    -0.071 N 
ATOM     53  H42 UNL     1      21.460  -5.465  20.435  1.00  0.00     0.277 HD
ATOM     54  H41 UNL     1      22.949  -5.211  20.407  1.00  0.00     0.277 HD
ENDBRANCH  47  48
ENDBRANCH  41  47
ENDBRANCH   2  30
TORSDOF 16
ENDMDL
MODEL 3
REMARK VINA RESULT: -10.972426163      1.181      1.318
REMARK  16 active torsions:
REMARK  status: ('A' for Active; 'I' for Inactive)
REMARK    1  A    between atoms: C2_2  and  C3_3 
REMARK    2  A    between atoms: C2_2  and  C18_30 
REMARK    3  A    between atoms: C3_3  and  C4_4 
REMARK    4  A    between atoms: C4_4  and  C5_5 
REMARK    5  A    between atoms: C5_5  and  O1_6 
REMARK    6  A    between atoms: C5_5  and  C6_8 
REMARK       I    between atoms: C6_8  and  N1_10 
REMARK    7  A    between atoms: N1_10  and  C7_12 
REMARK    8  A    between atoms: C7_12  and  C8_13 
REMARK    9  A    between atoms: C8_13  and  C9_14 
REMARK   10  A    between atoms: C9_14  and  C10_15 
REMARK   11  A    between atoms: C10_15  and  C11_16 
REMARK   12  A    between atoms: C16_24  and  C17_25 
REMARK   13  A    between atoms: C17_25  and  O3_26 
REMARK   14  A    between atoms: C23_35  and  O4_36 
REMARK   15  A    between atoms: C28_42  and  C29_43 
REMARK   16  A    between atoms: C29_43  and  C30_44 
ROOT
HETATM    1  C1  UNL     1      29.062  -1.621  24.536  1.00  0.00     0.010 C 
HETATM    2  C2  UNL     1      28.128  -2.244  23.518  1.00  0.00    -0.013 C 
ENDROOT
BRANCH   2   3
HETATM    3  C3  UNL     1      27.421  -1.007  22.889  1.00  0.00     0.011 C 
BRANCH   3   4
HETATM    4  C4  UNL     1      25.969  -0.985  23.105  1.00  0.00     0.070 C 
BRANCH   4   5
HETATM    5  C5  UNL     1      25.377   0.349  22.915  1.00  0.00     0.111 C 
BRANCH   5   6
HETATM    6  O1  UNL     1      24.137   0.381  22.484  1.00  0.00    -0.359 OA
ATOM      7  H1  UNL     1      23.826   1.216  22.155  1.00  0.00     0.217 HD
ENDBRANCH   5   6
BRANCH   5   8
HETATM    8  C6  UNL     1      26.045   1.599  23.164  1.00  0.00     0.270 C 
HETATM    9  O2  UNL     1      26.760   2.174  22.338  1.00  0.00    -0.266 OA
HETATM   10  N1  UNL     1      25.882   2.225  24.438  1.00  0.00    -0.355 N 
ATOM     11  H1  UNL     1      25.296   1.756  25.130  1.00  0.00     0.162 HD
BRANCH  10  12
HETATM   12  C7  UNL     1      26.490   3.468  24.806  1.00  0.00     0.123 C 
BRANCH  12  13
HETATM   13  C8  UNL     1      25.600   4.638  24.583  1.00  0.00     0.020 C 
BRANCH  13  14
HETATM   14  C9  UNL     1      26.283   5.750  23.812  1.00  0.00     0.005 C 
BRANCH  14  15
HETATM   15  C10 UNL     1      27.729   5.490  23.531  1.00  0.00     0.054 C 
BRANCH  15  16
HETATM   16  C11 UNL     1      28.624   6.619  24.042  1.00  0.00     0.280 C 
HETATM   17  N2  UNL     1      30.004   6.215  23.958  1.00  0.00    -0.050 N 
HETATM   18  C12 UNL     1      30.446   6.058  22.609  1.00  0.00     0.190 C 
ATOM     19  H22 UNL     1      30.607   6.859  24.470  1.00  0.00     0.280 HD
ATOM     20  H21 UNL     1      30.172   5.368  24.501  1.00  0.00     0.280 HD
HETATM   21  C13 UNL     1      31.959   5.823  22.637  1.00  0.00     0.040 C 
HETATM   22  C14 UNL     1      30.173   7.257  21.776  1.00  0.00     0.036 C 
HETATM   23  C15 UNL     1      29.749   6.758  20.389  1.00  0.00     0.014 C 
HETATM   24  C16 UNL     1      29.199   8.241  22.321  1.00  0.00     0.107 C 
HETATM   25  N3  UNL     1      28.297   7.784  23.314  1.00  0.00    -0.389 N 
ATOM     26  H3  UNL     1      27.429   8.286  23.499  1.00  0.00     0.155 HD
BRANCH  24  27
HETATM   27  C17 UNL     1      29.887   9.556  22.725  1.00  0.00     0.189 C 
BRANCH  27  28
HETATM   28  O3  UNL     1      30.953   9.353  23.561  1.00  0.00    -0.399 OA
ATOM     29  H3  UNL     1      31.777   9.614  23.168  1.00  0.00     0.209 HD
ENDBRANCH  27  28
ENDBRANCH  24  27
ENDBRANCH  15  16
ENDBRANCH  14  15
ENDBRANCH  13  14
ENDBRANCH  12  13
ENDBRANCH  10  12
ENDBRANCH   5   8
ENDBRANCH   4   5
ENDBRANCH   3   4
ENDBRANCH   2   3
BRANCH   2  30
HETATM   30  C18 UNL     1      27.127  -3.181  24.070  1.00  0.00    -0.002 C 
HETATM   31  C19 UNL     1      27.240  -3.376  25.558  1.00  0.00     0.006 C 
HETATM   32  C20 UNL     1      26.308  -4.573  25.752  1.00  0.00     0.011 C 
HETATM   33  C21 UNL     1      26.713  -5.441  24.582  1.00  0.00    -0.023 C 
HETATM   34  C22 UNL     1      27.995  -6.163  25.024  1.00  0.00     0.042 C 
HETATM   35  C26 UNL     1      25.732  -6.545  24.319  1.00  0.00     0.024 C 
HETATM   36  C36 UNL     1      26.988  -4.523  23.445  1.00  0.00    -0.031 C 
HETATM   37  C23 UNL     1      27.835  -7.069  26.171  1.00  0.00     0.119 C 
HETATM   38  C24 UNL     1      26.511  -7.667  26.409  1.00  0.00     0.032 C 
HETATM   39  C25 UNL     1      25.354  -7.044  25.721  1.00  0.00     0.012 C 
HETATM   40  C27 UNL     1      24.565  -6.161  23.514  1.00  0.00    -0.079 C 
HETATM   41  C28 UNL     1      23.600  -7.036  23.326  1.00  0.00    -0.022 C 
HETATM   42  C34 UNL     1      24.512  -4.823  22.934  1.00  0.00     0.035 C 
HETATM   43  C35 UNL     1      25.881  -4.463  22.421  1.00  0.00     0.014 C 
HETATM   44  C37 UNL     1      28.186  -5.005  22.653  1.00  0.00     0.016 C 
BRANCH  37  45
HETATM   45  O4  UNL     1      28.363  -6.428  27.323  1.00  0.00    -0.396 OA
ATOM     46  H4  UNL     1      27.718  -5.809  27.643  1.00  0.00     0.210 HD
ENDBRANCH  37  45
BRANCH  41  47
HETATM   47  C29 UNL     1      22.355  -6.858  22.563  1.00  0.00     0.060 C 
BRANCH  47  48
HETATM   48  C30 UNL     1      22.531  -7.133  21.091  1.00  0.00     0.189 C 
HETATM   49  C31 UNL     1      21.592  -8.168  20.566  1.00  0.00     0.035 C 
HETATM   50  C32 UNL     1      21.698  -7.944  19.054  1.00  0.00     0.029 C 
HETATM   51  C33 UNL     1      22.390  -6.593  18.915  1.00  0.00     0.233 C 
HETATM   52  N4  UNL     1      22.311  -6.004  20.242  1.00  0.00    -0.071 N 
ATOM     53  H42 UNL     1      21.454  -5.485  20.431  1.00  0.00     0.277 HD
ATOM     54  H41 UNL     1      22.940  -5.217  20.401  1.00  0.00     0.277 HD
ENDBRANCH  47  48
ENDBRANCH  41  47
ENDBRANCH   2  30
TORSDOF 16
ENDMDL
MODEL 4
REMARK VINA RESULT: -10.718778998      1.296      1.959
REMARK  16 active torsions:
REMARK  status: ('A' for Active; 'I' for Inactive)
REMARK    1  A    between atoms: C2_2  and  C3_3 
REMARK    2  A    between atoms: C2_2  and  C18_30 
REMARK    3  A    between atoms: C3_3  and  C4_4 
REMARK    4  A    between atoms: C4_4  and  C5_5 
REMARK    5  A    between atoms: C5_5  and  O1_6 
REMARK    6  A    between atoms: C5_5  and  C6_8 
REMARK       I    between atoms: C6_8  and  N1_10 
REMARK    7  A    between atoms: N1_10  and  C7_12 
REMARK    8  A    between atoms: C7_12  and  C8_13 
REMARK    9  A    between atoms: C8_13  and  C9_14 
REMARK   10  A    between atoms: C9_14  and  C10_15 
REMARK   11  A    between atoms: C10_15  and  C11_16 
REMARK   12  A    between atoms: C16_24  and  C17_25 
REMARK   13  A    between atoms: C17_25  and  O3_26 
REMARK   14  A    between atoms: C23_35  and  O4_36 
REMARK   15  A    between atoms: C28_42  and  C29_43 
REMARK   16  A    between atoms: C29_43  and  C30_44 
ROOT
HETATM    1  C1  UNL     1      29.034  -1.333  24.548  1.00  0.00     0.010 C 
HETATM    2  C2  UNL     1      28.218  -2.085  23.517  1.00  0.00    -0.013 C 
ENDROOT
BRANCH   2   3
HETATM    3  C3  UNL     1      27.539  -0.942  22.706  1.00  0.00     0.011 C 
BRANCH   3   4
HETATM    4  C4  UNL     1      26.761  -0.014  23.534  1.00  0.00     0.070 C 
BRANCH   4   5
HETATM    5  C5  UNL     1      26.845   1.381  23.071  1.00  0.00     0.111 C 
BRANCH   5   6
HETATM    6  O1  UNL     1      25.925   1.767  22.217  1.00  0.00    -0.359 OA
ATOM      7  H1  UNL     1      26.180   2.444  21.600  1.00  0.00     0.217 HD
ENDBRANCH   5   6
BRANCH   5   8
HETATM    8  C6  UNL     1      27.841   2.335  23.479  1.00  0.00     0.270 C 
HETATM    9  O2  UNL     1      28.843   2.044  24.139  1.00  0.00    -0.266 OA
HETATM   10  N1  UNL     1      27.677   3.705  23.108  1.00  0.00    -0.355 N 
ATOM     11  H1  UNL     1      26.850   3.957  22.566  1.00  0.00     0.162 HD
BRANCH  10  12
HETATM   12  C7  UNL     1      28.599   4.746  23.449  1.00  0.00     0.123 C 
BRANCH  12  13
HETATM   13  C8  UNL     1      29.109   5.481  22.263  1.00  0.00     0.020 C 
BRANCH  13  14
HETATM   14  C9  UNL     1      30.248   6.421  22.607  1.00  0.00     0.005 C 
BRANCH  14  15
HETATM   15  C10 UNL     1      30.281   7.663  21.774  1.00  0.00     0.054 C 
BRANCH  15  16
HETATM   16  C11 UNL     1      30.301   8.928  22.631  1.00  0.00     0.280 C 
HETATM   17  N2  UNL     1      29.509   9.951  21.998  1.00  0.00    -0.050 N 
HETATM   18  C12 UNL     1      28.118   9.623  21.966  1.00  0.00     0.190 C 
ATOM     19  H22 UNL     1      29.662  10.859  22.438  1.00  0.00     0.280 HD
ATOM     20  H21 UNL     1      29.859  10.160  21.064  1.00  0.00     0.280 HD
HETATM   21  C13 UNL     1      27.360  10.852  21.456  1.00  0.00     0.040 C 
HETATM   22  C14 UNL     1      27.586   9.265  23.305  1.00  0.00     0.036 C 
HETATM   23  C15 UNL     1      26.595   8.112  23.104  1.00  0.00     0.014 C 
HETATM   24  C16 UNL     1      28.587   8.944  24.358  1.00  0.00     0.107 C 
HETATM   25  N3  UNL     1      29.884   8.568  23.931  1.00  0.00    -0.389 N 
ATOM     26  H3  UNL     1      30.505   8.047  24.551  1.00  0.00     0.155 HD
BRANCH  24  27
HETATM   27  C17 UNL     1      28.627  10.026  25.450  1.00  0.00     0.189 C 
BRANCH  27  28
HETATM   28  O3  UNL     1      29.070  11.232  24.975  1.00  0.00    -0.399 OA
ATOM     29  H3  UNL     1      29.677  11.656  25.570  1.00  0.00     0.209 HD
ENDBRANCH  27  28
ENDBRANCH  24  27
ENDBRANCH  15  16
ENDBRANCH  14  15
ENDBRANCH  13  14
ENDBRANCH  12  13
ENDBRANCH  10  12
ENDBRANCH   5   8
ENDBRANCH   4   5
ENDBRANCH   3   4
ENDBRANCH   2   3
BRANCH   2  30
HETATM   30  C18 UNL     1      27.196  -3.001  24.068  1.00  0.00    -0.002 C 
HETATM   31  C19 UNL     1      27.293  -3.188  25.557  1.00  0.00     0.006 C 
HETATM   32  C20 UNL     1      26.338  -4.367  25.751  1.00  0.00     0.011 C 
HETATM   33  C21 UNL     1      26.736  -5.250  24.589  1.00  0.00    -0.023 C 
HETATM   34  C22 UNL     1      28.001  -5.993  25.046  1.00  0.00     0.042 C 
HETATM   35  C26 UNL     1      25.737  -6.337  24.326  1.00  0.00     0.024 C 
HETATM   36  C36 UNL     1      27.037  -4.344  23.449  1.00  0.00    -0.031 C 
HETATM   37  C23 UNL     1      27.816  -6.888  26.197  1.00  0.00     0.119 C 
HETATM   38  C24 UNL     1      26.479  -7.460  26.428  1.00  0.00     0.032 C 
HETATM   39  C25 UNL     1      25.340  -6.821  25.727  1.00  0.00     0.012 C 
HETATM   40  C27 UNL     1      24.584  -5.937  23.509  1.00  0.00    -0.079 C 
HETATM   41  C28 UNL     1      23.605  -6.795  23.319  1.00  0.00    -0.022 C 
HETATM   42  C34 UNL     1      24.560  -4.602  22.920  1.00  0.00     0.035 C 
HETATM   43  C35 UNL     1      25.940  -4.270  22.416  1.00  0.00     0.014 C 
HETATM   44  C37 UNL     1      28.232  -4.853  22.670  1.00  0.00     0.016 C 
BRANCH  37  45
HETATM   45  O4  UNL     1      28.347  -6.250  27.350  1.00  0.00    -0.396 OA
ATOM     46  H4  UNL     1      29.251  -6.523  27.453  1.00  0.00     0.210 HD
ENDBRANCH  37  45
BRANCH  41  47
HETATM   47  C29 UNL     1      22.370  -6.599  22.545  1.00  0.00     0.060 C 
BRANCH  47  48
HETATM   48  C30 UNL     1      22.512  -7.021  21.105  1.00  0.00     0.189 C 
HETATM   49  C31 UNL     1      21.578  -8.120  20.715  1.00  0.00     0.035 C 
HETATM   50  C32 UNL     1      21.642  -8.051  19.185  1.00  0.00     0.029 C 
HETATM   51  C33 UNL     1      22.305  -6.711  18.889  1.00  0.00     0.233 C 
HETATM   52  N4  UNL     1      22.250  -5.990  20.150  1.00  0.00    -0.071 N 
ATOM     53  H42 UNL     1      21.388  -5.467  20.309  1.00  0.00     0.277 HD
ATOM     54  H41 UNL     1      22.868  -5.181  20.210  1.00  0.00     0.277 HD
ENDBRANCH  47  48
ENDBRANCH  41  47
ENDBRANCH   2  30
TORSDOF 16
ENDMDL
MODEL 5
REMARK VINA RESULT: -10.706066202      3.320     13.664
REMARK  16 active torsions:
REMARK  status: ('A' for Active; 'I' for Inactive)
REMARK    1  A    between atoms: C2_2  and  C3_3 
REMARK    2  A    between atoms: C2_2  and  C18_30 
REMARK    3  A    between atoms: C3_3  and  C4_4 
REMARK    4  A    between atoms: C4_4  and  C5_5 
REMARK    5  A    between atoms: C5_5  and  O1_6 
REMARK    6  A    between atoms: C5_5  and  C6_8 
REMARK       I    between atoms: C6_8  and  N1_10 
REMARK    7  A    between atoms: N1_10  and  C7_12 
REMARK    8  A    between atoms: C7_12  and  C8_13 
REMARK    9  A    between atoms: C8_13  and  C9_14 
REMARK   10  A    between atoms: C9_14  and  C10_15 
REMARK   11  A    between atoms: C10_15  and  C11_16 
REMARK   12  A    between atoms: C16_24  and  C17_25 
REMARK   13  A    between atoms: C17_25  and  O3_26 
REMARK   14  A    between atoms: C23_35  and  O4_36 
REMARK   15  A    between atoms: C28_42  and  C29_43 
REMARK   16  A    between atoms: C29_43  and  C30_44 
ROOT
HETATM    1  C1  UNL     1      27.783   4.474  25.580  1.00  0.00     0.010 C 
HETATM    2  C2  UNL     1      26.893   5.241  24.624  1.00  0.00    -0.013 C 
ENDROOT
BRANCH   2   3
HETATM    3  C3  UNL     1      26.107   4.111  23.895  1.00  0.00     0.011 C 
BRANCH   3   4
HETATM    4  C4  UNL     1      26.598   2.761  24.198  1.00  0.00     0.070 C 
BRANCH   4   5
HETATM    5  C5  UNL     1      26.931   1.985  22.992  1.00  0.00     0.111 C 
BRANCH   5   6
HETATM    6  O1  UNL     1      27.601   2.619  22.058  1.00  0.00    -0.359 OA
ATOM      7  H1  UNL     1      27.255   2.558  21.176  1.00  0.00     0.217 HD
ENDBRANCH   5   6
BRANCH   5   8
HETATM    8  C6  UNL     1      26.583   0.607  22.767  1.00  0.00     0.270 C 
HETATM    9  O2  UNL     1      26.208   0.161  21.679  1.00  0.00    -0.266 OA
HETATM   10  N1  UNL     1      26.671  -0.313  23.857  1.00  0.00    -0.355 N 
ATOM     11  H1  UNL     1      26.977   0.046  24.762  1.00  0.00     0.162 HD
BRANCH  10  12
HETATM   12  C7  UNL     1      26.357  -1.707  23.759  1.00  0.00     0.123 C 
BRANCH  12  13
HETATM   13  C8  UNL     1      27.563  -2.576  23.778  1.00  0.00     0.020 C 
BRANCH  13  14
HETATM   14  C9  UNL     1      27.437  -3.765  22.846  1.00  0.00     0.005 C 
BRANCH  14  15
HETATM   15  C10 UNL     1      26.303  -3.656  21.877  1.00  0.00     0.054 C 
BRANCH  15  16
HETATM   16  C11 UNL     1      26.724  -4.033  20.457  1.00  0.00     0.280 C 
HETATM   17  N2  UNL     1      25.796  -4.994  19.918  1.00  0.00    -0.050 N 
HETATM   18  C12 UNL     1      24.493  -4.442  19.717  1.00  0.00     0.190 C 
ATOM     19  H22 UNL     1      26.155  -5.410  19.059  1.00  0.00     0.280 HD
ATOM     20  H21 UNL     1      25.755  -5.830  20.500  1.00  0.00     0.280 HD
HETATM   21  C13 UNL     1      23.656  -5.482  18.968  1.00  0.00     0.040 C 
HETATM   22  C14 UNL     1      24.521  -3.194  18.913  1.00  0.00     0.036 C 
HETATM   23  C15 UNL     1      23.477  -2.245  19.515  1.00  0.00     0.014 C 
HETATM   24  C16 UNL     1      25.841  -2.525  18.763  1.00  0.00     0.107 C 
HETATM   25  N3  UNL     1      26.842  -2.836  19.716  1.00  0.00    -0.389 N 
ATOM     26  H3  UNL     1      27.632  -2.208  19.866  1.00  0.00     0.155 HD
BRANCH  24  27
HETATM   27  C17 UNL     1      26.365  -2.622  17.320  1.00  0.00     0.189 C 
BRANCH  27  28
HETATM   28  O3  UNL     1      27.734  -2.635  17.261  1.00  0.00    -0.399 OA
ATOM     29  H3  UNL     1      28.100  -1.764  17.161  1.00  0.00     0.209 HD
ENDBRANCH  27  28
ENDBRANCH  24  27
ENDBRANCH  15  16
ENDBRANCH  14  15
ENDBRANCH  13  14
ENDBRANCH  12  13
ENDBRANCH  10  12
ENDBRANCH   5   8
ENDBRANCH   4   5
ENDBRANCH   3   4
ENDBRANCH   2   3
BRANCH   2  30
HETATM   30  C18 UNL     1      27.604   6.086  23.641  1.00  0.00    -0.002 C 
HETATM   31  C19 UNL     1      28.921   5.513  23.193  1.00  0.00     0.006 C 
HETATM   32  C20 UNL     1      29.509   6.715  22.452  1.00  0.00     0.011 C 
HETATM   33  C21 UNL     1      29.164   7.834  23.409  1.00  0.00    -0.023 C 
HETATM   34  C22 UNL     1      30.235   7.785  24.510  1.00  0.00     0.042 C 
HETATM   35  C26 UNL     1      29.326   9.190  22.788  1.00  0.00     0.024 C 
HETATM   36  C36 UNL     1      27.820   7.522  23.963  1.00  0.00    -0.031 C 
HETATM   37  C23 UNL     1      31.609   8.042  24.055  1.00  0.00     0.119 C 
HETATM   38  C24 UNL     1      31.801   8.867  22.850  1.00  0.00     0.032 C 
HETATM   39  C25 UNL     1      30.622   9.070  21.974  1.00  0.00     0.012 C 
HETATM   40  C27 UNL     1      28.185   9.646  21.985  1.00  0.00    -0.079 C 
HETATM   41  C28 UNL     1      28.283  10.775  21.315  1.00  0.00    -0.022 C 
HETATM   42  C34 UNL     1      26.967   8.842  21.960  1.00  0.00     0.035 C 
HETATM   43  C35 UNL     1      26.700   8.325  23.349  1.00  0.00     0.014 C 
HETATM   44  C37 UNL     1      27.758   7.882  25.433  1.00  0.00     0.016 C 
BRANCH  37  45
HETATM   45  O4  UNL     1      32.297   6.802  23.987  1.00  0.00    -0.396 OA
ATOM     46  H4  UNL     1      32.043   6.277  24.737  1.00  0.00     0.210 HD
ENDBRANCH  37  45
BRANCH  41  47
HETATM   47  C29 UNL     1      27.270  11.406  20.456  1.00  0.00     0.060 C 
BRANCH  47  48
HETATM   48  C30 UNL     1      27.186  12.898  20.655  1.00  0.00     0.189 C 
HETATM   49  C31 UNL     1      28.431  13.489  21.230  1.00  0.00     0.035 C 
HETATM   50  C32 UNL     1      28.229  14.980  20.937  1.00  0.00     0.029 C 
HETATM   51  C33 UNL     1      27.091  15.021  19.926  1.00  0.00     0.233 C 
HETATM   52  N4  UNL     1      26.967  13.649  19.458  1.00  0.00    -0.071 N 
ATOM     53  H42 UNL     1      27.578  13.404  18.680  1.00  0.00     0.277 HD
ATOM     54  H41 UNL     1      26.096  13.437  18.971  1.00  0.00     0.277 HD
ENDBRANCH  47  48
ENDBRANCH  41  47
ENDBRANCH   2  30
TORSDOF 16
ENDMDL
