MODEL 1
REMARK VINA RESULT: -7.609015329      0.000      0.000
REMARK  13 active torsions:
REMARK  status: ('A' for Active; 'I' for Inactive)
REMARK    1  A    between atoms: C3_3  and  C4_4 
REMARK    2  A    between atoms: C5_5  and  C6_6 
REMARK    3  A    between atoms: C6_6  and  C7_8 
REMARK    4  A    between atoms: C8_9  and  C9_10 
REMARK    5  A    between atoms: C9_10  and  C10_12 
REMARK    6  A    between atoms: C16_19  and  O3_20 
REMARK    7  A    between atoms: C17_22  and  C18_23 
REMARK    8  A    between atoms: C18_23  and  C19_24 
REMARK    9  A    between atoms: C22_29  and  O4_30 
REMARK   10  A    between atoms: N2_34  and  C25_35 
REMARK   11  A    between atoms: C25_35  and  C27_37 
REMARK   12  A    between atoms: C27_37  and  O5_38 
REMARK   13  A    between atoms: C31_46  and  O7_47 
ROOT
HETATM    1  C1  UNL     1      -0.012  21.490   6.433  1.00  0.00     0.112 C 
HETATM    2  C2  UNL     1       0.872  20.639   7.240  1.00  0.00    -0.106 C 
HETATM    3  C3  UNL     1       1.568  19.967   7.873  1.00  0.00    -0.079 C 
ENDROOT
BRANCH   3   4
HETATM    4  C4  UNL     1       2.416  19.159   8.654  1.00  0.00     0.068 C 
HETATM    5  C5  UNL     1       1.997  17.904   9.009  1.00  0.00     0.063 C 
BRANCH   5   6
HETATM    6  C6  UNL     1       2.696  16.959   9.769  1.00  0.00     0.172 C 
HETATM    7  O1  UNL     1       2.010  16.176  10.522  1.00  0.00    -0.289 OA
BRANCH   6   8
HETATM    8  C7  UNL     1       4.114  16.759   9.794  1.00  0.00     0.052 C 
HETATM    9  C8  UNL     1       4.748  16.245   8.722  1.00  0.00    -0.002 C 
BRANCH   9  10
HETATM   10  C9  UNL     1       6.186  15.989   8.587  1.00  0.00     0.111 C 
HETATM   11 CL1  UNL     1       6.719  15.733  10.271  1.00  0.00    -0.120 Cl
BRANCH  10  12
HETATM   12  C10 UNL     1       6.967  17.179   7.956  1.00  0.00     0.042 C 
HETATM   13  C11 UNL     1       6.229  17.610   6.837  1.00  0.00     0.017 C 
HETATM   14  C12 UNL     1       6.159  18.869   6.086  1.00  0.00     0.025 C 
HETATM   15  C13 UNL     1       5.015  19.808   6.426  1.00  0.00     0.013 C 
HETATM   16  C14 UNL     1       7.479  19.607   6.213  1.00  0.00     0.128 C 
HETATM   17  C15 UNL     1       7.277  20.322   7.462  1.00  0.00     0.055 C 
HETATM   18  O2  UNL     1       7.721  20.697   5.322  1.00  0.00    -0.340 OA
HETATM   19  C31 UNL     1       8.299  18.538   5.770  1.00  0.00     0.147 C 
HETATM   20  C16 UNL     1       8.997  21.249   5.306  1.00  0.00     0.281 C 
HETATM   21  C17 UNL     1       9.943  21.475   6.422  1.00  0.00     0.139 C 
HETATM   22  N1  UNL     1      11.022  20.497   6.525  1.00  0.00    -0.360 N 
HETATM   23  C22 UNL     1      11.652  19.800   7.545  1.00  0.00     0.161 C 
ATOM     24  H1  UNL     1      11.411  20.265   5.611  1.00  0.00     0.162 HD
HETATM   25  C23 UNL     1      11.444  18.542   8.280  1.00  0.00     0.082 C 
HETATM   26  C24 UNL     1      12.653  18.200   9.155  1.00  0.00     0.075 C 
HETATM   27  N2  UNL     1      10.180  18.216   8.837  1.00  0.00    -0.252 N 
HETATM   28  O6  UNL     1       9.313  17.703   8.160  1.00  0.00    -0.270 OA
HETATM   29  C28 UNL     1       8.407  16.743   8.043  1.00  0.00     0.180 C 
HETATM   30  C29 UNL     1       8.889  16.088   6.735  1.00  0.00     0.111 C 
HETATM   31  C30 UNL     1       8.277  14.880   6.295  1.00  0.00     0.035 C 
HETATM   32  N3  UNL     1       8.954  17.271   5.881  1.00  0.00    -0.365 N 
ATOM     33  H3  UNL     1       9.667  17.164   5.162  1.00  0.00     0.161 HD
BRANCH  20  34
HETATM   34  O3  UNL     1       9.388  21.600   4.114  1.00  0.00    -0.369 OA
ATOM     35  H3  UNL     1       9.211  22.513   3.917  1.00  0.00     0.212 HD
ENDBRANCH  20  34
BRANCH  21  36
HETATM   36  C18 UNL     1      10.637  22.820   5.991  1.00  0.00     0.034 C 
BRANCH  36  37
HETATM   37  C19 UNL     1      11.173  23.526   7.171  1.00  0.00    -0.021 C 
HETATM   38  C20 UNL     1      12.689  23.561   7.178  1.00  0.00     0.009 C 
HETATM   39  C21 UNL     1      10.691  24.970   7.190  1.00  0.00     0.009 C 
ENDBRANCH  36  37
ENDBRANCH  21  36
BRANCH  23  40
HETATM   40  O4  UNL     1      12.742  20.393   8.010  1.00  0.00    -0.345 OA
ATOM     41  H4  UNL     1      12.598  21.280   8.318  1.00  0.00     0.219 HD
ENDBRANCH  23  40
BRANCH  27  42
HETATM   42  C25 UNL     1       9.876  18.372  10.188  1.00  0.00     0.134 C 
HETATM   43  C26 UNL     1       8.626  19.127  10.569  1.00  0.00     0.037 C 
BRANCH  42  44
HETATM   44  C27 UNL     1       9.929  17.141  11.054  1.00  0.00     0.191 C 
BRANCH  44  45
HETATM   45  O5  UNL     1       9.158  17.348  12.224  1.00  0.00    -0.399 OA
ATOM     46  H5  UNL     1       9.595  16.951  12.968  1.00  0.00     0.209 HD
ENDBRANCH  44  45
ENDBRANCH  42  44
ENDBRANCH  27  42
BRANCH  19  47
HETATM   47  O7  UNL     1       8.698  18.860   4.557  1.00  0.00    -0.347 OA
ATOM     48  H7  UNL     1       8.555  18.092   4.018  1.00  0.00     0.219 HD
ENDBRANCH  19  47
ENDBRANCH  10  12
ENDBRANCH   9  10
ENDBRANCH   6   8
ENDBRANCH   5   6
ENDBRANCH   3   4
TORSDOF 13
ENDMDL
MODEL 2
REMARK VINA RESULT: -6.825227581      2.155      4.561
REMARK  13 active torsions:
REMARK  status: ('A' for Active; 'I' for Inactive)
REMARK    1  A    between atoms: C3_3  and  C4_4 
REMARK    2  A    between atoms: C5_5  and  C6_6 
REMARK    3  A    between atoms: C6_6  and  C7_8 
REMARK    4  A    between atoms: C8_9  and  C9_10 
REMARK    5  A    between atoms: C9_10  and  C10_12 
REMARK    6  A    between atoms: C16_19  and  O3_20 
REMARK    7  A    between atoms: C17_22  and  C18_23 
REMARK    8  A    between atoms: C18_23  and  C19_24 
REMARK    9  A    between atoms: C22_29  and  O4_30 
REMARK   10  A    between atoms: N2_34  and  C25_35 
REMARK   11  A    between atoms: C25_35  and  C27_37 
REMARK   12  A    between atoms: C27_37  and  O5_38 
REMARK   13  A    between atoms: C31_46  and  O7_47 
ROOT
HETATM    1  C1  UNL     1       1.122  18.868   8.552  1.00  0.00     0.112 C 
HETATM    2  C2  UNL     1       1.998  17.914   9.242  1.00  0.00    -0.106 C 
HETATM    3  C3  UNL     1       2.687  17.164   9.789  1.00  0.00    -0.079 C 
ENDROOT
BRANCH   3   4
HETATM    4  C4  UNL     1       3.531  16.245  10.442  1.00  0.00     0.068 C 
HETATM    5  C5  UNL     1       4.711  15.885   9.847  1.00  0.00     0.063 C 
BRANCH   5   6
HETATM    6  C6  UNL     1       5.676  15.000  10.341  1.00  0.00     0.172 C 
HETATM    7  O1  UNL     1       5.278  14.071  11.134  1.00  0.00    -0.289 OA
BRANCH   6   8
HETATM    8  C7  UNL     1       7.077  15.010  10.049  1.00  0.00     0.052 C 
HETATM    9  C8  UNL     1       7.557  15.768   9.044  1.00  0.00    -0.002 C 
BRANCH   9  10
HETATM   10  C9  UNL     1       8.958  15.894   8.626  1.00  0.00     0.111 C 
HETATM   11 CL1  UNL     1       9.863  15.697  10.152  1.00  0.00    -0.120 Cl
BRANCH  10  12
HETATM   12  C10 UNL     1       9.287  17.275   7.986  1.00  0.00     0.042 C 
HETATM   13  C11 UNL     1      10.662  17.505   8.182  1.00  0.00     0.017 C 
HETATM   14  C12 UNL     1      11.661  18.344   7.511  1.00  0.00     0.025 C 
HETATM   15  C13 UNL     1      12.552  17.664   6.486  1.00  0.00     0.013 C 
HETATM   16  C14 UNL     1      10.973  19.538   6.875  1.00  0.00     0.128 C 
HETATM   17  C15 UNL     1      10.565  18.975   5.599  1.00  0.00     0.055 C 
HETATM   18  O2  UNL     1      11.792  20.622   6.435  1.00  0.00    -0.340 OA
HETATM   19  C31 UNL     1      10.316  19.984   8.051  1.00  0.00     0.147 C 
HETATM   20  C16 UNL     1      11.157  21.791   6.031  1.00  0.00     0.281 C 
HETATM   21  C17 UNL     1       9.888  21.969   5.289  1.00  0.00     0.139 C 
HETATM   22  N1  UNL     1       8.740  22.343   6.110  1.00  0.00    -0.360 N 
HETATM   23  C22 UNL     1       7.402  21.987   6.186  1.00  0.00     0.161 C 
ATOM     24  H1  UNL     1       8.985  23.046   6.807  1.00  0.00     0.162 HD
HETATM   25  C23 UNL     1       6.599  20.949   6.853  1.00  0.00     0.082 C 
HETATM   26  C24 UNL     1       5.100  21.239   6.731  1.00  0.00     0.075 C 
HETATM   27  N2  UNL     1       6.959  19.579   6.779  1.00  0.00    -0.252 N 
HETATM   28  O6  UNL     1       7.785  19.109   7.535  1.00  0.00    -0.270 OA
HETATM   29  C28 UNL     1       8.109  18.133   8.371  1.00  0.00     0.180 C 
HETATM   30  C29 UNL     1       8.391  18.960   9.640  1.00  0.00     0.111 C 
HETATM   31  C30 UNL     1       8.635  18.285  10.869  1.00  0.00     0.035 C 
HETATM   32  N3  UNL     1       9.339  19.927   9.093  1.00  0.00    -0.365 N 
ATOM     33  H3  UNL     1       9.289  20.812   9.596  1.00  0.00     0.161 HD
BRANCH  20  34
HETATM   34  O3  UNL     1      11.798  22.870   6.383  1.00  0.00    -0.369 OA
ATOM     35  H3  UNL     1      11.275  23.659   6.297  1.00  0.00     0.212 HD
ENDBRANCH  20  34
BRANCH  21  36
HETATM   36  C18 UNL     1      10.203  23.235   4.409  1.00  0.00     0.034 C 
BRANCH  36  37
HETATM   37  C19 UNL     1       9.801  23.003   3.008  1.00  0.00    -0.021 C 
HETATM   38  C20 UNL     1       9.547  21.536   2.721  1.00  0.00     0.009 C 
HETATM   39  C21 UNL     1       8.513  23.751   2.693  1.00  0.00     0.009 C 
ENDBRANCH  36  37
ENDBRANCH  21  36
BRANCH  23  40
HETATM   40  O4  UNL     1       6.595  22.769   5.485  1.00  0.00    -0.345 OA
ATOM     41  H4  UNL     1       6.907  22.961   4.608  1.00  0.00     0.219 HD
ENDBRANCH  23  40
BRANCH  27  42
HETATM   42  C25 UNL     1       6.347  18.672   5.918  1.00  0.00     0.134 C 
HETATM   43  C26 UNL     1       7.178  18.015   4.842  1.00  0.00     0.037 C 
BRANCH  42  44
HETATM   44  C27 UNL     1       5.500  17.592   6.541  1.00  0.00     0.191 C 
BRANCH  44  45
HETATM   45  O5  UNL     1       4.216  18.107   6.839  1.00  0.00    -0.399 OA
ATOM     46  H5  UNL     1       4.161  18.313   7.765  1.00  0.00     0.209 HD
ENDBRANCH  44  45
ENDBRANCH  42  44
ENDBRANCH  27  42
BRANCH  19  47
HETATM   47  O7  UNL     1      10.954  21.069   8.438  1.00  0.00    -0.347 OA
ATOM     48  H7  UNL     1      10.311  21.768   8.439  1.00  0.00     0.219 HD
ENDBRANCH  19  47
ENDBRANCH  10  12
ENDBRANCH   9  10
ENDBRANCH   6   8
ENDBRANCH   5   6
ENDBRANCH   3   4
TORSDOF 13
ENDMDL
MODEL 3
REMARK VINA RESULT: -6.713141910      2.282      3.955
REMARK  13 active torsions:
REMARK  status: ('A' for Active; 'I' for Inactive)
REMARK    1  A    between atoms: C3_3  and  C4_4 
REMARK    2  A    between atoms: C5_5  and  C6_6 
REMARK    3  A    between atoms: C6_6  and  C7_8 
REMARK    4  A    between atoms: C8_9  and  C9_10 
REMARK    5  A    between atoms: C9_10  and  C10_12 
REMARK    6  A    between atoms: C16_19  and  O3_20 
REMARK    7  A    between atoms: C17_22  and  C18_23 
REMARK    8  A    between atoms: C18_23  and  C19_24 
REMARK    9  A    between atoms: C22_29  and  O4_30 
REMARK   10  A    between atoms: N2_34  and  C25_35 
REMARK   11  A    between atoms: C25_35  and  C27_37 
REMARK   12  A    between atoms: C27_37  and  O5_38 
REMARK   13  A    between atoms: C31_46  and  O7_47 
ROOT
HETATM    1  C1  UNL     1       5.793  13.358  12.636  1.00  0.00     0.112 C 
HETATM    2  C2  UNL     1       4.882  14.252  11.911  1.00  0.00    -0.106 C 
HETATM    3  C3  UNL     1       4.164  14.954  11.338  1.00  0.00    -0.079 C 
ENDROOT
BRANCH   3   4
HETATM    4  C4  UNL     1       3.288  15.817  10.652  1.00  0.00     0.068 C 
HETATM    5  C5  UNL     1       3.765  16.548   9.596  1.00  0.00     0.063 C 
BRANCH   5   6
HETATM    6  C6  UNL     1       3.051  17.445   8.793  1.00  0.00     0.172 C 
HETATM    7  O1  UNL     1       1.917  17.057   8.332  1.00  0.00    -0.289 OA
BRANCH   6   8
HETATM    8  C7  UNL     1       3.449  18.772   8.429  1.00  0.00     0.052 C 
HETATM    9  C8  UNL     1       4.728  19.032   8.098  1.00  0.00    -0.002 C 
BRANCH   9  10
HETATM   10  C9  UNL     1       5.289  20.327   7.697  1.00  0.00     0.111 C 
HETATM   11 CL1  UNL     1       4.201  20.860   6.386  1.00  0.00    -0.120 Cl
BRANCH  10  12
HETATM   12  C10 UNL     1       6.751  20.227   7.168  1.00  0.00     0.042 C 
HETATM   13  C11 UNL     1       6.860  21.119   6.085  1.00  0.00     0.017 C 
HETATM   14  C12 UNL     1       7.986  21.805   5.439  1.00  0.00     0.025 C 
HETATM   15  C13 UNL     1       8.239  23.245   5.849  1.00  0.00     0.013 C 
HETATM   16  C14 UNL     1       9.251  20.989   5.632  1.00  0.00     0.128 C 
HETATM   17  C15 UNL     1       9.689  21.463   6.934  1.00  0.00     0.055 C 
HETATM   18  O2  UNL     1      10.387  21.325   4.833  1.00  0.00    -0.340 OA
HETATM   19  C31 UNL     1       8.737  19.776   5.106  1.00  0.00     0.147 C 
HETATM   20  C16 UNL     1      11.479  20.465   4.867  1.00  0.00     0.281 C 
HETATM   21  C17 UNL     1      12.046  19.702   6.002  1.00  0.00     0.139 C 
HETATM   22  N1  UNL     1      11.693  18.285   6.030  1.00  0.00    -0.360 N 
HETATM   23  C22 UNL     1      11.308  17.364   6.993  1.00  0.00     0.161 C 
ATOM     24  H1  UNL     1      11.743  17.864   5.102  1.00  0.00     0.162 HD
HETATM   25  C23 UNL     1      10.052  16.925   7.622  1.00  0.00     0.082 C 
HETATM   26  C24 UNL     1      10.263  15.668   8.471  1.00  0.00     0.075 C 
HETATM   27  N2  UNL     1       9.123  17.861   8.145  1.00  0.00    -0.252 N 
HETATM   28  O6  UNL     1       8.311  18.405   7.425  1.00  0.00    -0.270 OA
HETATM   29  C28 UNL     1       7.047  18.750   7.226  1.00  0.00     0.180 C 
HETATM   30  C29 UNL     1       6.799  18.061   5.871  1.00  0.00     0.111 C 
HETATM   31  C30 UNL     1       5.482  18.042   5.332  1.00  0.00     0.035 C 
HETATM   32  N3  UNL     1       7.930  18.596   5.117  1.00  0.00    -0.365 N 
ATOM     33  H3  UNL     1       8.228  17.942   4.394  1.00  0.00     0.161 HD
BRANCH  20  34
HETATM   34  O3  UNL     1      12.061  20.330   3.710  1.00  0.00    -0.369 OA
ATOM     35  H3  UNL     1      12.836  20.871   3.616  1.00  0.00     0.212 HD
ENDBRANCH  20  34
BRANCH  21  36
HETATM   36  C18 UNL     1      13.586  19.744   5.685  1.00  0.00     0.034 C 
BRANCH  36  37
HETATM   37  C19 UNL     1      14.334  20.296   6.831  1.00  0.00    -0.021 C 
HETATM   38  C20 UNL     1      15.722  19.697   6.950  1.00  0.00     0.009 C 
HETATM   39  C21 UNL     1      14.507  21.800   6.678  1.00  0.00     0.009 C 
ENDBRANCH  36  37
ENDBRANCH  21  36
BRANCH  23  40
HETATM   40  O4  UNL     1      12.311  16.671   7.509  1.00  0.00    -0.345 OA
ATOM     41  H4  UNL     1      12.130  16.310   8.370  1.00  0.00     0.219 HD
ENDBRANCH  23  40
BRANCH  27  42
HETATM   42  C25 UNL     1       9.016  18.156   9.502  1.00  0.00     0.134 C 
HETATM   43  C26 UNL     1       8.693  19.571   9.917  1.00  0.00     0.037 C 
BRANCH  42  44
HETATM   44  C27 UNL     1       8.159  17.245  10.341  1.00  0.00     0.191 C 
BRANCH  44  45
HETATM   45  O5  UNL     1       8.855  16.887  11.521  1.00  0.00    -0.399 OA
ATOM     46  H5  UNL     1       8.841  15.943  11.626  1.00  0.00     0.209 HD
ENDBRANCH  44  45
ENDBRANCH  42  44
ENDBRANCH  27  42
BRANCH  19  47
HETATM   47  O7  UNL     1       9.299  19.621   3.925  1.00  0.00    -0.347 OA
ATOM     48  H7  UNL     1       9.109  20.412   3.436  1.00  0.00     0.219 HD
ENDBRANCH  19  47
ENDBRANCH  10  12
ENDBRANCH   9  10
ENDBRANCH   6   8
ENDBRANCH   5   6
ENDBRANCH   3   4
TORSDOF 13
ENDMDL
MODEL 4
REMARK VINA RESULT: -6.653122189      1.834      2.773
REMARK  13 active torsions:
REMARK  status: ('A' for Active; 'I' for Inactive)
REMARK    1  A    between atoms: C3_3  and  C4_4 
REMARK    2  A    between atoms: C5_5  and  C6_6 
REMARK    3  A    between atoms: C6_6  and  C7_8 
REMARK    4  A    between atoms: C8_9  and  C9_10 
REMARK    5  A    between atoms: C9_10  and  C10_12 
REMARK    6  A    between atoms: C16_19  and  O3_20 
REMARK    7  A    between atoms: C17_22  and  C18_23 
REMARK    8  A    between atoms: C18_23  and  C19_24 
REMARK    9  A    between atoms: C22_29  and  O4_30 
REMARK   10  A    between atoms: N2_34  and  C25_35 
REMARK   11  A    between atoms: C25_35  and  C27_37 
REMARK   12  A    between atoms: C27_37  and  O5_38 
REMARK   13  A    between atoms: C31_46  and  O7_47 
ROOT
HETATM    1  C1  UNL     1       0.684  19.174   8.359  1.00  0.00     0.112 C 
HETATM    2  C2  UNL     1       1.893  18.371   8.575  1.00  0.00    -0.106 C 
HETATM    3  C3  UNL     1       2.846  17.739   8.748  1.00  0.00    -0.079 C 
ENDROOT
BRANCH   3   4
HETATM    4  C4  UNL     1       4.006  16.966   8.945  1.00  0.00     0.068 C 
HETATM    5  C5  UNL     1       4.088  16.158  10.048  1.00  0.00     0.063 C 
BRANCH   5   6
HETATM    6  C6  UNL     1       5.148  15.317  10.407  1.00  0.00     0.172 C 
HETATM    7  O1  UNL     1       4.883  14.325  11.180  1.00  0.00    -0.289 OA
BRANCH   6   8
HETATM    8  C7  UNL     1       6.514  15.438   9.997  1.00  0.00     0.052 C 
HETATM    9  C8  UNL     1       7.160  16.613  10.120  1.00  0.00    -0.002 C 
BRANCH   9  10
HETATM   10  C9  UNL     1       8.553  16.897   9.757  1.00  0.00     0.111 C 
HETATM   11 CL1  UNL     1       9.225  17.627  11.241  1.00  0.00    -0.120 Cl
BRANCH  10  12
HETATM   12  C10 UNL     1       8.688  17.892   8.566  1.00  0.00     0.042 C 
HETATM   13  C11 UNL     1       7.384  18.208   8.142  1.00  0.00     0.017 C 
HETATM   14  C12 UNL     1       6.797  19.333   7.404  1.00  0.00     0.025 C 
HETATM   15  C13 UNL     1       6.127  20.420   8.227  1.00  0.00     0.013 C 
HETATM   16  C14 UNL     1       7.851  19.952   6.505  1.00  0.00     0.128 C 
HETATM   17  C15 UNL     1       8.495  20.872   7.427  1.00  0.00     0.055 C 
HETATM   18  O2  UNL     1       7.412  20.858   5.491  1.00  0.00    -0.340 OA
HETATM   19  C31 UNL     1       8.213  18.752   5.840  1.00  0.00     0.147 C 
HETATM   20  C16 UNL     1       8.346  21.275   4.548  1.00  0.00     0.281 C 
HETATM   21  C17 UNL     1       9.784  21.585   4.715  1.00  0.00     0.139 C 
HETATM   22  N1  UNL     1      10.696  20.536   4.268  1.00  0.00    -0.360 N 
HETATM   23  C22 UNL     1      11.864  19.953   4.738  1.00  0.00     0.161 C 
ATOM     24  H1  UNL     1      10.397  20.126   3.383  1.00  0.00     0.162 HD
HETATM   25  C23 UNL     1      12.230  18.854   5.645  1.00  0.00     0.082 C 
HETATM   26  C24 UNL     1      13.727  18.540   5.566  1.00  0.00     0.075 C 
HETATM   27  N2  UNL     1      11.655  18.742   6.937  1.00  0.00    -0.252 N 
HETATM   28  O6  UNL     1      10.573  18.214   7.095  1.00  0.00    -0.270 OA
HETATM   29  C28 UNL     1       9.845  17.339   7.774  1.00  0.00     0.180 C 
HETATM   30  C29 UNL     1       9.371  16.441   6.615  1.00  0.00     0.111 C 
HETATM   31  C30 UNL     1       8.660  15.244   6.910  1.00  0.00     0.035 C 
HETATM   32  N3  UNL     1       8.820  17.463   5.728  1.00  0.00    -0.365 N 
ATOM     33  H3  UNL     1       8.889  17.174   4.753  1.00  0.00     0.161 HD
BRANCH  20  34
HETATM   34  O3  UNL     1       7.846  21.394   3.351  1.00  0.00    -0.369 OA
ATOM     35  H3  UNL     1       8.509  21.508   2.679  1.00  0.00     0.212 HD
ENDBRANCH  20  34
BRANCH  21  36
HETATM   36  C18 UNL     1       9.980  22.770   3.700  1.00  0.00     0.034 C 
BRANCH  36  37
HETATM   37  C19 UNL     1      10.611  23.924   4.369  1.00  0.00    -0.021 C 
HETATM   38  C20 UNL     1      10.441  23.875   5.876  1.00  0.00     0.009 C 
HETATM   39  C21 UNL     1      12.107  23.950   4.087  1.00  0.00     0.009 C 
ENDBRANCH  36  37
ENDBRANCH  21  36
BRANCH  23  40
HETATM   40  O4  UNL     1      12.971  20.504   4.264  1.00  0.00    -0.345 OA
ATOM     41  H4  UNL     1      13.757  19.997   4.428  1.00  0.00     0.219 HD
ENDBRANCH  23  40
BRANCH  27  42
HETATM   42  C25 UNL     1      12.307  19.140   8.102  1.00  0.00     0.134 C 
HETATM   43  C26 UNL     1      13.341  18.223   8.707  1.00  0.00     0.037 C 
BRANCH  42  44
HETATM   44  C27 UNL     1      12.883  20.532   8.129  1.00  0.00     0.191 C 
BRANCH  44  45
HETATM   45  O5  UNL     1      11.834  21.482   8.150  1.00  0.00    -0.399 OA
ATOM     46  H5  UNL     1      11.851  21.995   7.350  1.00  0.00     0.209 HD
ENDBRANCH  44  45
ENDBRANCH  42  44
ENDBRANCH  27  42
BRANCH  19  47
HETATM   47  O7  UNL     1       7.707  18.838   4.627  1.00  0.00    -0.347 OA
ATOM     48  H7  UNL     1       8.348  18.448   4.045  1.00  0.00     0.219 HD
ENDBRANCH  19  47
ENDBRANCH  10  12
ENDBRANCH   9  10
ENDBRANCH   6   8
ENDBRANCH   5   6
ENDBRANCH   3   4
TORSDOF 13
ENDMDL
MODEL 5
REMARK VINA RESULT: -6.619659253      3.503      6.920
REMARK  13 active torsions:
REMARK  status: ('A' for Active; 'I' for Inactive)
REMARK    1  A    between atoms: C3_3  and  C4_4 
REMARK    2  A    between atoms: C5_5  and  C6_6 
REMARK    3  A    between atoms: C6_6  and  C7_8 
REMARK    4  A    between atoms: C8_9  and  C9_10 
REMARK    5  A    between atoms: C9_10  and  C10_12 
REMARK    6  A    between atoms: C16_19  and  O3_20 
REMARK    7  A    between atoms: C17_22  and  C18_23 
REMARK    8  A    between atoms: C18_23  and  C19_24 
REMARK    9  A    between atoms: C22_29  and  O4_30 
REMARK   10  A    between atoms: N2_34  and  C25_35 
REMARK   11  A    between atoms: C25_35  and  C27_37 
REMARK   12  A    between atoms: C27_37  and  O5_38 
REMARK   13  A    between atoms: C31_46  and  O7_47 
ROOT
HETATM    1  C1  UNL     1       4.996  14.582  11.300  1.00  0.00     0.112 C 
HETATM    2  C2  UNL     1       4.985  15.363  10.057  1.00  0.00    -0.106 C 
HETATM    3  C3  UNL     1       4.977  15.975   9.076  1.00  0.00    -0.079 C 
ENDROOT
BRANCH   3   4
HETATM    4  C4  UNL     1       4.966  16.733   7.889  1.00  0.00     0.068 C 
HETATM    5  C5  UNL     1       6.124  16.859   7.169  1.00  0.00     0.063 C 
BRANCH   5   6
HETATM    6  C6  UNL     1       6.307  17.559   5.971  1.00  0.00     0.172 C 
HETATM    7  O1  UNL     1       5.319  17.599   5.150  1.00  0.00    -0.289 OA
BRANCH   6   8
HETATM    8  C7  UNL     1       7.489  18.253   5.556  1.00  0.00     0.052 C 
HETATM    9  C8  UNL     1       7.950  19.297   6.269  1.00  0.00    -0.002 C 
BRANCH   9  10
HETATM   10  C9  UNL     1       9.143  20.103   5.984  1.00  0.00     0.111 C 
HETATM   11 CL1  UNL     1       9.146  20.218   4.202  1.00  0.00    -0.120 Cl
BRANCH  10  12
HETATM   12  C10 UNL     1      10.464  19.442   6.477  1.00  0.00     0.042 C 
HETATM   13  C11 UNL     1      10.149  18.698   7.630  1.00  0.00     0.017 C 
HETATM   14  C12 UNL     1      10.777  17.561   8.313  1.00  0.00     0.025 C 
HETATM   15  C13 UNL     1      10.205  16.184   8.021  1.00  0.00     0.013 C 
HETATM   16  C14 UNL     1      12.268  17.563   8.030  1.00  0.00     0.128 C 
HETATM   17  C15 UNL     1      12.311  16.848   6.765  1.00  0.00     0.055 C 
HETATM   18  O2  UNL     1      13.099  16.724   8.834  1.00  0.00    -0.340 OA
HETATM   19  C31 UNL     1      12.506  18.894   8.460  1.00  0.00     0.147 C 
HETATM   20  C16 UNL     1      14.476  16.867   8.709  1.00  0.00     0.281 C 
HETATM   21  C17 UNL     1      15.293  17.139   7.505  1.00  0.00     0.139 C 
HETATM   22  N1  UNL     1      15.743  18.521   7.363  1.00  0.00    -0.360 N 
HETATM   23  C22 UNL     1      15.847  19.444   6.333  1.00  0.00     0.161 C 
ATOM     24  H1  UNL     1      16.063  18.908   8.252  1.00  0.00     0.162 HD
HETATM   25  C23 UNL     1      14.979  20.444   5.691  1.00  0.00     0.082 C 
HETATM   26  C24 UNL     1      15.773  21.340   4.735  1.00  0.00     0.075 C 
HETATM   27  N2  UNL     1      13.667  20.115   5.264  1.00  0.00    -0.252 N 
HETATM   28  O6  UNL     1      12.734  20.133   6.041  1.00  0.00    -0.270 OA
HETATM   29  C28 UNL     1      11.493  20.527   6.290  1.00  0.00     0.180 C 
HETATM   30  C29 UNL     1      11.728  21.326   7.586  1.00  0.00     0.111 C 
HETATM   31  C30 UNL     1      10.656  22.077   8.144  1.00  0.00     0.035 C 
HETATM   32  N3  UNL     1      12.447  20.319   8.363  1.00  0.00    -0.365 N 
ATOM     33  H3  UNL     1      13.088  20.757   9.023  1.00  0.00     0.161 HD
BRANCH  20  34
HETATM   34  O3  UNL     1      15.109  16.744   9.842  1.00  0.00    -0.369 OA
ATOM     35  H3  UNL     1      15.964  16.340   9.750  1.00  0.00     0.212 HD
ENDBRANCH  20  34
BRANCH  21  36
HETATM   36  C18 UNL     1      16.593  16.303   7.798  1.00  0.00     0.034 C 
BRANCH  36  37
HETATM   37  C19 UNL     1      17.011  15.560   6.594  1.00  0.00    -0.021 C 
HETATM   38  C20 UNL     1      17.033  14.061   6.826  1.00  0.00     0.009 C 
HETATM   39  C21 UNL     1      16.048  15.822   5.445  1.00  0.00     0.009 C 
ENDBRANCH  36  37
ENDBRANCH  21  36
BRANCH  23  40
HETATM   40  O4  UNL     1      17.032  19.463   5.743  1.00  0.00    -0.345 OA
ATOM     41  H4  UNL     1      17.259  20.300   5.355  1.00  0.00     0.219 HD
ENDBRANCH  23  40
BRANCH  27  42
HETATM   42  C25 UNL     1      13.340  19.838   3.939  1.00  0.00     0.134 C 
HETATM   43  C26 UNL     1      13.033  20.987   3.009  1.00  0.00     0.037 C 
BRANCH  42  44
HETATM   44  C27 UNL     1      14.242  18.893   3.188  1.00  0.00     0.191 C 
BRANCH  44  45
HETATM   45  O5  UNL     1      13.496  18.205   2.201  1.00  0.00    -0.399 OA
ATOM     46  H5  UNL     1      13.696  17.277   2.238  1.00  0.00     0.209 HD
ENDBRANCH  44  45
ENDBRANCH  42  44
ENDBRANCH  27  42
BRANCH  19  47
HETATM   47  O7  UNL     1      13.134  18.800   9.613  1.00  0.00    -0.347 OA
ATOM     48  H7  UNL     1      13.175  17.873   9.817  1.00  0.00     0.219 HD
ENDBRANCH  19  47
ENDBRANCH  10  12
ENDBRANCH   9  10
ENDBRANCH   6   8
ENDBRANCH   5   6
ENDBRANCH   3   4
TORSDOF 13
ENDMDL
