MODEL 1
REMARK VINA RESULT: -7.911686551      0.000      0.000
REMARK  10 active torsions:
REMARK  status: ('A' for Active; 'I' for Inactive)
REMARK    1  A    between atoms: O1_2  and  C2_3 
REMARK    2  A    between atoms: C2_3  and  C3_4 
REMARK    3  A    between atoms: C3_4  and  C4_5 
REMARK    4  A    between atoms: C4_5  and  N1_6 
REMARK    5  A    between atoms: C4_5  and  C22_33 
REMARK       I    between atoms: N1_6  and  C5_8 
REMARK    6  A    between atoms: C5_8  and  C6_10 
REMARK    7  A    between atoms: C8_12  and  C9_13 
REMARK    8  A    between atoms: C9_13  and  O3_14 
REMARK    9  A    between atoms: C9_13  and  N2_16 
REMARK   10  A    between atoms: C22_33  and  C23_35 
ROOT
HETATM    1  C6  UNL     1       7.592  62.676   1.838  1.00  0.00     0.044 C 
HETATM    2  C7  UNL     1       7.571  63.894   2.710  1.00  0.00     0.037 C 
HETATM    3  C8  UNL     1       8.528  64.947   2.232  1.00  0.00     0.028 C 
HETATM    4  C15 UNL     1       8.424  65.252   0.758  1.00  0.00     0.029 C 
HETATM    5  C16 UNL     1       8.711  63.860   0.161  1.00  0.00    -0.020 C 
HETATM    6  C17 UNL     1       9.115  63.925  -1.263  1.00  0.00     0.017 C 
HETATM    7  C18 UNL     1       7.393  63.107   0.376  1.00  0.00     0.030 C 
HETATM    8  C19 UNL     1       9.707  63.269   1.090  1.00  0.00     0.046 C 
HETATM    9 CL1  UNL     1      11.210  62.776   0.310  1.00  0.00    -0.118 Cl
HETATM   10  C20 UNL     1       8.991  62.082   1.731  1.00  0.00     0.045 C 
HETATM   11  C21 UNL     1       9.932  64.261   2.203  1.00  0.00     0.044 C 
ENDROOT
BRANCH   1  12
HETATM   12  C5  UNL     1       6.649  61.626   2.222  1.00  0.00     0.227 C 
HETATM   13  N1  UNL     1       6.502  60.385   1.577  1.00  0.00    -0.349 N 
ATOM     14  H1  UNL     1       7.089  60.187   0.766  1.00  0.00     0.163 HD
HETATM   15  O2  UNL     1       5.885  61.827   3.229  1.00  0.00    -0.273 OA
BRANCH  13  16
HETATM   16  C4  UNL     1       5.556  59.374   2.006  1.00  0.00     0.165 C 
BRANCH  16  17
HETATM   17  C3  UNL     1       4.529  59.020   0.972  1.00  0.00     0.059 C 
BRANCH  17  18
HETATM   18  C2  UNL     1       4.292  60.123  -0.026  1.00  0.00     0.169 C 
BRANCH  18  19
HETATM   19  O1  UNL     1       5.279  60.260  -0.963  1.00  0.00    -0.396 OA
HETATM   20  C1  UNL     1       4.911  59.872  -2.225  1.00  0.00     0.201 C 
ENDBRANCH  18  19
ENDBRANCH  17  18
ENDBRANCH  16  17
BRANCH  16  21
HETATM   21  C22 UNL     1       6.293  58.197   2.537  1.00  0.00     0.255 C 
HETATM   22  O5  UNL     1       6.016  57.095   2.043  1.00  0.00    -0.286 OA
BRANCH  21  23
HETATM   23  C23 UNL     1       7.310  58.319   3.605  1.00  0.00     0.453 C 
HETATM   24  F1  UNL     1       8.524  58.688   3.037  1.00  0.00    -0.163 F 
HETATM   25  F2  UNL     1       6.870  59.217   4.543  1.00  0.00    -0.163 F 
HETATM   26  F3  UNL     1       7.511  57.089   4.246  1.00  0.00    -0.163 F 
ENDBRANCH  21  23
ENDBRANCH  16  21
ENDBRANCH  13  16
ENDBRANCH   1  12
BRANCH   3  27
HETATM   27  C9  UNL     1       8.598  66.121   3.096  1.00  0.00     0.122 C 
BRANCH  27  28
HETATM   28  O3  UNL     1       9.445  66.003   4.088  1.00  0.00    -0.349 OA
ATOM     29  H3  UNL     1       9.046  66.073   4.948  1.00  0.00     0.219 HD
ENDBRANCH  27  28
BRANCH  27  30
HETATM   30  N2  UNL     1       7.934  67.330   3.064  1.00  0.00    -0.356 N 
HETATM   31  C10 UNL     1       8.529  68.505   2.510  1.00  0.00     0.127 C 
HETATM   32  C11 UNL     1       8.950  69.414   3.667  1.00  0.00     0.039 C 
HETATM   33  C12 UNL     1       7.798  70.332   3.966  1.00  0.00     0.124 C 
HETATM   34  N3  UNL     1       6.763  69.655   4.728  1.00  0.00    -0.360 N 
HETATM   35  C13 UNL     1       6.407  68.271   4.726  1.00  0.00     0.235 C 
ATOM     36  H3  UNL     1       6.215  70.250   5.351  1.00  0.00     0.162 HD
HETATM   37  O4  UNL     1       5.912  67.823   5.785  1.00  0.00    -0.272 OA
HETATM   38  C14 UNL     1       6.558  67.324   3.619  1.00  0.00     0.227 C 
ENDBRANCH  27  30
ENDBRANCH   3  27
TORSDOF 10
ENDMDL
MODEL 2
REMARK VINA RESULT: -7.851346339      3.074      4.159
REMARK  10 active torsions:
REMARK  status: ('A' for Active; 'I' for Inactive)
REMARK    1  A    between atoms: O1_2  and  C2_3 
REMARK    2  A    between atoms: C2_3  and  C3_4 
REMARK    3  A    between atoms: C3_4  and  C4_5 
REMARK    4  A    between atoms: C4_5  and  N1_6 
REMARK    5  A    between atoms: C4_5  and  C22_33 
REMARK       I    between atoms: N1_6  and  C5_8 
REMARK    6  A    between atoms: C5_8  and  C6_10 
REMARK    7  A    between atoms: C8_12  and  C9_13 
REMARK    8  A    between atoms: C9_13  and  O3_14 
REMARK    9  A    between atoms: C9_13  and  N2_16 
REMARK   10  A    between atoms: C22_33  and  C23_35 
ROOT
HETATM    1  C6  UNL     1       6.247  62.291   1.062  1.00  0.00     0.044 C 
HETATM    2  C7  UNL     1       7.515  62.938   1.529  1.00  0.00     0.037 C 
HETATM    3  C8  UNL     1       7.925  64.078   0.644  1.00  0.00     0.028 C 
HETATM    4  C15 UNL     1       6.817  65.057   0.345  1.00  0.00     0.029 C 
HETATM    5  C16 UNL     1       5.785  64.122  -0.315  1.00  0.00    -0.020 C 
HETATM    6  C17 UNL     1       4.779  64.861  -1.115  1.00  0.00     0.017 C 
HETATM    7  C18 UNL     1       5.174  63.375   0.876  1.00  0.00     0.030 C 
HETATM    8  C19 UNL     1       6.615  63.144  -1.064  1.00  0.00     0.046 C 
HETATM    9 CL1  UNL     1       6.253  63.070  -2.789  1.00  0.00    -0.118 Cl
HETATM   10  C20 UNL     1       6.359  61.804  -0.378  1.00  0.00     0.045 C 
HETATM   11  C21 UNL     1       8.060  63.474  -0.791  1.00  0.00     0.044 C 
ENDROOT
BRANCH   1  12
HETATM   12  C5  UNL     1       5.765  61.198   1.906  1.00  0.00     0.227 C 
HETATM   13  N1  UNL     1       5.594  59.864   1.495  1.00  0.00    -0.349 N 
ATOM     14  H1  UNL     1       5.812  59.622   0.528  1.00  0.00     0.163 HD
HETATM   15  O2  UNL     1       5.471  61.449   3.125  1.00  0.00    -0.273 OA
BRANCH  13  16
HETATM   16  C4  UNL     1       5.121  58.816   2.377  1.00  0.00     0.165 C 
BRANCH  16  17
HETATM   17  C3  UNL     1       3.868  58.139   1.905  1.00  0.00     0.059 C 
BRANCH  17  18
HETATM   18  C2  UNL     1       3.413  58.617   0.552  1.00  0.00     0.169 C 
BRANCH  18  19
HETATM   19  O1  UNL     1       2.774  59.827   0.564  1.00  0.00    -0.396 OA
HETATM   20  C1  UNL     1       2.780  60.476  -0.643  1.00  0.00     0.201 C 
ENDBRANCH  18  19
ENDBRANCH  17  18
ENDBRANCH  16  17
BRANCH  16  21
HETATM   21  C22 UNL     1       6.231  57.871   2.668  1.00  0.00     0.255 C 
HETATM   22  O5  UNL     1       6.160  56.748   2.148  1.00  0.00    -0.286 OA
BRANCH  21  23
HETATM   23  C23 UNL     1       7.374  58.238   3.534  1.00  0.00     0.453 C 
HETATM   24  F1  UNL     1       6.923  59.070   4.552  1.00  0.00    -0.163 F 
HETATM   25  F2  UNL     1       7.963  57.094   4.008  1.00  0.00    -0.163 F 
HETATM   26  F3  UNL     1       8.339  58.953   2.812  1.00  0.00    -0.163 F 
ENDBRANCH  21  23
ENDBRANCH  16  21
ENDBRANCH  13  16
ENDBRANCH   1  12
BRANCH   3  27
HETATM   27  C9  UNL     1       9.198  64.690   1.016  1.00  0.00     0.122 C 
BRANCH  27  28
HETATM   28  O3  UNL     1       9.266  65.973   0.766  1.00  0.00    -0.349 OA
ATOM     29  H3  UNL     1       8.421  66.405   0.725  1.00  0.00     0.219 HD
ENDBRANCH  27  28
BRANCH  27  30
HETATM   30  N2  UNL     1      10.343  64.164   1.579  1.00  0.00    -0.356 N 
HETATM   31  C10 UNL     1      10.609  64.259   2.979  1.00  0.00     0.127 C 
HETATM   32  C11 UNL     1      11.683  65.330   3.186  1.00  0.00     0.039 C 
HETATM   33  C12 UNL     1      13.021  64.648   3.139  1.00  0.00     0.124 C 
HETATM   34  N3  UNL     1      13.421  64.354   1.775  1.00  0.00    -0.360 N 
HETATM   35  C13 UNL     1      12.598  64.080   0.638  1.00  0.00     0.235 C 
ATOM     36  H3  UNL     1      14.427  64.342   1.604  1.00  0.00     0.162 HD
HETATM   37  O4  UNL     1      13.073  64.389  -0.479  1.00  0.00    -0.272 OA
HETATM   38  C14 UNL     1      11.264  63.477   0.641  1.00  0.00     0.227 C 
ENDBRANCH  27  30
ENDBRANCH   3  27
TORSDOF 10
ENDMDL
MODEL 3
REMARK VINA RESULT: -7.723664560      1.045      1.202
REMARK  10 active torsions:
REMARK  status: ('A' for Active; 'I' for Inactive)
REMARK    1  A    between atoms: O1_2  and  C2_3 
REMARK    2  A    between atoms: C2_3  and  C3_4 
REMARK    3  A    between atoms: C3_4  and  C4_5 
REMARK    4  A    between atoms: C4_5  and  N1_6 
REMARK    5  A    between atoms: C4_5  and  C22_33 
REMARK       I    between atoms: N1_6  and  C5_8 
REMARK    6  A    between atoms: C5_8  and  C6_10 
REMARK    7  A    between atoms: C8_12  and  C9_13 
REMARK    8  A    between atoms: C9_13  and  O3_14 
REMARK    9  A    between atoms: C9_13  and  N2_16 
REMARK   10  A    between atoms: C22_33  and  C23_35 
ROOT
HETATM    1  C6  UNL     1       7.523  62.610   2.122  1.00  0.00     0.044 C 
HETATM    2  C7  UNL     1       7.542  63.854   2.957  1.00  0.00     0.037 C 
HETATM    3  C8  UNL     1       8.364  64.942   2.331  1.00  0.00     0.028 C 
HETATM    4  C15 UNL     1       8.052  65.191   0.876  1.00  0.00     0.029 C 
HETATM    5  C16 UNL     1       8.342  63.798   0.283  1.00  0.00    -0.020 C 
HETATM    6  C17 UNL     1       8.554  63.839  -1.184  1.00  0.00     0.017 C 
HETATM    7  C18 UNL     1       7.111  62.980   0.688  1.00  0.00     0.030 C 
HETATM    8  C19 UNL     1       9.484  63.296   1.088  1.00  0.00     0.046 C 
HETATM    9 CL1  UNL     1      10.900  62.863   0.130  1.00  0.00    -0.118 Cl
HETATM   10  C20 UNL     1       8.930  62.093   1.848  1.00  0.00     0.045 C 
HETATM   11  C21 UNL     1       9.791  64.335   2.136  1.00  0.00     0.044 C 
ENDROOT
BRANCH   1  12
HETATM   12  C5  UNL     1       6.703  61.522   2.653  1.00  0.00     0.227 C 
HETATM   13  N1  UNL     1       6.220  60.428   1.914  1.00  0.00    -0.349 N 
ATOM     14  H1  UNL     1       6.445  60.377   0.920  1.00  0.00     0.163 HD
HETATM   15  O2  UNL     1       6.387  61.542   3.893  1.00  0.00    -0.273 OA
BRANCH  13  16
HETATM   16  C4  UNL     1       5.417  59.369   2.494  1.00  0.00     0.165 C 
BRANCH  16  17
HETATM   17  C3  UNL     1       4.126  59.116   1.772  1.00  0.00     0.059 C 
BRANCH  17  18
HETATM   18  C2  UNL     1       3.443  60.381   1.325  1.00  0.00     0.169 C 
BRANCH  18  19
HETATM   19  O1  UNL     1       3.220  61.288   2.325  1.00  0.00    -0.396 OA
HETATM   20  C1  UNL     1       3.201  62.592   1.903  1.00  0.00     0.201 C 
ENDBRANCH  18  19
ENDBRANCH  17  18
ENDBRANCH  16  17
BRANCH  16  21
HETATM   21  C22 UNL     1       6.250  58.149   2.664  1.00  0.00     0.255 C 
HETATM   22  O5  UNL     1       5.945  57.164   1.977  1.00  0.00    -0.286 OA
BRANCH  21  23
HETATM   23  C23 UNL     1       7.391  58.098   3.605  1.00  0.00     0.453 C 
HETATM   24  F1  UNL     1       8.500  58.687   3.009  1.00  0.00    -0.163 F 
HETATM   25  F2  UNL     1       7.032  58.712   4.778  1.00  0.00    -0.163 F 
HETATM   26  F3  UNL     1       7.735  56.772   3.901  1.00  0.00    -0.163 F 
ENDBRANCH  21  23
ENDBRANCH  16  21
ENDBRANCH  13  16
ENDBRANCH   1  12
BRANCH   3  27
HETATM   27  C9  UNL     1       8.474  66.146   3.148  1.00  0.00     0.122 C 
BRANCH  27  28
HETATM   28  O3  UNL     1       9.397  66.079   4.075  1.00  0.00    -0.349 OA
ATOM     29  H3  UNL     1       9.652  66.922   4.429  1.00  0.00     0.219 HD
ENDBRANCH  27  28
BRANCH  27  30
HETATM   30  N2  UNL     1       7.784  67.340   3.127  1.00  0.00    -0.356 N 
HETATM   31  C10 UNL     1       8.342  68.526   2.559  1.00  0.00     0.127 C 
HETATM   32  C11 UNL     1       8.766  69.447   3.706  1.00  0.00     0.039 C 
HETATM   33  C12 UNL     1       7.601  70.341   4.027  1.00  0.00     0.124 C 
HETATM   34  N3  UNL     1       6.597  69.644   4.811  1.00  0.00    -0.360 N 
HETATM   35  C13 UNL     1       6.270  68.252   4.818  1.00  0.00     0.235 C 
ATOM     36  H3  UNL     1       6.049  70.227   5.444  1.00  0.00     0.162 HD
HETATM   37  O4  UNL     1       5.807  67.795   5.888  1.00  0.00    -0.272 OA
HETATM   38  C14 UNL     1       6.420  67.305   3.711  1.00  0.00     0.227 C 
ENDBRANCH  27  30
ENDBRANCH   3  27
TORSDOF 10
ENDMDL
MODEL 4
REMARK VINA RESULT: -7.680195503      3.883      6.486
REMARK  10 active torsions:
REMARK  status: ('A' for Active; 'I' for Inactive)
REMARK    1  A    between atoms: O1_2  and  C2_3 
REMARK    2  A    between atoms: C2_3  and  C3_4 
REMARK    3  A    between atoms: C3_4  and  C4_5 
REMARK    4  A    between atoms: C4_5  and  N1_6 
REMARK    5  A    between atoms: C4_5  and  C22_33 
REMARK       I    between atoms: N1_6  and  C5_8 
REMARK    6  A    between atoms: C5_8  and  C6_10 
REMARK    7  A    between atoms: C8_12  and  C9_13 
REMARK    8  A    between atoms: C9_13  and  O3_14 
REMARK    9  A    between atoms: C9_13  and  N2_16 
REMARK   10  A    between atoms: C22_33  and  C23_35 
ROOT
HETATM    1  C6  UNL     1       6.371  62.235   3.475  1.00  0.00     0.044 C 
HETATM    2  C7  UNL     1       7.405  62.969   2.677  1.00  0.00     0.037 C 
HETATM    3  C8  UNL     1       7.992  62.115   1.592  1.00  0.00     0.028 C 
HETATM    4  C15 UNL     1       6.967  61.398   0.748  1.00  0.00     0.029 C 
HETATM    5  C16 UNL     1       6.232  60.581   1.829  1.00  0.00    -0.020 C 
HETATM    6  C17 UNL     1       5.467  59.447   1.261  1.00  0.00     0.017 C 
HETATM    7  C18 UNL     1       5.340  61.624   2.513  1.00  0.00     0.030 C 
HETATM    8  C19 UNL     1       7.301  60.221   2.795  1.00  0.00     0.046 C 
HETATM    9 CL1  UNL     1       7.470  58.486   3.061  1.00  0.00    -0.118 Cl
HETATM   10  C20 UNL     1       6.931  60.954   4.082  1.00  0.00     0.045 C 
HETATM   11  C21 UNL     1       8.579  60.859   2.313  1.00  0.00     0.044 C 
ENDROOT
BRANCH   1  12
HETATM   12  C5  UNL     1       5.726  63.025   4.524  1.00  0.00     0.227 C 
HETATM   13  N1  UNL     1       4.607  63.858   4.347  1.00  0.00    -0.349 N 
ATOM     14  H1  UNL     1       4.203  63.936   3.413  1.00  0.00     0.163 HD
HETATM   15  O2  UNL     1       6.198  62.967   5.712  1.00  0.00    -0.273 OA
BRANCH  13  16
HETATM   16  C4  UNL     1       4.000  64.612   5.425  1.00  0.00     0.165 C 
BRANCH  16  17
HETATM   17  C3  UNL     1       3.770  66.060   5.104  1.00  0.00     0.059 C 
BRANCH  17  18
HETATM   18  C2  UNL     1       4.927  66.940   5.494  1.00  0.00     0.169 C 
BRANCH  18  19
HETATM   19  O1  UNL     1       6.150  66.332   5.424  1.00  0.00    -0.396 OA
HETATM   20  C1  UNL     1       6.897  66.698   4.334  1.00  0.00     0.201 C 
ENDBRANCH  18  19
ENDBRANCH  17  18
ENDBRANCH  16  17
BRANCH  16  21
HETATM   21  C22 UNL     1       2.778  63.909   5.898  1.00  0.00     0.255 C 
HETATM   22  O5  UNL     1       2.081  63.357   5.035  1.00  0.00    -0.286 OA
BRANCH  21  23
HETATM   23  C23 UNL     1       2.399  63.861   7.328  1.00  0.00     0.453 C 
HETATM   24  F1  UNL     1       2.178  62.539   7.697  1.00  0.00    -0.163 F 
HETATM   25  F2  UNL     1       3.382  64.461   8.073  1.00  0.00    -0.163 F 
HETATM   26  F3  UNL     1       1.203  64.557   7.552  1.00  0.00    -0.163 F 
ENDBRANCH  21  23
ENDBRANCH  16  21
ENDBRANCH  13  16
ENDBRANCH   1  12
BRANCH   3  27
HETATM   27  C9  UNL     1       9.060  62.764   0.838  1.00  0.00     0.122 C 
BRANCH  27  28
HETATM   28  O3  UNL     1       8.760  63.000  -0.415  1.00  0.00    -0.349 OA
ATOM     29  H3  UNL     1       8.384  63.859  -0.567  1.00  0.00     0.219 HD
ENDBRANCH  27  28
BRANCH  27  30
HETATM   30  N2  UNL     1      10.327  63.171   1.200  1.00  0.00    -0.356 N 
HETATM   31  C10 UNL     1      10.604  63.730   2.485  1.00  0.00     0.127 C 
HETATM   32  C11 UNL     1      10.784  65.240   2.316  1.00  0.00     0.039 C 
HETATM   33  C12 UNL     1      12.244  65.499   2.067  1.00  0.00     0.124 C 
HETATM   34  N3  UNL     1      12.612  65.190   0.696  1.00  0.00    -0.360 N 
HETATM   35  C13 UNL     1      12.041  64.224  -0.190  1.00  0.00     0.235 C 
ATOM     36  H3  UNL     1      13.383  65.737   0.314  1.00  0.00     0.162 HD
HETATM   37  O4  UNL     1      12.112  64.482  -1.413  1.00  0.00    -0.272 OA
HETATM   38  C14 UNL     1      11.384  62.968   0.179  1.00  0.00     0.227 C 
ENDBRANCH  27  30
ENDBRANCH   3  27
TORSDOF 10
ENDMDL
MODEL 5
REMARK VINA RESULT: -7.594138206      2.775      4.532
REMARK  10 active torsions:
REMARK  status: ('A' for Active; 'I' for Inactive)
REMARK    1  A    between atoms: O1_2  and  C2_3 
REMARK    2  A    between atoms: C2_3  and  C3_4 
REMARK    3  A    between atoms: C3_4  and  C4_5 
REMARK    4  A    between atoms: C4_5  and  N1_6 
REMARK    5  A    between atoms: C4_5  and  C22_33 
REMARK       I    between atoms: N1_6  and  C5_8 
REMARK    6  A    between atoms: C5_8  and  C6_10 
REMARK    7  A    between atoms: C8_12  and  C9_13 
REMARK    8  A    between atoms: C9_13  and  O3_14 
REMARK    9  A    between atoms: C9_13  and  N2_16 
REMARK   10  A    between atoms: C22_33  and  C23_35 
ROOT
HETATM    1  C6  UNL     1       6.538  64.291   3.209  1.00  0.00     0.044 C 
HETATM    2  C7  UNL     1       8.006  64.281   2.906  1.00  0.00     0.037 C 
HETATM    3  C8  UNL     1       8.560  65.667   2.757  1.00  0.00     0.028 C 
HETATM    4  C15 UNL     1       8.175  66.610   3.870  1.00  0.00     0.029 C 
HETATM    5  C16 UNL     1       6.638  66.560   3.763  1.00  0.00    -0.020 C 
HETATM    6  C17 UNL     1       5.985  67.714   4.427  1.00  0.00     0.017 C 
HETATM    7  C18 UNL     1       6.284  65.217   4.410  1.00  0.00     0.030 C 
HETATM    8  C19 UNL     1       6.384  66.423   2.306  1.00  0.00     0.046 C 
HETATM    9 CL1  UNL     1       5.360  67.693   1.636  1.00  0.00    -0.118 Cl
HETATM   10  C20 UNL     1       5.747  65.045   2.146  1.00  0.00     0.045 C 
HETATM   11  C21 UNL     1       7.723  66.338   1.620  1.00  0.00     0.044 C 
ENDROOT
BRANCH   1  12
HETATM   12  C5  UNL     1       5.940  62.972   3.411  1.00  0.00     0.227 C 
HETATM   13  N1  UNL     1       5.855  61.957   2.442  1.00  0.00    -0.349 N 
ATOM     14  H1  UNL     1       6.231  62.141   1.512  1.00  0.00     0.163 HD
HETATM   15  O2  UNL     1       5.449  62.692   4.559  1.00  0.00    -0.273 OA
BRANCH  13  16
HETATM   16  C4  UNL     1       5.260  60.661   2.700  1.00  0.00     0.165 C 
BRANCH  16  17
HETATM   17  C3  UNL     1       3.937  60.451   2.023  1.00  0.00     0.059 C 
BRANCH  17  18
HETATM   18  C2  UNL     1       3.658  61.466   0.947  1.00  0.00     0.169 C 
BRANCH  18  19
HETATM   19  O1  UNL     1       4.493  61.388  -0.135  1.00  0.00    -0.396 OA
HETATM   20  C1  UNL     1       4.159  60.405  -1.030  1.00  0.00     0.201 C 
ENDBRANCH  18  19
ENDBRANCH  17  18
ENDBRANCH  16  17
BRANCH  16  21
HETATM   21  C22 UNL     1       6.251  59.591   2.410  1.00  0.00     0.255 C 
HETATM   22  O5  UNL     1       5.934  58.752   1.555  1.00  0.00    -0.286 OA
BRANCH  21  23
HETATM   23  C23 UNL     1       7.557  59.517   3.102  1.00  0.00     0.453 C 
HETATM   24  F1  UNL     1       8.538  60.061   2.280  1.00  0.00    -0.163 F 
HETATM   25  F2  UNL     1       7.463  60.160   4.309  1.00  0.00    -0.163 F 
HETATM   26  F3  UNL     1       7.917  58.185   3.350  1.00  0.00    -0.163 F 
ENDBRANCH  21  23
ENDBRANCH  16  21
ENDBRANCH  13  16
ENDBRANCH   1  12
BRANCH   3  27
HETATM   27  C9  UNL     1       9.971  65.705   2.384  1.00  0.00     0.122 C 
BRANCH  27  28
HETATM   28  O3  UNL     1      10.281  66.681   1.569  1.00  0.00    -0.349 OA
ATOM     29  H3  UNL     1      10.228  67.545   1.962  1.00  0.00     0.219 HD
ENDBRANCH  27  28
BRANCH  27  30
HETATM   30  N2  UNL     1      11.036  64.898   2.728  1.00  0.00    -0.356 N 
HETATM   31  C10 UNL     1      11.722  65.041   3.972  1.00  0.00     0.127 C 
HETATM   32  C11 UNL     1      13.063  65.726   3.699  1.00  0.00     0.039 C 
HETATM   33  C12 UNL     1      14.080  64.649   3.445  1.00  0.00     0.124 C 
HETATM   34  N3  UNL     1      13.958  64.108   2.103  1.00  0.00    -0.360 N 
HETATM   35  C13 UNL     1      12.792  64.001   1.282  1.00  0.00     0.235 C 
ATOM     36  H3  UNL     1      14.822  63.756   1.690  1.00  0.00     0.162 HD
HETATM   37  O4  UNL     1      12.981  64.029   0.044  1.00  0.00    -0.272 OA
HETATM   38  C14 UNL     1      11.406  63.862   1.732  1.00  0.00     0.227 C 
ENDBRANCH  27  30
ENDBRANCH   3  27
TORSDOF 10
ENDMDL
