MODEL 1
REMARK VINA RESULT: -7.736906544      0.000      0.000
REMARK  9 active torsions:
REMARK  status: ('A' for Active; 'I' for Inactive)
REMARK    1  A    between atoms: O1_2  and  C2_3 
REMARK    2  A    between atoms: C2_3  and  C4_6 
REMARK    3  A    between atoms: C5_7  and  C6_8 
REMARK       I    between atoms: C6_8  and  N1_10 
REMARK    4  A    between atoms: N3_24  and  C17_25 
REMARK    5  A    between atoms: C17_25  and  C18_26 
REMARK       I    between atoms: C18_26  and  N4_28 
REMARK    6  A    between atoms: N4_28  and  C19_30 
REMARK    7  A    between atoms: C19_30  and  C20_31 
REMARK       I    between atoms: C20_31  and  N5_33 
REMARK    8  A    between atoms: N5_33  and  C21_35 
REMARK    9  A    between atoms: C21_35  and  C22_36 
ROOT
HETATM    1  C4  UNL     1       7.619  64.260   1.337  1.00  0.00     0.308 C 
HETATM    2  C5  UNL     1       6.964  63.093   2.042  1.00  0.00     0.162 C 
HETATM    3  C13 UNL     1       8.050  62.165   2.560  1.00  0.00    -0.003 C 
HETATM    4  N2  UNL     1       8.133  61.737   3.733  1.00  0.00    -0.405 N 
ATOM      5  H21 UNL     1       8.862  61.114   4.081  1.00  0.00     0.155 HD
ATOM      6  H22 UNL     1       7.432  62.011   4.422  1.00  0.00     0.155 HD
HETATM    7  C14 UNL     1       9.061  61.770   1.566  1.00  0.00     0.088 C 
HETATM    8  C15 UNL     1       9.509  62.967   0.786  1.00  0.00     0.225 C 
HETATM    9  C16 UNL     1      11.031  62.919   0.797  1.00  0.00     0.043 C 
HETATM   10  N3  UNL     1       9.020  64.173   1.426  1.00  0.00     0.113 N 
ENDROOT
BRANCH  10  11
HETATM   11  C17 UNL     1       9.830  65.280   1.098  1.00  0.00     0.375 C 
BRANCH  11  12
HETATM   12  C18 UNL     1      10.437  66.047   2.183  1.00  0.00     0.246 C 
HETATM   13  O3  UNL     1      10.514  67.307   2.252  1.00  0.00    -0.272 OA
HETATM   14  N4  UNL     1      10.997  65.322   3.268  1.00  0.00    -0.351 N 
ATOM     15  H4  UNL     1      10.950  64.304   3.243  1.00  0.00     0.163 HD
BRANCH  14  16
HETATM   16  C19 UNL     1      11.631  65.952   4.411  1.00  0.00     0.225 C 
BRANCH  16  17
HETATM   17  C20 UNL     1      13.068  65.596   4.487  1.00  0.00     0.235 C 
HETATM   18  O4  UNL     1      13.779  65.547   3.426  1.00  0.00    -0.272 OA
HETATM   19  N5  UNL     1      13.726  65.295   5.702  1.00  0.00    -0.351 N 
ATOM     20  H5  UNL     1      13.187  65.326   6.566  1.00  0.00     0.162 HD
BRANCH  19  21
HETATM   21  C21 UNL     1      15.120  64.947   5.779  1.00  0.00     0.240 C 
BRANCH  21  22
HETATM   22  C22 UNL     1      15.363  63.995   6.929  1.00  0.00     0.403 C 
HETATM   23  F2  UNL     1      16.383  64.451   7.745  1.00  0.00    -0.169 F 
HETATM   24  F3  UNL     1      15.749  62.771   6.427  1.00  0.00    -0.169 F 
HETATM   25  F4  UNL     1      14.210  63.896   7.691  1.00  0.00    -0.169 F 
ENDBRANCH  21  22
ENDBRANCH  19  21
ENDBRANCH  16  17
ENDBRANCH  14  16
ENDBRANCH  11  12
ENDBRANCH  10  11
BRANCH   1  26
HETATM   26  C2  UNL     1       6.983  65.540   1.796  1.00  0.00     0.233 C 
HETATM   27  C3  UNL     1       7.188  65.656   3.339  1.00  0.00     0.087 C 
HETATM   28  F1  UNL     1       5.583  65.373   1.739  1.00  0.00    -0.210 F 
BRANCH  26  29
HETATM   29  O1  UNL     1       7.298  66.656   1.177  1.00  0.00    -0.355 OA
HETATM   30  C1  UNL     1       7.079  67.915   1.479  1.00  0.00     0.206 C 
ENDBRANCH  26  29
ENDBRANCH   1  26
BRANCH   2  31
HETATM   31  C6  UNL     1       6.170  62.258   1.108  1.00  0.00     0.232 C 
HETATM   32  O2  UNL     1       6.208  62.462  -0.122  1.00  0.00    -0.272 OA
HETATM   33  N1  UNL     1       5.361  61.216   1.598  1.00  0.00    -0.343 N 
HETATM   34  C7  UNL     1       5.132  60.837   2.977  1.00  0.00     0.127 C 
HETATM   35  C10 UNL     1       4.562  60.250   0.850  1.00  0.00     0.028 C 
HETATM   36  C8  UNL     1       5.486  59.347   2.916  1.00  0.00     0.022 C 
HETATM   37  C9  UNL     1       4.865  58.945   1.582  1.00  0.00     0.032 C 
HETATM   38  C11 UNL     1       3.097  60.514   0.896  1.00  0.00     0.038 C 
HETATM   39  C12 UNL     1       5.021  60.070  -0.560  1.00  0.00     0.038 C 
ENDBRANCH   2  31
TORSDOF 9
ENDMDL
MODEL 2
REMARK VINA RESULT: -7.714053245      1.998      3.340
REMARK  9 active torsions:
REMARK  status: ('A' for Active; 'I' for Inactive)
REMARK    1  A    between atoms: O1_2  and  C2_3 
REMARK    2  A    between atoms: C2_3  and  C4_6 
REMARK    3  A    between atoms: C5_7  and  C6_8 
REMARK       I    between atoms: C6_8  and  N1_10 
REMARK    4  A    between atoms: N3_24  and  C17_25 
REMARK    5  A    between atoms: C17_25  and  C18_26 
REMARK       I    between atoms: C18_26  and  N4_28 
REMARK    6  A    between atoms: N4_28  and  C19_30 
REMARK    7  A    between atoms: C19_30  and  C20_31 
REMARK       I    between atoms: C20_31  and  N5_33 
REMARK    8  A    between atoms: N5_33  and  C21_35 
REMARK    9  A    between atoms: C21_35  and  C22_36 
ROOT
HETATM    1  C4  UNL     1       9.733  64.254   1.999  1.00  0.00     0.308 C 
HETATM    2  C5  UNL     1       8.676  63.279   1.529  1.00  0.00     0.162 C 
HETATM    3  C13 UNL     1       7.406  64.052   1.214  1.00  0.00    -0.003 C 
HETATM    4  N2  UNL     1       6.757  63.965   0.148  1.00  0.00    -0.405 N 
ATOM      5  H21 UNL     1       5.905  64.484  -0.064  1.00  0.00     0.155 HD
ATOM      6  H22 UNL     1       7.074  63.333  -0.588  1.00  0.00     0.155 HD
HETATM    7  C14 UNL     1       6.949  64.963   2.275  1.00  0.00     0.088 C 
HETATM    8  C15 UNL     1       8.104  65.750   2.810  1.00  0.00     0.225 C 
HETATM    9  C16 UNL     1       7.643  67.202   2.822  1.00  0.00     0.043 C 
HETATM   10  N3  UNL     1       9.253  65.575   1.942  1.00  0.00     0.113 N 
ENDROOT
BRANCH  10  11
HETATM   11  C17 UNL     1      10.139  66.666   2.054  1.00  0.00     0.375 C 
BRANCH  11  12
HETATM   12  C18 UNL     1      10.797  66.902   3.337  1.00  0.00     0.246 C 
HETATM   13  O3  UNL     1      10.471  67.774   4.192  1.00  0.00    -0.272 OA
HETATM   14  N4  UNL     1      11.908  66.083   3.667  1.00  0.00    -0.351 N 
ATOM     15  H4  UNL     1      12.197  65.369   2.998  1.00  0.00     0.163 HD
BRANCH  14  16
HETATM   16  C19 UNL     1      12.656  66.206   4.904  1.00  0.00     0.225 C 
BRANCH  16  17
HETATM   17  C20 UNL     1      13.877  65.367   4.875  1.00  0.00     0.235 C 
HETATM   18  O4  UNL     1      14.152  64.660   3.847  1.00  0.00    -0.272 OA
HETATM   19  N5  UNL     1      14.791  65.295   5.952  1.00  0.00    -0.351 N 
ATOM     20  H5  UNL     1      14.601  65.849   6.787  1.00  0.00     0.162 HD
BRANCH  19  21
HETATM   21  C21 UNL     1      15.977  64.480   5.928  1.00  0.00     0.240 C 
BRANCH  21  22
HETATM   22  C22 UNL     1      15.920  63.434   7.020  1.00  0.00     0.403 C 
HETATM   23  F2  UNL     1      16.927  63.628   7.948  1.00  0.00    -0.169 F 
HETATM   24  F3  UNL     1      16.104  62.188   6.460  1.00  0.00    -0.169 F 
HETATM   25  F4  UNL     1      14.703  63.525   7.676  1.00  0.00    -0.169 F 
ENDBRANCH  21  22
ENDBRANCH  19  21
ENDBRANCH  16  17
ENDBRANCH  14  16
ENDBRANCH  11  12
ENDBRANCH  10  11
BRANCH   1  26
HETATM   26  C2  UNL     1      11.026  63.965   1.293  1.00  0.00     0.233 C 
HETATM   27  C3  UNL     1      10.820  62.695   0.408  1.00  0.00     0.087 C 
HETATM   28  F1  UNL     1      11.938  63.465   2.246  1.00  0.00    -0.210 F 
BRANCH  26  29
HETATM   29  O1  UNL     1      11.608  64.936   0.624  1.00  0.00    -0.355 OA
HETATM   30  C1  UNL     1      12.314  64.934  -0.483  1.00  0.00     0.206 C 
ENDBRANCH  26  29
ENDBRANCH   1  26
BRANCH   2  31
HETATM   31  C6  UNL     1       8.283  62.333   2.601  1.00  0.00     0.232 C 
HETATM   32  O2  UNL     1       8.670  62.498   3.775  1.00  0.00    -0.272 OA
HETATM   33  N1  UNL     1       7.459  61.230   2.309  1.00  0.00    -0.343 N 
HETATM   34  C7  UNL     1       6.937  60.822   1.021  1.00  0.00     0.127 C 
HETATM   35  C10 UNL     1       6.913  60.229   3.221  1.00  0.00     0.028 C 
HETATM   36  C8  UNL     1       5.442  60.731   1.344  1.00  0.00     0.022 C 
HETATM   37  C9  UNL     1       5.473  60.098   2.732  1.00  0.00     0.032 C 
HETATM   38  C11 UNL     1       7.585  58.903   3.137  1.00  0.00     0.038 C 
HETATM   39  C12 UNL     1       6.845  60.697   4.638  1.00  0.00     0.038 C 
ENDBRANCH   2  31
TORSDOF 9
ENDMDL
MODEL 3
REMARK VINA RESULT: -7.428462787      2.060      2.590
REMARK  9 active torsions:
REMARK  status: ('A' for Active; 'I' for Inactive)
REMARK    1  A    between atoms: O1_2  and  C2_3 
REMARK    2  A    between atoms: C2_3  and  C4_6 
REMARK    3  A    between atoms: C5_7  and  C6_8 
REMARK       I    between atoms: C6_8  and  N1_10 
REMARK    4  A    between atoms: N3_24  and  C17_25 
REMARK    5  A    between atoms: C17_25  and  C18_26 
REMARK       I    between atoms: C18_26  and  N4_28 
REMARK    6  A    between atoms: N4_28  and  C19_30 
REMARK    7  A    between atoms: C19_30  and  C20_31 
REMARK       I    between atoms: C20_31  and  N5_33 
REMARK    8  A    between atoms: N5_33  and  C21_35 
REMARK    9  A    between atoms: C21_35  and  C22_36 
ROOT
HETATM    1  C4  UNL     1       6.316  64.292   1.728  1.00  0.00     0.308 C 
HETATM    2  C5  UNL     1       6.494  62.929   2.359  1.00  0.00     0.162 C 
HETATM    3  C13 UNL     1       7.966  62.557   2.308  1.00  0.00    -0.003 C 
HETATM    4  N2  UNL     1       8.644  62.163   3.283  1.00  0.00    -0.405 N 
ATOM      5  H21 UNL     1       9.632  61.914   3.249  1.00  0.00     0.155 HD
ATOM      6  H22 UNL     1       8.205  62.071   4.200  1.00  0.00     0.155 HD
HETATM    7  C14 UNL     1       8.598  62.689   0.986  1.00  0.00     0.088 C 
HETATM    8  C15 UNL     1       8.207  63.990   0.357  1.00  0.00     0.225 C 
HETATM    9  C16 UNL     1       9.506  64.620  -0.128  1.00  0.00     0.043 C 
HETATM   10  N3  UNL     1       7.558  64.830   1.346  1.00  0.00     0.113 N 
ENDROOT
BRANCH  10  11
HETATM   11  C17 UNL     1       7.675  66.193   1.004  1.00  0.00     0.375 C 
BRANCH  11  12
HETATM   12  C18 UNL     1       8.431  67.073   1.890  1.00  0.00     0.246 C 
HETATM   13  O3  UNL     1       8.901  68.208   1.590  1.00  0.00    -0.272 OA
HETATM   14  N4  UNL     1       8.667  66.626   3.217  1.00  0.00    -0.351 N 
ATOM     15  H4  UNL     1       8.300  65.715   3.491  1.00  0.00     0.163 HD
BRANCH  14  16
HETATM   16  C19 UNL     1       9.402  67.395   4.203  1.00  0.00     0.225 C 
BRANCH  16  17
HETATM   17  C20 UNL     1      10.856  67.120   4.119  1.00  0.00     0.235 C 
HETATM   18  O4  UNL     1      11.633  67.930   3.507  1.00  0.00    -0.272 OA
HETATM   19  N5  UNL     1      11.462  65.977   4.690  1.00  0.00    -0.351 N 
ATOM     20  H5  UNL     1      10.869  65.311   5.186  1.00  0.00     0.162 HD
BRANCH  19  21
HETATM   21  C21 UNL     1      12.873  65.706   4.608  1.00  0.00     0.240 C 
BRANCH  21  22
HETATM   22  C22 UNL     1      13.177  64.861   3.392  1.00  0.00     0.403 C 
HETATM   23  F2  UNL     1      13.515  65.651   2.308  1.00  0.00    -0.169 F 
HETATM   24  F3  UNL     1      12.051  64.143   3.048  1.00  0.00    -0.169 F 
HETATM   25  F4  UNL     1      14.249  64.028   3.671  1.00  0.00    -0.169 F 
ENDBRANCH  21  22
ENDBRANCH  19  21
ENDBRANCH  16  17
ENDBRANCH  14  16
ENDBRANCH  11  12
ENDBRANCH  10  11
BRANCH   1  26
HETATM   26  C2  UNL     1       5.446  65.140   2.611  1.00  0.00     0.233 C 
HETATM   27  C3  UNL     1       4.129  64.351   2.894  1.00  0.00     0.087 C 
HETATM   28  F1  UNL     1       4.942  66.203   1.831  1.00  0.00    -0.210 F 
BRANCH  26  29
HETATM   29  O1  UNL     1       5.963  65.637   3.713  1.00  0.00    -0.355 OA
HETATM   30  C1  UNL     1       5.743  65.369   4.980  1.00  0.00     0.206 C 
ENDBRANCH  26  29
ENDBRANCH   1  26
BRANCH   2  31
HETATM   31  C6  UNL     1       5.810  61.867   1.582  1.00  0.00     0.232 C 
HETATM   32  O2  UNL     1       5.410  62.081   0.420  1.00  0.00    -0.272 OA
HETATM   33  N1  UNL     1       5.605  60.594   2.145  1.00  0.00    -0.343 N 
HETATM   34  C7  UNL     1       5.941  60.143   3.479  1.00  0.00     0.127 C 
HETATM   35  C10 UNL     1       5.018  59.406   1.530  1.00  0.00     0.028 C 
HETATM   36  C8  UNL     1       6.764  58.894   3.151  1.00  0.00     0.022 C 
HETATM   37  C9  UNL     1       5.963  58.302   1.995  1.00  0.00     0.032 C 
HETATM   38  C11 UNL     1       3.637  59.103   2.000  1.00  0.00     0.038 C 
HETATM   39  C12 UNL     1       5.075  59.424   0.038  1.00  0.00     0.038 C 
ENDBRANCH   2  31
TORSDOF 9
ENDMDL
MODEL 4
REMARK VINA RESULT: -7.379118963      2.913      3.727
REMARK  9 active torsions:
REMARK  status: ('A' for Active; 'I' for Inactive)
REMARK    1  A    between atoms: O1_2  and  C2_3 
REMARK    2  A    between atoms: C2_3  and  C4_6 
REMARK    3  A    between atoms: C5_7  and  C6_8 
REMARK       I    between atoms: C6_8  and  N1_10 
REMARK    4  A    between atoms: N3_24  and  C17_25 
REMARK    5  A    between atoms: C17_25  and  C18_26 
REMARK       I    between atoms: C18_26  and  N4_28 
REMARK    6  A    between atoms: N4_28  and  C19_30 
REMARK    7  A    between atoms: C19_30  and  C20_31 
REMARK       I    between atoms: C20_31  and  N5_33 
REMARK    8  A    between atoms: N5_33  and  C21_35 
REMARK    9  A    between atoms: C21_35  and  C22_36 
ROOT
HETATM    1  C4  UNL     1       6.849  64.588   2.317  1.00  0.00     0.308 C 
HETATM    2  C5  UNL     1       6.246  64.355   3.684  1.00  0.00     0.162 C 
HETATM    3  C13 UNL     1       6.585  62.944   4.132  1.00  0.00    -0.003 C 
HETATM    4  N2  UNL     1       7.093  62.641   5.235  1.00  0.00    -0.405 N 
ATOM      5  H21 UNL     1       7.321  61.693   5.535  1.00  0.00     0.155 HD
ATOM      6  H22 UNL     1       7.307  63.373   5.912  1.00  0.00     0.155 HD
HETATM    7  C14 UNL     1       6.276  61.887   3.156  1.00  0.00     0.088 C 
HETATM    8  C15 UNL     1       6.741  62.294   1.793  1.00  0.00     0.225 C 
HETATM    9  C16 UNL     1       7.521  61.103   1.251  1.00  0.00     0.043 C 
HETATM   10  N3  UNL     1       7.589  63.467   1.901  1.00  0.00     0.113 N 
ENDROOT
BRANCH  10  11
HETATM   11  C17 UNL     1       8.469  63.554   0.803  1.00  0.00     0.375 C 
BRANCH  11  12
HETATM   12  C18 UNL     1       9.905  63.463   1.050  1.00  0.00     0.246 C 
HETATM   13  O3  UNL     1      10.582  62.398   1.126  1.00  0.00    -0.272 OA
HETATM   14  N4  UNL     1      10.622  64.676   1.224  1.00  0.00    -0.351 N 
ATOM     15  H4  UNL     1      10.105  65.554   1.168  1.00  0.00     0.163 HD
BRANCH  14  16
HETATM   16  C19 UNL     1      12.049  64.736   1.476  1.00  0.00     0.225 C 
BRANCH  16  17
HETATM   17  C20 UNL     1      12.330  64.835   2.928  1.00  0.00     0.235 C 
HETATM   18  O4  UNL     1      11.433  64.523   3.783  1.00  0.00    -0.272 OA
HETATM   19  N5  UNL     1      13.572  65.269   3.447  1.00  0.00    -0.351 N 
ATOM     20  H5  UNL     1      14.310  65.524   2.790  1.00  0.00     0.162 HD
BRANCH  19  21
HETATM   21  C21 UNL     1      13.848  65.367   4.856  1.00  0.00     0.240 C 
BRANCH  21  22
HETATM   22  C22 UNL     1      15.047  64.519   5.219  1.00  0.00     0.403 C 
HETATM   23  F2  UNL     1      14.976  64.095   6.534  1.00  0.00    -0.169 F 
HETATM   24  F3  UNL     1      16.191  65.276   5.088  1.00  0.00    -0.169 F 
HETATM   25  F4  UNL     1      15.077  63.399   4.404  1.00  0.00    -0.169 F 
ENDBRANCH  21  22
ENDBRANCH  19  21
ENDBRANCH  16  17
ENDBRANCH  14  16
ENDBRANCH  11  12
ENDBRANCH  10  11
BRANCH   1  26
HETATM   26  C2  UNL     1       7.551  65.915   2.302  1.00  0.00     0.233 C 
HETATM   27  C3  UNL     1       6.492  67.027   2.583  1.00  0.00     0.087 C 
HETATM   28  F1  UNL     1       7.883  66.214   0.963  1.00  0.00    -0.210 F 
BRANCH  26  29
HETATM   29  O1  UNL     1       8.626  66.066   3.044  1.00  0.00    -0.355 OA
HETATM   30  C1  UNL     1       9.045  67.070   3.780  1.00  0.00     0.206 C 
ENDBRANCH  26  29
ENDBRANCH   1  26
BRANCH   2  31
HETATM   31  C6  UNL     1       4.763  64.392   3.648  1.00  0.00     0.232 C 
HETATM   32  O2  UNL     1       4.144  64.187   2.585  1.00  0.00    -0.272 OA
HETATM   33  N1  UNL     1       4.030  64.657   4.819  1.00  0.00    -0.343 N 
HETATM   34  C7  UNL     1       4.537  64.967   6.139  1.00  0.00     0.127 C 
HETATM   35  C10 UNL     1       2.582  64.674   5.006  1.00  0.00     0.028 C 
HETATM   36  C8  UNL     1       3.803  63.913   6.973  1.00  0.00     0.022 C 
HETATM   37  C9  UNL     1       2.419  63.932   6.331  1.00  0.00     0.032 C 
HETATM   38  C11 UNL     1       2.005  66.042   5.133  1.00  0.00     0.038 C 
HETATM   39  C12 UNL     1       1.844  63.884   3.976  1.00  0.00     0.038 C 
ENDBRANCH   2  31
TORSDOF 9
ENDMDL
MODEL 5
REMARK VINA RESULT: -7.295094250      1.943      3.374
REMARK  9 active torsions:
REMARK  status: ('A' for Active; 'I' for Inactive)
REMARK    1  A    between atoms: O1_2  and  C2_3 
REMARK    2  A    between atoms: C2_3  and  C4_6 
REMARK    3  A    between atoms: C5_7  and  C6_8 
REMARK       I    between atoms: C6_8  and  N1_10 
REMARK    4  A    between atoms: N3_24  and  C17_25 
REMARK    5  A    between atoms: C17_25  and  C18_26 
REMARK       I    between atoms: C18_26  and  N4_28 
REMARK    6  A    between atoms: N4_28  and  C19_30 
REMARK    7  A    between atoms: C19_30  and  C20_31 
REMARK       I    between atoms: C20_31  and  N5_33 
REMARK    8  A    between atoms: N5_33  and  C21_35 
REMARK    9  A    between atoms: C21_35  and  C22_36 
ROOT
HETATM    1  C4  UNL     1       7.038  62.948   2.357  1.00  0.00     0.308 C 
HETATM    2  C5  UNL     1       6.327  62.283   1.199  1.00  0.00     0.162 C 
HETATM    3  C13 UNL     1       5.781  63.361   0.279  1.00  0.00    -0.003 C 
HETATM    4  N2  UNL     1       5.960  63.410  -0.958  1.00  0.00    -0.405 N 
ATOM      5  H21 UNL     1       5.594  64.134  -1.577  1.00  0.00     0.155 HD
ATOM      6  H22 UNL     1       6.509  62.684  -1.419  1.00  0.00     0.155 HD
HETATM    7  C14 UNL     1       4.989  64.408   0.943  1.00  0.00     0.088 C 
HETATM    8  C15 UNL     1       5.685  64.869   2.186  1.00  0.00     0.225 C 
HETATM    9  C16 UNL     1       5.687  66.390   2.117  1.00  0.00     0.043 C 
HETATM   10  N3  UNL     1       7.039  64.346   2.204  1.00  0.00     0.113 N 
ENDROOT
BRANCH  10  11
HETATM   11  C17 UNL     1       7.879  65.155   2.997  1.00  0.00     0.375 C 
BRANCH  11  12
HETATM   12  C18 UNL     1       8.995  65.843   2.354  1.00  0.00     0.246 C 
HETATM   13  O3  UNL     1       8.912  66.660   1.393  1.00  0.00    -0.272 OA
HETATM   14  N4  UNL     1      10.301  65.581   2.844  1.00  0.00    -0.351 N 
ATOM     15  H4  UNL     1      10.403  64.927   3.620  1.00  0.00     0.163 HD
BRANCH  14  16
HETATM   16  C19 UNL     1      11.499  66.192   2.301  1.00  0.00     0.225 C 
BRANCH  16  17
HETATM   17  C20 UNL     1      12.665  65.285   2.426  1.00  0.00     0.235 C 
HETATM   18  O4  UNL     1      13.075  64.616   1.418  1.00  0.00    -0.272 OA
HETATM   19  N5  UNL     1      13.378  65.105   3.634  1.00  0.00    -0.351 N 
ATOM     20  H5  UNL     1      13.076  65.625   4.458  1.00  0.00     0.162 HD
BRANCH  19  21
HETATM   21  C21 UNL     1      14.509  64.224   3.760  1.00  0.00     0.240 C 
BRANCH  21  22
HETATM   22  C22 UNL     1      15.048  64.255   5.173  1.00  0.00     0.403 C 
HETATM   23  F2  UNL     1      15.555  63.022   5.539  1.00  0.00    -0.169 F 
HETATM   24  F3  UNL     1      14.020  64.557   6.041  1.00  0.00    -0.169 F 
HETATM   25  F4  UNL     1      16.072  65.186   5.250  1.00  0.00    -0.169 F 
ENDBRANCH  21  22
ENDBRANCH  19  21
ENDBRANCH  16  17
ENDBRANCH  14  16
ENDBRANCH  11  12
ENDBRANCH  10  11
BRANCH   1  26
HETATM   26  C2  UNL     1       8.367  62.283   2.574  1.00  0.00     0.233 C 
HETATM   27  C3  UNL     1       8.213  60.770   2.223  1.00  0.00     0.087 C 
HETATM   28  F1  UNL     1       8.588  62.200   3.965  1.00  0.00    -0.210 F 
BRANCH  26  29
HETATM   29  O1  UNL     1       9.432  62.809   2.010  1.00  0.00    -0.355 OA
HETATM   30  C1  UNL     1       9.930  62.690   0.801  1.00  0.00     0.206 C 
ENDBRANCH  26  29
ENDBRANCH   1  26
BRANCH   2  31
HETATM   31  C6  UNL     1       5.131  61.529   1.646  1.00  0.00     0.232 C 
HETATM   32  O2  UNL     1       4.548  61.823   2.709  1.00  0.00    -0.272 OA
HETATM   33  N1  UNL     1       4.630  60.466   0.871  1.00  0.00    -0.343 N 
HETATM   34  C7  UNL     1       5.169  59.928  -0.360  1.00  0.00     0.127 C 
HETATM   35  C10 UNL     1       3.441  59.650   1.099  1.00  0.00     0.028 C 
HETATM   36  C8  UNL     1       3.932  60.004  -1.261  1.00  0.00     0.022 C 
HETATM   37  C9  UNL     1       2.831  59.569  -0.298  1.00  0.00     0.032 C 
HETATM   38  C11 UNL     1       3.738  58.274   1.588  1.00  0.00     0.038 C 
HETATM   39  C12 UNL     1       2.428  60.313   1.973  1.00  0.00     0.038 C 
ENDBRANCH   2  31
TORSDOF 9
ENDMDL
