MODEL 1
REMARK VINA RESULT: -8.817200529      0.000      0.000
REMARK  7 active torsions:
REMARK  status: ('A' for Active; 'I' for Inactive)
REMARK    1  A    between atoms: O1_2  and  C2_3 
REMARK    2  A    between atoms: C4_5  and  S1_6 
REMARK    3  A    between atoms: S1_6  and  C5_8 
REMARK    4  A    between atoms: C7_10  and  N1_11 
REMARK    5  A    between atoms: N1_11  and  C8_13 
REMARK    6  A    between atoms: C13_23  and  N4_24 
REMARK    7  A    between atoms: C20_32  and  O4_33 
ROOT
HETATM    1  C5  UNL     1       9.656  64.597   1.516  1.00  0.00     0.047 A 
HETATM    2  C6  UNL     1      10.323  64.839   2.704  1.00  0.00     0.054 A 
HETATM    3  C7  UNL     1      10.326  66.072   3.311  1.00  0.00     0.065 A 
HETATM    4  C13 UNL     1       9.640  67.146   2.732  1.00  0.00     0.097 A 
HETATM    5  C16 UNL     1       8.983  66.892   1.553  1.00  0.00     0.152 A 
HETATM    6  F1  UNL     1       8.313  67.936   0.986  1.00  0.00    -0.203 F 
HETATM    7  C17 UNL     1       8.980  65.654   0.944  1.00  0.00    -0.001 A 
HETATM    8  C18 UNL     1       8.236  65.448  -0.350  1.00  0.00     0.053 C 
ENDROOT
BRANCH   1   9
HETATM    9  S1  UNL     1       9.696  63.024   0.811  1.00  0.00     0.086 S 
HETATM   10  O2  UNL     1      11.151  62.256   0.917  1.00  0.00    -0.247 OA
BRANCH   9  11
HETATM   11  C4  UNL     1       8.325  62.051   1.130  1.00  0.00     0.042 A 
HETATM   12  C3  UNL     1       8.302  61.216   2.224  1.00  0.00     0.059 A 
HETATM   13  C2  UNL     1       7.209  60.414   2.513  1.00  0.00     0.089 A 
HETATM   14  C22 UNL     1       6.114  60.447   1.687  1.00  0.00     0.077 A 
HETATM   15  C20 UNL     1       6.104  61.274   0.580  1.00  0.00     0.089 A 
HETATM   16 BR1  UNL     1       4.562  59.379   2.003  1.00  0.00    -0.045 Br
HETATM   17  C19 UNL     1       7.223  62.076   0.310  1.00  0.00     0.059 A 
BRANCH  13  18
HETATM   18  O1  UNL     1       7.167  59.571   3.604  1.00  0.00    -0.354 OA
HETATM   19  C1  UNL     1       7.520  58.195   3.536  1.00  0.00     0.210 C 
ENDBRANCH  13  18
BRANCH  15  20
HETATM   20  O4  UNL     1       5.002  61.312  -0.257  1.00  0.00    -0.354 OA
HETATM   21  C21 UNL     1       5.103  60.802  -1.572  1.00  0.00     0.210 C 
ENDBRANCH  15  20
ENDBRANCH   9  11
ENDBRANCH   1   9
BRANCH   3  22
HETATM   22  N1  UNL     1      11.001  66.350   4.531  1.00  0.00    -0.340 N 
ATOM     23  H1  UNL     1      10.536  66.949   5.213  1.00  0.00     0.167 HD
BRANCH  22  24
HETATM   24  C8  UNL     1      12.160  65.890   4.819  1.00  0.00     0.121 A 
HETATM   25  C9  UNL     1      12.919  65.291   3.862  1.00  0.00     0.062 A 
HETATM   26  C10 UNL     1      14.190  64.772   4.125  1.00  0.00     0.011 A 
HETATM   27  C11 UNL     1      15.017  64.118   3.079  1.00  0.00     0.054 C 
HETATM   28  C12 UNL     1      14.633  64.906   5.424  1.00  0.00     0.265 A 
HETATM   29  O3  UNL     1      15.768  64.460   5.728  1.00  0.00    -0.266 OA
HETATM   30  N2  UNL     1      13.863  65.506   6.363  1.00  0.00    -0.265 N 
HETATM   31  N3  UNL     1      12.649  65.989   6.067  1.00  0.00    -0.283 N 
ATOM     32  H2  UNL     1      14.215  65.592   7.317  1.00  0.00     0.190 HD
ATOM     33  H3  UNL     1      12.091  66.436   6.795  1.00  0.00     0.188 HD
ENDBRANCH  22  24
ENDBRANCH   3  22
BRANCH   4  34
HETATM   34  N4  UNL     1       9.642  68.423   3.357  1.00  0.00    -0.373 N 
HETATM   35  C14 UNL     1      10.144  69.831   3.455  1.00  0.00     0.143 A 
HETATM   36  C15 UNL     1       9.164  69.383   4.393  1.00  0.00     0.143 A 
ENDBRANCH   4  34
TORSDOF 7
ENDMDL
MODEL 2
REMARK VINA RESULT: -8.781544868      0.048      2.096
REMARK  7 active torsions:
REMARK  status: ('A' for Active; 'I' for Inactive)
REMARK    1  A    between atoms: O1_2  and  C2_3 
REMARK    2  A    between atoms: C4_5  and  S1_6 
REMARK    3  A    between atoms: S1_6  and  C5_8 
REMARK    4  A    between atoms: C7_10  and  N1_11 
REMARK    5  A    between atoms: N1_11  and  C8_13 
REMARK    6  A    between atoms: C13_23  and  N4_24 
REMARK    7  A    between atoms: C20_32  and  O4_33 
ROOT
HETATM    1  C5  UNL     1       9.654  64.607   1.519  1.00  0.00     0.047 A 
HETATM    2  C6  UNL     1      10.313  64.840   2.713  1.00  0.00     0.054 A 
HETATM    3  C7  UNL     1      10.322  66.071   3.324  1.00  0.00     0.065 A 
HETATM    4  C13 UNL     1       9.649  67.153   2.742  1.00  0.00     0.097 A 
HETATM    5  C16 UNL     1       9.000  66.908   1.557  1.00  0.00     0.152 A 
HETATM    6  F1  UNL     1       8.344  67.960   0.988  1.00  0.00    -0.203 F 
HETATM    7  C17 UNL     1       8.992  65.672   0.945  1.00  0.00    -0.001 A 
HETATM    8  C18 UNL     1       8.257  65.476  -0.356  1.00  0.00     0.053 C 
ENDROOT
BRANCH   1   9
HETATM    9  S1  UNL     1       9.686  63.036   0.811  1.00  0.00     0.086 S 
HETATM   10  O2  UNL     1      11.140  62.264   0.905  1.00  0.00    -0.247 OA
BRANCH   9  11
HETATM   11  C4  UNL     1       8.315  62.065   1.136  1.00  0.00     0.042 A 
HETATM   12  C3  UNL     1       7.224  62.096   0.297  1.00  0.00     0.059 A 
HETATM   13  C2  UNL     1       6.098  61.324   0.529  1.00  0.00     0.089 A 
HETATM   14  C22 UNL     1       6.060  60.501   1.627  1.00  0.00     0.077 A 
HETATM   15  C20 UNL     1       7.138  60.446   2.490  1.00  0.00     0.089 A 
HETATM   16 BR1  UNL     1       4.551  59.401   2.030  1.00  0.00    -0.045 Br
HETATM   17  C19 UNL     1       8.267  61.238   2.232  1.00  0.00     0.059 A 
BRANCH  13  18
HETATM   18  O1  UNL     1       4.995  61.341  -0.300  1.00  0.00    -0.354 OA
HETATM   19  C1  UNL     1       4.986  60.749  -1.593  1.00  0.00     0.210 C 
ENDBRANCH  13  18
BRANCH  15  20
HETATM   20  O4  UNL     1       7.106  59.619   3.600  1.00  0.00    -0.354 OA
HETATM   21  C21 UNL     1       7.547  58.280   3.487  1.00  0.00     0.210 C 
ENDBRANCH  15  20
ENDBRANCH   9  11
ENDBRANCH   1   9
BRANCH   3  22
HETATM   22  N1  UNL     1      10.988  66.341   4.550  1.00  0.00    -0.340 N 
ATOM     23  H1  UNL     1      10.515  66.927   5.238  1.00  0.00     0.167 HD
BRANCH  22  24
HETATM   24  C8  UNL     1      12.150  65.886   4.838  1.00  0.00     0.121 A 
HETATM   25  C9  UNL     1      12.905  65.276   3.885  1.00  0.00     0.062 A 
HETATM   26  C10 UNL     1      14.178  64.762   4.149  1.00  0.00     0.011 A 
HETATM   27  C11 UNL     1      15.000  64.096   3.107  1.00  0.00     0.054 C 
HETATM   28  C12 UNL     1      14.627  64.914   5.444  1.00  0.00     0.265 A 
HETATM   29  O3  UNL     1      15.765  64.474   5.748  1.00  0.00    -0.266 OA
HETATM   30  N2  UNL     1      13.861  65.525   6.379  1.00  0.00    -0.265 N 
HETATM   31  N3  UNL     1      12.644  66.002   6.083  1.00  0.00    -0.283 N 
ATOM     32  H2  UNL     1      14.218  65.624   7.329  1.00  0.00     0.190 HD
ATOM     33  H3  UNL     1      12.089  66.458   6.807  1.00  0.00     0.188 HD
ENDBRANCH  22  24
ENDBRANCH   3  22
BRANCH   4  34
HETATM   34  N4  UNL     1       9.657  68.428   3.370  1.00  0.00    -0.373 N 
HETATM   35  C14 UNL     1      10.174  69.830   3.479  1.00  0.00     0.143 A 
HETATM   36  C15 UNL     1       9.177  69.391   4.404  1.00  0.00     0.143 A 
ENDBRANCH   4  34
TORSDOF 7
ENDMDL
MODEL 3
REMARK VINA RESULT: -8.645588277      0.791      1.142
REMARK  7 active torsions:
REMARK  status: ('A' for Active; 'I' for Inactive)
REMARK    1  A    between atoms: O1_2  and  C2_3 
REMARK    2  A    between atoms: C4_5  and  S1_6 
REMARK    3  A    between atoms: S1_6  and  C5_8 
REMARK    4  A    between atoms: C7_10  and  N1_11 
REMARK    5  A    between atoms: N1_11  and  C8_13 
REMARK    6  A    between atoms: C13_23  and  N4_24 
REMARK    7  A    between atoms: C20_32  and  O4_33 
ROOT
HETATM    1  C5  UNL     1       9.556  64.548   1.465  1.00  0.00     0.047 A 
HETATM    2  C6  UNL     1      10.304  64.803   2.601  1.00  0.00     0.054 A 
HETATM    3  C7  UNL     1      10.322  66.032   3.214  1.00  0.00     0.065 A 
HETATM    4  C13 UNL     1       9.566  67.091   2.695  1.00  0.00     0.097 A 
HETATM    5  C16 UNL     1       8.828  66.825   1.567  1.00  0.00     0.152 A 
HETATM    6  F1  UNL     1       8.091  67.853   1.059  1.00  0.00    -0.203 F 
HETATM    7  C17 UNL     1       8.811  65.590   0.953  1.00  0.00    -0.001 A 
HETATM    8  C18 UNL     1       7.977  65.370  -0.283  1.00  0.00     0.053 C 
ENDROOT
BRANCH   1   9
HETATM    9  S1  UNL     1       9.583  62.980   0.750  1.00  0.00     0.086 S 
HETATM   10  O2  UNL     1      11.041  62.214   0.818  1.00  0.00    -0.247 OA
BRANCH   9  11
HETATM   11  C4  UNL     1       8.221  62.002   1.093  1.00  0.00     0.042 A 
HETATM   12  C3  UNL     1       8.214  61.177   2.194  1.00  0.00     0.059 A 
HETATM   13  C2  UNL     1       7.130  60.372   2.502  1.00  0.00     0.089 A 
HETATM   14  C22 UNL     1       6.025  60.392   1.688  1.00  0.00     0.077 A 
HETATM   15  C20 UNL     1       5.998  61.208   0.574  1.00  0.00     0.089 A 
HETATM   16 BR1  UNL     1       4.482  59.318   2.031  1.00  0.00    -0.045 Br
HETATM   17  C19 UNL     1       7.110  62.014   0.284  1.00  0.00     0.059 A 
BRANCH  13  18
HETATM   18  O1  UNL     1       7.104  59.539   3.601  1.00  0.00    -0.354 OA
HETATM   19  C1  UNL     1       7.520  58.179   3.554  1.00  0.00     0.210 C 
ENDBRANCH  13  18
BRANCH  15  20
HETATM   20  O4  UNL     1       4.887  61.233  -0.252  1.00  0.00    -0.354 OA
HETATM   21  C21 UNL     1       4.978  60.717  -1.565  1.00  0.00     0.210 C 
ENDBRANCH  15  20
ENDBRANCH   9  11
ENDBRANCH   1   9
BRANCH   3  22
HETATM   22  N1  UNL     1      11.079  66.323   4.381  1.00  0.00    -0.340 N 
ATOM     23  H1  UNL     1      10.650  66.902   5.103  1.00  0.00     0.167 HD
BRANCH  22  24
HETATM   24  C8  UNL     1      12.271  65.897   4.575  1.00  0.00     0.121 A 
HETATM   25  C9  UNL     1      12.697  65.597   5.832  1.00  0.00     0.062 A 
HETATM   26  C10 UNL     1      13.988  65.129   6.097  1.00  0.00     0.011 A 
HETATM   27  C11 UNL     1      14.450  64.803   7.469  1.00  0.00     0.054 C 
HETATM   28  C12 UNL     1      14.809  64.988   4.999  1.00  0.00     0.265 A 
HETATM   29  O3  UNL     1      15.983  64.571   5.167  1.00  0.00    -0.266 OA
HETATM   30  N2  UNL     1      14.366  65.291   3.755  1.00  0.00    -0.265 N 
HETATM   31  N3  UNL     1      13.120  65.738   3.546  1.00  0.00    -0.283 N 
ATOM     32  H2  UNL     1      14.995  65.177   2.960  1.00  0.00     0.190 HD
ATOM     33  H3  UNL     1      12.814  65.959   2.598  1.00  0.00     0.188 HD
ENDBRANCH  22  24
ENDBRANCH   3  22
BRANCH   4  34
HETATM   34  N4  UNL     1       9.583  68.364   3.326  1.00  0.00    -0.373 N 
HETATM   35  C14 UNL     1      10.168  69.733   3.495  1.00  0.00     0.143 A 
HETATM   36  C15 UNL     1       9.051  69.357   4.304  1.00  0.00     0.143 A 
ENDBRANCH   4  34
TORSDOF 7
ENDMDL
MODEL 4
REMARK VINA RESULT: -8.475200100      1.895      2.966
REMARK  7 active torsions:
REMARK  status: ('A' for Active; 'I' for Inactive)
REMARK    1  A    between atoms: O1_2  and  C2_3 
REMARK    2  A    between atoms: C4_5  and  S1_6 
REMARK    3  A    between atoms: S1_6  and  C5_8 
REMARK    4  A    between atoms: C7_10  and  N1_11 
REMARK    5  A    between atoms: N1_11  and  C8_13 
REMARK    6  A    between atoms: C13_23  and  N4_24 
REMARK    7  A    between atoms: C20_32  and  O4_33 
ROOT
HETATM    1  C5  UNL     1       7.997  64.871   0.532  1.00  0.00     0.047 A 
HETATM    2  C6  UNL     1       9.331  65.216   0.653  1.00  0.00     0.054 A 
HETATM    3  C7  UNL     1       9.758  66.246   1.455  1.00  0.00     0.065 A 
HETATM    4  C13 UNL     1       8.834  66.997   2.192  1.00  0.00     0.097 A 
HETATM    5  C16 UNL     1       7.514  66.644   2.064  1.00  0.00     0.152 A 
HETATM    6  F1  UNL     1       6.611  67.373   2.780  1.00  0.00    -0.203 F 
HETATM    7  C17 UNL     1       7.085  65.610   1.258  1.00  0.00    -0.001 A 
HETATM    8  C18 UNL     1       5.619  65.279   1.165  1.00  0.00     0.053 C 
ENDROOT
BRANCH   1   9
HETATM    9  S1  UNL     1       7.534  63.566  -0.495  1.00  0.00     0.086 S 
HETATM   10  O2  UNL     1       8.567  63.270  -1.745  1.00  0.00    -0.247 OA
BRANCH   9  11
HETATM   11  C4  UNL     1       6.943  62.179   0.315  1.00  0.00     0.042 A 
HETATM   12  C3  UNL     1       6.020  61.358  -0.292  1.00  0.00     0.059 A 
HETATM   13  C2  UNL     1       5.519  60.228   0.334  1.00  0.00     0.089 A 
HETATM   14  C22 UNL     1       5.951  59.912   1.598  1.00  0.00     0.077 A 
HETATM   15  C20 UNL     1       6.877  60.714   2.236  1.00  0.00     0.089 A 
HETATM   16 BR1  UNL     1       5.318  58.375   2.540  1.00  0.00    -0.045 Br
HETATM   17  C19 UNL     1       7.368  61.853   1.580  1.00  0.00     0.059 A 
BRANCH  13  18
HETATM   18  O1  UNL     1       4.594  59.394  -0.257  1.00  0.00    -0.354 OA
HETATM   19  C1  UNL     1       3.931  59.708  -1.476  1.00  0.00     0.210 C 
ENDBRANCH  13  18
BRANCH  15  20
HETATM   20  O4  UNL     1       7.317  60.401   3.511  1.00  0.00    -0.354 OA
HETATM   21  C21 UNL     1       7.154  61.337   4.558  1.00  0.00     0.210 C 
ENDBRANCH  15  20
ENDBRANCH   9  11
ENDBRANCH   1   9
BRANCH   3  22
HETATM   22  N1  UNL     1      11.121  66.623   1.600  1.00  0.00    -0.340 N 
ATOM     23  H1  UNL     1      11.427  67.501   1.180  1.00  0.00     0.167 HD
BRANCH  22  24
HETATM   24  C8  UNL     1      11.987  65.919   2.229  1.00  0.00     0.121 A 
HETATM   25  C9  UNL     1      12.240  66.157   3.545  1.00  0.00     0.062 A 
HETATM   26  C10 UNL     1      13.175  65.418   4.276  1.00  0.00     0.011 A 
HETATM   27  C11 UNL     1      13.450  65.679   5.712  1.00  0.00     0.054 C 
HETATM   28  C12 UNL     1      13.829  64.425   3.578  1.00  0.00     0.265 A 
HETATM   29  O3  UNL     1      14.683  63.723   4.177  1.00  0.00    -0.266 OA
HETATM   30  N2  UNL     1      13.563  64.203   2.269  1.00  0.00    -0.265 N 
HETATM   31  N3  UNL     1      12.659  64.937   1.605  1.00  0.00    -0.283 N 
ATOM     32  H2  UNL     1      14.062  63.462   1.777  1.00  0.00     0.190 HD
ATOM     33  H3  UNL     1      12.479  64.748   0.619  1.00  0.00     0.188 HD
ENDBRANCH  22  24
ENDBRANCH   3  22
BRANCH   4  34
HETATM   34  N4  UNL     1       9.273  68.064   3.023  1.00  0.00    -0.373 N 
HETATM   35  C14 UNL     1       9.739  69.476   3.202  1.00  0.00     0.143 A 
HETATM   36  C15 UNL     1       9.618  68.641   4.355  1.00  0.00     0.143 A 
ENDBRANCH   4  34
TORSDOF 7
ENDMDL
MODEL 5
REMARK VINA RESULT: -8.415711510      2.122      3.151
REMARK  7 active torsions:
REMARK  status: ('A' for Active; 'I' for Inactive)
REMARK    1  A    between atoms: O1_2  and  C2_3 
REMARK    2  A    between atoms: C4_5  and  S1_6 
REMARK    3  A    between atoms: S1_6  and  C5_8 
REMARK    4  A    between atoms: C7_10  and  N1_11 
REMARK    5  A    between atoms: N1_11  and  C8_13 
REMARK    6  A    between atoms: C13_23  and  N4_24 
REMARK    7  A    between atoms: C20_32  and  O4_33 
ROOT
HETATM    1  C5  UNL     1       8.363  63.700   2.774  1.00  0.00     0.047 A 
HETATM    2  C6  UNL     1       9.641  64.155   2.500  1.00  0.00     0.054 A 
HETATM    3  C7  UNL     1       9.974  65.488   2.535  1.00  0.00     0.065 A 
HETATM    4  C13 UNL     1       9.007  66.448   2.856  1.00  0.00     0.097 A 
HETATM    5  C16 UNL     1       7.744  65.984   3.125  1.00  0.00     0.152 A 
HETATM    6  F1  UNL     1       6.800  66.917   3.437  1.00  0.00    -0.203 F 
HETATM    7  C17 UNL     1       7.410  64.646   3.089  1.00  0.00    -0.001 A 
HETATM    8  C18 UNL     1       6.002  64.207   3.397  1.00  0.00     0.053 C 
ENDROOT
BRANCH   1   9
HETATM    9  S1  UNL     1       8.019  62.012   2.711  1.00  0.00     0.086 S 
HETATM   10  O2  UNL     1       7.675  61.321   4.167  1.00  0.00    -0.247 OA
BRANCH   9  11
HETATM   11  C4  UNL     1       7.020  61.523   1.410  1.00  0.00     0.042 A 
HETATM   12  C3  UNL     1       7.089  62.170   0.196  1.00  0.00     0.059 A 
HETATM   13  C2  UNL     1       6.296  61.801  -0.878  1.00  0.00     0.089 A 
HETATM   14  C22 UNL     1       5.410  60.762  -0.736  1.00  0.00     0.077 A 
HETATM   15  C20 UNL     1       5.315  60.092   0.469  1.00  0.00     0.089 A 
HETATM   16 BR1  UNL     1       4.276  60.183  -2.159  1.00  0.00    -0.045 Br
HETATM   17  C19 UNL     1       6.130  60.485   1.541  1.00  0.00     0.059 A 
BRANCH  13  18
HETATM   18  O1  UNL     1       6.351  62.436  -2.101  1.00  0.00    -0.354 OA
HETATM   19  C1  UNL     1       7.185  63.560  -2.355  1.00  0.00     0.210 C 
ENDBRANCH  13  18
BRANCH  15  20
HETATM   20  O4  UNL     1       4.424  59.043   0.619  1.00  0.00    -0.354 OA
HETATM   21  C21 UNL     1       4.594  58.127   1.682  1.00  0.00     0.210 C 
ENDBRANCH  15  20
ENDBRANCH   9  11
ENDBRANCH   1   9
BRANCH   3  22
HETATM   22  N1  UNL     1      11.277  65.984   2.260  1.00  0.00    -0.340 N 
ATOM     23  H1  UNL     1      11.395  66.618   1.470  1.00  0.00     0.167 HD
BRANCH  22  24
HETATM   24  C8  UNL     1      12.311  65.679   2.951  1.00  0.00     0.121 A 
HETATM   25  C9  UNL     1      12.315  65.864   4.299  1.00  0.00     0.062 A 
HETATM   26  C10 UNL     1      13.418  65.547   5.098  1.00  0.00     0.011 A 
HETATM   27  C11 UNL     1      13.421  65.750   6.569  1.00  0.00     0.054 C 
HETATM   28  C12 UNL     1      14.510  65.032   4.432  1.00  0.00     0.265 A 
HETATM   29  O3  UNL     1      15.535  64.726   5.092  1.00  0.00    -0.266 OA
HETATM   30  N2  UNL     1      14.486  64.855   3.089  1.00  0.00    -0.265 N 
HETATM   31  N3  UNL     1      13.407  65.173   2.361  1.00  0.00    -0.283 N 
ATOM     32  H2  UNL     1      15.308  64.471   2.622  1.00  0.00     0.190 HD
ATOM     33  H3  UNL     1      13.418  65.029   1.352  1.00  0.00     0.188 HD
ENDBRANCH  22  24
ENDBRANCH   3  22
BRANCH   4  34
HETATM   34  N4  UNL     1       9.348  67.828   2.892  1.00  0.00    -0.373 N 
HETATM   35  C14 UNL     1      10.046  68.987   3.535  1.00  0.00     0.143 A 
HETATM   36  C15 UNL     1       9.296  69.213   2.339  1.00  0.00     0.143 A 
ENDBRANCH   4  34
TORSDOF 7
ENDMDL
