MODEL 1
REMARK VINA RESULT: -7.151140596      0.000      0.000
REMARK  9 active torsions:
REMARK  status: ('A' for Active; 'I' for Inactive)
REMARK    1  A    between atoms: C2_2  and  O1_5 
REMARK    2  A    between atoms: O1_5  and  C5_6 
REMARK    3  A    between atoms: C5_6  and  O2_7 
REMARK    4  A    between atoms: C5_6  and  C6_9 
REMARK    5  A    between atoms: C9_19  and  C10_21 
REMARK    6  A    between atoms: C13_24  and  O4_25 
REMARK    7  A    between atoms: O4_25  and  C14_26 
REMARK    8  A    between atoms: C14_26  and  C15_27 
REMARK    9  A    between atoms: C15_27  and  C16_28 
ROOT
HETATM    1  C6  UNL     1      -5.447  11.040  20.699  1.00  0.00     0.180 C 
HETATM    2  C7  UNL     1      -6.198  11.795  19.605  1.00  0.00     0.337 C 
HETATM    3  F1  UNL     1      -7.262  11.105  19.097  1.00  0.00    -0.182 F 
HETATM    4  F2  UNL     1      -6.710  12.935  20.192  1.00  0.00    -0.182 F 
HETATM    5  N1  UNL     1      -5.372  12.176  18.491  1.00  0.00    -0.280 N 
ATOM      6  H1  UNL     1      -5.616  13.007  17.953  1.00  0.00     0.170 HD
HETATM    7  C8  UNL     1      -4.210  11.415  18.114  1.00  0.00     0.322 C 
HETATM    8  O3  UNL     1      -3.863  11.277  16.937  1.00  0.00    -0.247 OA
HETATM    9  N2  UNL     1      -3.535  10.853  19.252  1.00  0.00    -0.319 N 
ATOM     10  H2  UNL     1      -2.787  10.163  19.176  1.00  0.00     0.166 HD
HETATM   11  C9  UNL     1      -4.026  11.368  20.531  1.00  0.00     0.136 C 
HETATM   12 BR1  UNL     1      -4.023  13.336  20.248  1.00  0.00    -0.055 Br
ENDROOT
BRANCH  11  13
HETATM   13  C10 UNL     1      -3.077  11.106  21.612  1.00  0.00    -0.017 A 
HETATM   14  C11 UNL     1      -1.912  10.370  21.393  1.00  0.00     0.013 A 
HETATM   15  C12 UNL     1      -1.035  10.056  22.407  1.00  0.00     0.039 A 
HETATM   16  C13 UNL     1      -1.266  10.456  23.703  1.00  0.00     0.086 A 
HETATM   17  C17 UNL     1      -2.404  11.185  23.946  1.00  0.00     0.044 A 
HETATM   18 BR2  UNL     1      -2.789  11.784  25.693  1.00  0.00    -0.048 Br
HETATM   19  C18 UNL     1      -3.298  11.504  22.908  1.00  0.00     0.032 A 
BRANCH  16  20
HETATM   20  O4  UNL     1      -0.374  10.129  24.743  1.00  0.00    -0.350 OA
BRANCH  20  21
HETATM   21  C14 UNL     1      -0.409   8.838  25.315  1.00  0.00     0.178 C 
BRANCH  21  22
HETATM   22  C15 UNL     1      -0.479   8.870  26.809  1.00  0.00     0.058 C 
BRANCH  22  23
HETATM   23  C16 UNL     1      -1.830   8.392  27.316  1.00  0.00     0.224 C 
HETATM   24  F3  UNL     1      -1.712   7.534  28.391  1.00  0.00    -0.255 F 
ENDBRANCH  22  23
ENDBRANCH  21  22
ENDBRANCH  20  21
ENDBRANCH  16  20
ENDBRANCH  11  13
BRANCH   1  25
HETATM   25  C5  UNL     1      -5.830   9.560  20.643  1.00  0.00     0.273 C 
BRANCH  25  26
HETATM   26  O1  UNL     1      -5.473   9.088  19.459  1.00  0.00    -0.351 OA
BRANCH  26  27
HETATM   27  C2  UNL     1      -5.918   8.059  18.775  1.00  0.00     0.053 C 
HETATM   28  C1  UNL     1      -6.008   8.398  17.249  1.00  0.00     0.045 C 
HETATM   29  C3  UNL     1      -7.352   7.734  19.156  1.00  0.00     0.045 C 
HETATM   30  C4  UNL     1      -5.169   6.758  18.817  1.00  0.00     0.045 C 
ENDBRANCH  26  27
ENDBRANCH  25  26
BRANCH  25  31
HETATM   31  O2  UNL     1      -5.273   8.844  21.709  1.00  0.00    -0.370 OA
ATOM     32  H2  UNL     1      -4.699   9.372  22.252  1.00  0.00     0.212 HD
ENDBRANCH  25  31
ENDBRANCH   1  25
TORSDOF 9
ENDMDL
MODEL 2
REMARK VINA RESULT: -6.871099694      3.327      4.310
REMARK  9 active torsions:
REMARK  status: ('A' for Active; 'I' for Inactive)
REMARK    1  A    between atoms: C2_2  and  O1_5 
REMARK    2  A    between atoms: O1_5  and  C5_6 
REMARK    3  A    between atoms: C5_6  and  O2_7 
REMARK    4  A    between atoms: C5_6  and  C6_9 
REMARK    5  A    between atoms: C9_19  and  C10_21 
REMARK    6  A    between atoms: C13_24  and  O4_25 
REMARK    7  A    between atoms: O4_25  and  C14_26 
REMARK    8  A    between atoms: C14_26  and  C15_27 
REMARK    9  A    between atoms: C15_27  and  C16_28 
ROOT
HETATM    1  C6  UNL     1      -5.880  13.234  24.192  1.00  0.00     0.180 C 
HETATM    2  C7  UNL     1      -6.539  14.592  24.420  1.00  0.00     0.337 C 
HETATM    3  F1  UNL     1      -7.753  14.719  23.805  1.00  0.00    -0.182 F 
HETATM    4  F2  UNL     1      -6.770  14.696  25.777  1.00  0.00    -0.182 F 
HETATM    5  N1  UNL     1      -5.734  15.706  23.997  1.00  0.00    -0.280 N 
ATOM      6  H1  UNL     1      -5.844  16.604  24.467  1.00  0.00     0.170 HD
HETATM    7  C8  UNL     1      -4.777  15.588  22.929  1.00  0.00     0.322 C 
HETATM    8  O3  UNL     1      -4.548  16.511  22.140  1.00  0.00    -0.247 OA
HETATM    9  N2  UNL     1      -4.150  14.295  22.901  1.00  0.00    -0.319 N 
ATOM     10  H2  UNL     1      -3.563  13.974  22.131  1.00  0.00     0.166 HD
HETATM   11  C9  UNL     1      -4.438  13.484  24.085  1.00  0.00     0.136 C 
HETATM   12 BR1  UNL     1      -4.061  14.737  25.582  1.00  0.00    -0.055 Br
ENDROOT
BRANCH  11  13
HETATM   13  C10 UNL     1      -3.487  12.382  24.221  1.00  0.00    -0.017 A 
HETATM   14  C11 UNL     1      -3.210  11.810  25.464  1.00  0.00     0.013 A 
HETATM   15  C12 UNL     1      -2.272  10.816  25.628  1.00  0.00     0.039 A 
HETATM   16  C13 UNL     1      -1.552  10.329  24.562  1.00  0.00     0.086 A 
HETATM   17  C17 UNL     1      -1.806  10.872  23.326  1.00  0.00     0.044 A 
HETATM   18 BR2  UNL     1      -0.870  10.252  21.810  1.00  0.00    -0.048 Br
HETATM   19  C18 UNL     1      -2.764  11.888  23.162  1.00  0.00     0.032 A 
BRANCH  16  20
HETATM   20  O4  UNL     1      -0.586   9.317  24.729  1.00  0.00    -0.350 OA
BRANCH  20  21
HETATM   21  C14 UNL     1      -0.123   8.999  26.025  1.00  0.00     0.178 C 
BRANCH  21  22
HETATM   22  C15 UNL     1      -0.474   7.605  26.438  1.00  0.00     0.058 C 
BRANCH  22  23
HETATM   23  C16 UNL     1      -1.408   7.595  27.637  1.00  0.00     0.224 C 
HETATM   24  F3  UNL     1      -2.651   8.115  27.337  1.00  0.00    -0.255 F 
ENDBRANCH  22  23
ENDBRANCH  21  22
ENDBRANCH  20  21
ENDBRANCH  16  20
ENDBRANCH  11  13
BRANCH   1  25
HETATM   25  C5  UNL     1      -6.554  12.539  23.008  1.00  0.00     0.273 C 
BRANCH  25  26
HETATM   26  O1  UNL     1      -5.606  12.040  22.230  1.00  0.00    -0.351 OA
BRANCH  26  27
HETATM   27  C2  UNL     1      -5.665  11.536  21.019  1.00  0.00     0.053 C 
HETATM   28  C1  UNL     1      -5.199  10.042  21.010  1.00  0.00     0.045 C 
HETATM   29  C3  UNL     1      -4.676  12.227  20.096  1.00  0.00     0.045 C 
HETATM   30  C4  UNL     1      -6.975  11.516  20.285  1.00  0.00     0.045 C 
ENDBRANCH  26  27
ENDBRANCH  25  26
BRANCH  25  31
HETATM   31  O2  UNL     1      -7.476  11.576  23.433  1.00  0.00    -0.370 OA
ATOM     32  H2  UNL     1      -8.035  11.883  24.139  1.00  0.00     0.212 HD
ENDBRANCH  25  31
ENDBRANCH   1  25
TORSDOF 9
ENDMDL
MODEL 3
REMARK VINA RESULT: -6.780193090      3.324      6.894
REMARK  9 active torsions:
REMARK  status: ('A' for Active; 'I' for Inactive)
REMARK    1  A    between atoms: C2_2  and  O1_5 
REMARK    2  A    between atoms: O1_5  and  C5_6 
REMARK    3  A    between atoms: C5_6  and  O2_7 
REMARK    4  A    between atoms: C5_6  and  C6_9 
REMARK    5  A    between atoms: C9_19  and  C10_21 
REMARK    6  A    between atoms: C13_24  and  O4_25 
REMARK    7  A    between atoms: O4_25  and  C14_26 
REMARK    8  A    between atoms: C14_26  and  C15_27 
REMARK    9  A    between atoms: C15_27  and  C16_28 
ROOT
HETATM    1  C6  UNL     1      -4.184  12.570  22.848  1.00  0.00     0.180 C 
HETATM    2  C7  UNL     1      -4.398  13.970  23.419  1.00  0.00     0.337 C 
HETATM    3  F1  UNL     1      -3.808  14.159  24.637  1.00  0.00    -0.182 F 
HETATM    4  F2  UNL     1      -3.792  14.850  22.545  1.00  0.00    -0.182 F 
HETATM    5  N1  UNL     1      -5.782  14.334  23.561  1.00  0.00    -0.280 N 
ATOM      6  H1  UNL     1      -6.046  15.318  23.502  1.00  0.00     0.170 HD
HETATM    7  C8  UNL     1      -6.807  13.348  23.783  1.00  0.00     0.322 C 
HETATM    8  O3  UNL     1      -7.793  13.566  24.493  1.00  0.00    -0.247 OA
HETATM    9  N2  UNL     1      -6.533  12.115  23.095  1.00  0.00    -0.319 N 
ATOM     10  H2  UNL     1      -7.060  11.256  23.253  1.00  0.00     0.166 HD
HETATM   11  C9  UNL     1      -5.423  12.213  22.146  1.00  0.00     0.136 C 
HETATM   12 BR1  UNL     1      -5.870  13.850  21.110  1.00  0.00    -0.055 Br
ENDROOT
BRANCH  11  13
HETATM   13  C10 UNL     1      -5.436  11.106  21.193  1.00  0.00    -0.017 A 
HETATM   14  C11 UNL     1      -4.326  10.276  21.027  1.00  0.00     0.013 A 
HETATM   15  C12 UNL     1      -4.290   9.267  20.091  1.00  0.00     0.039 A 
HETATM   16  C13 UNL     1      -5.361   9.022  19.262  1.00  0.00     0.086 A 
HETATM   17  C17 UNL     1      -6.468   9.821  19.406  1.00  0.00     0.044 A 
HETATM   18 BR2  UNL     1      -7.983   9.543  18.318  1.00  0.00    -0.048 Br
HETATM   19  C18 UNL     1      -6.501  10.851  20.363  1.00  0.00     0.032 A 
BRANCH  16  20
HETATM   20  O4  UNL     1      -5.323   7.995  18.299  1.00  0.00    -0.350 OA
BRANCH  20  21
HETATM   21  C14 UNL     1      -5.250   6.646  18.716  1.00  0.00     0.178 C 
BRANCH  21  22
HETATM   22  C15 UNL     1      -6.552   5.924  18.566  1.00  0.00     0.058 C 
BRANCH  22  23
HETATM   23  C16 UNL     1      -6.428   4.737  17.626  1.00  0.00     0.224 C 
HETATM   24  F3  UNL     1      -6.448   3.532  18.299  1.00  0.00    -0.255 F 
ENDBRANCH  22  23
ENDBRANCH  21  22
ENDBRANCH  20  21
ENDBRANCH  16  20
ENDBRANCH  11  13
BRANCH   1  25
HETATM   25  C5  UNL     1      -3.726  11.635  23.967  1.00  0.00     0.273 C 
BRANCH  25  26
HETATM   26  O1  UNL     1      -2.431  11.832  24.163  1.00  0.00    -0.351 OA
BRANCH  26  27
HETATM   27  C2  UNL     1      -1.435  10.980  24.243  1.00  0.00     0.053 C 
HETATM   28  C1  UNL     1      -0.060  11.711  24.085  1.00  0.00     0.045 C 
HETATM   29  C3  UNL     1      -1.460  10.006  23.078  1.00  0.00     0.045 C 
HETATM   30  C4  UNL     1      -1.267  10.146  25.480  1.00  0.00     0.045 C 
ENDBRANCH  26  27
ENDBRANCH  25  26
BRANCH  25  31
HETATM   31  O2  UNL     1      -4.488  11.808  25.128  1.00  0.00    -0.370 OA
ATOM     32  H2  UNL     1      -4.153  11.316  25.870  1.00  0.00     0.212 HD
ENDBRANCH  25  31
ENDBRANCH   1  25
TORSDOF 9
ENDMDL
MODEL 4
REMARK VINA RESULT: -6.774455903      3.350      6.686
REMARK  9 active torsions:
REMARK  status: ('A' for Active; 'I' for Inactive)
REMARK    1  A    between atoms: C2_2  and  O1_5 
REMARK    2  A    between atoms: O1_5  and  C5_6 
REMARK    3  A    between atoms: C5_6  and  O2_7 
REMARK    4  A    between atoms: C5_6  and  C6_9 
REMARK    5  A    between atoms: C9_19  and  C10_21 
REMARK    6  A    between atoms: C13_24  and  O4_25 
REMARK    7  A    between atoms: O4_25  and  C14_26 
REMARK    8  A    between atoms: C14_26  and  C15_27 
REMARK    9  A    between atoms: C15_27  and  C16_28 
ROOT
HETATM    1  C6  UNL     1      -2.242  11.351  20.307  1.00  0.00     0.180 C 
HETATM    2  C7  UNL     1      -1.769  12.799  20.206  1.00  0.00     0.337 C 
HETATM    3  F1  UNL     1      -0.544  13.014  20.771  1.00  0.00    -0.182 F 
HETATM    4  F2  UNL     1      -1.638  13.079  18.860  1.00  0.00    -0.182 F 
HETATM    5  N1  UNL     1      -2.676  13.748  20.793  1.00  0.00    -0.280 N 
ATOM      6  H1  UNL     1      -2.707  14.699  20.424  1.00  0.00     0.170 HD
HETATM    7  C8  UNL     1      -3.543  13.393  21.886  1.00  0.00     0.322 C 
HETATM    8  O3  UNL     1      -3.833  14.188  22.785  1.00  0.00    -0.247 OA
HETATM    9  N2  UNL     1      -4.004  12.034  21.795  1.00  0.00    -0.319 N 
ATOM     10  H2  UNL     1      -4.498  11.559  22.550  1.00  0.00     0.166 HD
HETATM   11  C9  UNL     1      -3.695  11.400  20.513  1.00  0.00     0.136 C 
HETATM   12 BR1  UNL     1      -4.315  12.749  19.190  1.00  0.00    -0.055 Br
ENDROOT
BRANCH  11  13
HETATM   13  C10 UNL     1      -4.510  10.207  20.297  1.00  0.00    -0.017 A 
HETATM   14  C11 UNL     1      -4.123   9.216  19.393  1.00  0.00     0.013 A 
HETATM   15  C12 UNL     1      -4.905   8.114  19.125  1.00  0.00     0.039 A 
HETATM   16  C13 UNL     1      -6.121   7.933  19.741  1.00  0.00     0.086 A 
HETATM   17  C17 UNL     1      -6.525   8.891  20.638  1.00  0.00     0.044 A 
HETATM   18 BR2  UNL     1      -8.174   8.711  21.536  1.00  0.00    -0.048 Br
HETATM   19  C18 UNL     1      -5.725  10.016  20.909  1.00  0.00     0.032 A 
BRANCH  16  20
HETATM   20  O4  UNL     1      -6.925   6.810  19.462  1.00  0.00    -0.350 OA
BRANCH  20  21
HETATM   21  C14 UNL     1      -6.808   6.158  18.214  1.00  0.00     0.178 C 
BRANCH  21  22
HETATM   22  C15 UNL     1      -6.040   4.877  18.302  1.00  0.00     0.058 C 
BRANCH  22  23
HETATM   23  C16 UNL     1      -6.727   3.760  17.535  1.00  0.00     0.224 C 
HETATM   24  F3  UNL     1      -6.612   2.540  18.171  1.00  0.00    -0.255 F 
ENDBRANCH  22  23
ENDBRANCH  21  22
ENDBRANCH  20  21
ENDBRANCH  16  20
ENDBRANCH  11  13
BRANCH   1  25
HETATM   25  C5  UNL     1      -1.415  10.624  21.369  1.00  0.00     0.273 C 
BRANCH  25  26
HETATM   26  O1  UNL     1      -2.152  10.519  22.463  1.00  0.00    -0.351 OA
BRANCH  26  27
HETATM   27  C2  UNL     1      -1.820  10.578  23.732  1.00  0.00     0.053 C 
HETATM   28  C1  UNL     1      -3.087  10.745  24.636  1.00  0.00     0.045 C 
HETATM   29  C3  UNL     1      -1.005  11.826  24.022  1.00  0.00     0.045 C 
HETATM   30  C4  UNL     1      -1.071   9.437  24.359  1.00  0.00     0.045 C 
ENDBRANCH  26  27
ENDBRANCH  25  26
BRANCH  25  31
HETATM   31  O2  UNL     1      -0.949   9.390  20.902  1.00  0.00    -0.370 OA
ATOM     32  H2  UNL     1      -0.015   9.389  20.726  1.00  0.00     0.212 HD
ENDBRANCH  25  31
ENDBRANCH   1  25
TORSDOF 9
ENDMDL
MODEL 5
REMARK VINA RESULT: -6.719445517      3.459      6.768
REMARK  9 active torsions:
REMARK  status: ('A' for Active; 'I' for Inactive)
REMARK    1  A    between atoms: C2_2  and  O1_5 
REMARK    2  A    between atoms: O1_5  and  C5_6 
REMARK    3  A    between atoms: C5_6  and  O2_7 
REMARK    4  A    between atoms: C5_6  and  C6_9 
REMARK    5  A    between atoms: C9_19  and  C10_21 
REMARK    6  A    between atoms: C13_24  and  O4_25 
REMARK    7  A    between atoms: O4_25  and  C14_26 
REMARK    8  A    between atoms: C14_26  and  C15_27 
REMARK    9  A    between atoms: C15_27  and  C16_28 
ROOT
HETATM    1  C6  UNL     1      -2.768  10.907  22.758  1.00  0.00     0.180 C 
HETATM    2  C7  UNL     1      -1.334  11.258  23.144  1.00  0.00     0.337 C 
HETATM    3  F1  UNL     1      -1.248  12.116  24.205  1.00  0.00    -0.182 F 
HETATM    4  F2  UNL     1      -0.731  10.080  23.539  1.00  0.00    -0.182 F 
HETATM    5  N1  UNL     1      -0.568  11.835  22.073  1.00  0.00    -0.280 N 
ATOM      6  H1  UNL     1       0.443  11.704  22.058  1.00  0.00     0.170 HD
HETATM    7  C8  UNL     1      -1.191  12.593  21.019  1.00  0.00     0.322 C 
HETATM    8  O3  UNL     1      -0.644  13.567  20.493  1.00  0.00    -0.247 OA
HETATM    9  N2  UNL     1      -2.492  12.084  20.679  1.00  0.00    -0.319 N 
ATOM     10  H2  UNL     1      -3.144  12.576  20.069  1.00  0.00     0.166 HD
HETATM   11  C9  UNL     1      -2.789  10.790  21.295  1.00  0.00     0.136 C 
HETATM   12 BR1  UNL     1      -1.165   9.719  20.882  1.00  0.00    -0.055 Br
ENDROOT
BRANCH  11  13
HETATM   13  C10 UNL     1      -3.904  10.123  20.625  1.00  0.00    -0.017 A 
HETATM   14  C11 UNL     1      -4.716   9.211  21.300  1.00  0.00     0.013 A 
HETATM   15  C12 UNL     1      -5.732   8.522  20.675  1.00  0.00     0.039 A 
HETATM   16  C13 UNL     1      -6.000   8.700  19.338  1.00  0.00     0.086 A 
HETATM   17  C17 UNL     1      -5.217   9.595  18.650  1.00  0.00     0.044 A 
HETATM   18 BR2  UNL     1      -5.527   9.907  16.816  1.00  0.00    -0.048 Br
HETATM   19  C18 UNL     1      -4.180  10.296  19.291  1.00  0.00     0.032 A 
BRANCH  16  20
HETATM   20  O4  UNL     1      -7.033   7.991  18.695  1.00  0.00    -0.350 OA
BRANCH  20  21
HETATM   21  C14 UNL     1      -7.115   6.588  18.842  1.00  0.00     0.178 C 
BRANCH  21  22
HETATM   22  C15 UNL     1      -5.943   5.875  18.245  1.00  0.00     0.058 C 
BRANCH  22  23
HETATM   23  C16 UNL     1      -6.372   4.628  17.489  1.00  0.00     0.224 C 
HETATM   24  F3  UNL     1      -6.387   3.507  18.295  1.00  0.00    -0.255 F 
ENDBRANCH  22  23
ENDBRANCH  21  22
ENDBRANCH  20  21
ENDBRANCH  16  20
ENDBRANCH  11  13
BRANCH   1  25
HETATM   25  C5  UNL     1      -3.722  11.924  23.387  1.00  0.00     0.273 C 
BRANCH  25  26
HETATM   26  O1  UNL     1      -4.687  12.175  22.517  1.00  0.00    -0.351 OA
BRANCH  26  27
HETATM   27  C2  UNL     1      -5.410  13.254  22.324  1.00  0.00     0.053 C 
HETATM   28  C1  UNL     1      -5.939  13.317  20.852  1.00  0.00     0.045 C 
HETATM   29  C3  UNL     1      -4.560  14.506  22.454  1.00  0.00     0.045 C 
HETATM   30  C4  UNL     1      -6.633  13.491  23.163  1.00  0.00     0.045 C 
ENDBRANCH  26  27
ENDBRANCH  25  26
BRANCH  25  31
HETATM   31  O2  UNL     1      -4.203  11.481  24.625  1.00  0.00    -0.370 OA
ATOM     32  H2  UNL     1      -4.613  10.625  24.580  1.00  0.00     0.212 HD
ENDBRANCH  25  31
ENDBRANCH   1  25
TORSDOF 9
ENDMDL
