MODEL 1
REMARK VINA RESULT: -4.981774602      0.000      0.000
REMARK  4 active torsions:
REMARK  status: ('A' for Active; 'I' for Inactive)
REMARK    1  A    between atoms: C2_2  and  N1_5 
REMARK    2  A    between atoms: N1_5  and  C5_7 
REMARK    3  A    between atoms: C5_7  and  O1_10 
REMARK    4  A    between atoms: O1_10  and  C8_11 
ROOT
HETATM    1  C5  UNL     1      49.049 161.012  32.093  1.00  0.00     0.124 C 
HETATM    2  C6  UNL     1      48.215 159.909  32.784  1.00  0.00     0.070 C 
HETATM    3  C7  UNL     1      48.324 162.246  32.794  1.00  0.00     0.070 C 
ENDROOT
BRANCH   1   4
HETATM    4  N1  UNL     1      50.351 161.161  32.567  1.00  0.00    -0.385 N 
ATOM      5  H1  UNL     1      50.532 160.923  33.542  1.00  0.00     0.157 HD
BRANCH   4   6
HETATM    6  C2  UNL     1      51.419 161.613  31.802  1.00  0.00     0.017 C 
HETATM    7  C1  UNL     1      51.676 163.061  31.624  1.00  0.00     0.037 C 
HETATM    8  C3  UNL     1      51.521 160.924  30.423  1.00  0.00     0.037 C 
HETATM    9  C4  UNL     1      52.692 161.069  32.509  1.00  0.00     0.037 C 
ENDBRANCH   4   6
ENDBRANCH   1   4
BRANCH   1  10
HETATM   10  O1  UNL     1      48.814 160.971  30.819  1.00  0.00    -0.352 OA
BRANCH  10  11
HETATM   11  C8  UNL     1      47.874 160.440  30.081  1.00  0.00     0.053 C 
HETATM   12  C9  UNL     1      47.880 158.897  29.962  1.00  0.00     0.045 C 
HETATM   13  C10 UNL     1      46.443 160.900  30.201  1.00  0.00     0.045 C 
HETATM   14  C11 UNL     1      48.239 160.861  28.627  1.00  0.00     0.045 C 
ENDBRANCH  10  11
ENDBRANCH   1  10
TORSDOF 4
ENDMDL
MODEL 2
REMARK VINA RESULT: -4.908868288      0.195      1.182
REMARK  4 active torsions:
REMARK  status: ('A' for Active; 'I' for Inactive)
REMARK    1  A    between atoms: C2_2  and  N1_5 
REMARK    2  A    between atoms: N1_5  and  C5_7 
REMARK    3  A    between atoms: C5_7  and  O1_10 
REMARK    4  A    between atoms: O1_10  and  C8_11 
ROOT
HETATM    1  C5  UNL     1      49.109 161.111  32.071  1.00  0.00     0.124 C 
HETATM    2  C6  UNL     1      48.584 159.840  32.778  1.00  0.00     0.070 C 
HETATM    3  C7  UNL     1      48.140 162.137  32.812  1.00  0.00     0.070 C 
ENDROOT
BRANCH   1   4
HETATM    4  N1  UNL     1      50.355 161.561  32.502  1.00  0.00    -0.385 N 
ATOM      5  H1  UNL     1      50.419 161.956  33.441  1.00  0.00     0.157 HD
BRANCH   4   6
HETATM    6  C2  UNL     1      51.516 161.509  31.741  1.00  0.00     0.017 C 
HETATM    7  C1  UNL     1      51.531 160.860  30.410  1.00  0.00     0.037 C 
HETATM    8  C3  UNL     1      52.750 161.028  32.536  1.00  0.00     0.037 C 
HETATM    9  C4  UNL     1      51.893 162.992  31.462  1.00  0.00     0.037 C 
ENDBRANCH   4   6
ENDBRANCH   1   4
BRANCH   1  10
HETATM   10  O1  UNL     1      48.844 161.020  30.806  1.00  0.00    -0.352 OA
BRANCH  10  11
HETATM   11  C8  UNL     1      47.885 160.465  30.111  1.00  0.00     0.053 C 
HETATM   12  C9  UNL     1      47.896 158.919  30.036  1.00  0.00     0.045 C 
HETATM   13  C10 UNL     1      46.456 160.921  30.261  1.00  0.00     0.045 C 
HETATM   14  C11 UNL     1      48.204 160.846  28.636  1.00  0.00     0.045 C 
ENDBRANCH  10  11
ENDBRANCH   1  10
TORSDOF 4
ENDMDL
MODEL 3
REMARK VINA RESULT: -4.154695723      0.157      1.171
REMARK  4 active torsions:
REMARK  status: ('A' for Active; 'I' for Inactive)
REMARK    1  A    between atoms: C2_2  and  N1_5 
REMARK    2  A    between atoms: N1_5  and  C5_7 
REMARK    3  A    between atoms: C5_7  and  O1_10 
REMARK    4  A    between atoms: O1_10  and  C8_11 
ROOT
HETATM    1  C5  UNL     1      49.076 160.966  32.113  1.00  0.00     0.124 C 
HETATM    2  C6  UNL     1      48.132 159.952  32.798  1.00  0.00     0.070 C 
HETATM    3  C7  UNL     1      48.450 162.270  32.782  1.00  0.00     0.070 C 
ENDROOT
BRANCH   1   4
HETATM    4  N1  UNL     1      50.375 161.006  32.616  1.00  0.00    -0.385 N 
ATOM      5  H1  UNL     1      50.536 160.625  33.548  1.00  0.00     0.157 HD
BRANCH   4   6
HETATM    6  C2  UNL     1      51.466 161.530  31.933  1.00  0.00     0.017 C 
HETATM    7  C1  UNL     1      52.852 161.180  32.319  1.00  0.00     0.037 C 
HETATM    8  C3  UNL     1      51.385 163.059  31.728  1.00  0.00     0.037 C 
HETATM    9  C4  UNL     1      51.321 161.020  30.472  1.00  0.00     0.037 C 
ENDBRANCH   4   6
ENDBRANCH   1   4
BRANCH   1  10
HETATM   10  O1  UNL     1      48.867 160.929  30.834  1.00  0.00    -0.352 OA
BRANCH  10  11
HETATM   11  C8  UNL     1      47.920 160.435  30.079  1.00  0.00     0.053 C 
HETATM   12  C9  UNL     1      47.891 158.895  29.929  1.00  0.00     0.045 C 
HETATM   13  C10 UNL     1      46.500 160.926  30.197  1.00  0.00     0.045 C 
HETATM   14  C11 UNL     1      48.306 160.876  28.636  1.00  0.00     0.045 C 
ENDBRANCH  10  11
ENDBRANCH   1  10
TORSDOF 4
ENDMDL
MODEL 4
REMARK VINA RESULT: -4.008701629      9.768     12.155
REMARK  4 active torsions:
REMARK  status: ('A' for Active; 'I' for Inactive)
REMARK    1  A    between atoms: C2_2  and  N1_5 
REMARK    2  A    between atoms: N1_5  and  C5_7 
REMARK    3  A    between atoms: C5_7  and  O1_10 
REMARK    4  A    between atoms: O1_10  and  C8_11 
ROOT
HETATM    1  C5  UNL     1      58.560 162.340  36.684  1.00  0.00     0.124 C 
HETATM    2  C6  UNL     1      59.305 163.008  35.506  1.00  0.00     0.070 C 
HETATM    3  C7  UNL     1      57.237 161.977  35.873  1.00  0.00     0.070 C 
ENDROOT
BRANCH   1   4
HETATM    4  N1  UNL     1      59.016 161.070  37.034  1.00  0.00    -0.385 N 
ATOM      5  H1  UNL     1      59.546 160.547  36.338  1.00  0.00     0.157 HD
BRANCH   4   6
HETATM    6  C2  UNL     1      58.797 160.469  38.268  1.00  0.00     0.017 C 
HETATM    7  C1  UNL     1      57.640 160.848  39.111  1.00  0.00     0.037 C 
HETATM    8  C3  UNL     1      60.058 160.421  39.159  1.00  0.00     0.037 C 
HETATM    9  C4  UNL     1      58.585 158.960  37.959  1.00  0.00     0.037 C 
ENDBRANCH   4   6
ENDBRANCH   1   4
BRANCH   1  10
HETATM   10  O1  UNL     1      58.341 163.234  37.596  1.00  0.00    -0.352 OA
BRANCH  10  11
HETATM   11  C8  UNL     1      59.048 164.207  38.110  1.00  0.00     0.053 C 
HETATM   12  C9  UNL     1      60.517 163.876  38.466  1.00  0.00     0.045 C 
HETATM   13  C10 UNL     1      59.005 165.592  37.516  1.00  0.00     0.045 C 
HETATM   14  C11 UNL     1      58.432 164.430  39.522  1.00  0.00     0.045 C 
ENDBRANCH  10  11
ENDBRANCH   1  10
TORSDOF 4
ENDMDL
MODEL 5
REMARK VINA RESULT: -3.986840422      0.956      4.323
REMARK  4 active torsions:
REMARK  status: ('A' for Active; 'I' for Inactive)
REMARK    1  A    between atoms: C2_2  and  N1_5 
REMARK    2  A    between atoms: N1_5  and  C5_7 
REMARK    3  A    between atoms: C5_7  and  O1_10 
REMARK    4  A    between atoms: O1_10  and  C8_11 
ROOT
HETATM    1  C5  UNL     1      49.090 161.157  31.914  1.00  0.00     0.124 C 
HETATM    2  C6  UNL     1      48.257 162.199  32.695  1.00  0.00     0.070 C 
HETATM    3  C7  UNL     1      48.336 159.871  32.479  1.00  0.00     0.070 C 
ENDROOT
BRANCH   1   4
HETATM    4  N1  UNL     1      48.802 161.060  30.555  1.00  0.00    -0.385 N 
ATOM      5  H1  UNL     1      49.447 161.501  29.899  1.00  0.00     0.157 HD
BRANCH   4   6
HETATM    6  C2  UNL     1      47.696 160.402  30.031  1.00  0.00     0.017 C 
HETATM    7  C1  UNL     1      46.324 160.734  30.478  1.00  0.00     0.037 C 
HETATM    8  C3  UNL     1      47.848 158.864  30.013  1.00  0.00     0.037 C 
HETATM    9  C4  UNL     1      47.706 160.725  28.510  1.00  0.00     0.037 C 
ENDBRANCH   4   6
ENDBRANCH   1   4
BRANCH   1  10
HETATM   10  O1  UNL     1      50.318 161.217  32.324  1.00  0.00    -0.352 OA
BRANCH  10  11
HETATM   11  C8  UNL     1      51.442 161.612  31.784  1.00  0.00     0.053 C 
HETATM   12  C9  UNL     1      51.799 160.996  30.410  1.00  0.00     0.045 C 
HETATM   13  C10 UNL     1      51.820 163.071  31.761  1.00  0.00     0.045 C 
HETATM   14  C11 UNL     1      52.546 160.995  32.693  1.00  0.00     0.045 C 
ENDBRANCH  10  11
ENDBRANCH   1  10
TORSDOF 4
ENDMDL
