MODEL 1
REMARK VINA RESULT: -7.707291356      0.000      0.000
REMARK  4 active torsions:
REMARK  status: ('A' for Active; 'I' for Inactive)
REMARK    1  A    between atoms: N1_1  and  C1_4 
REMARK    2  A    between atoms: C5_12  and  N4_13 
REMARK    3  A    between atoms: N6_20  and  C7_21 
REMARK    4  A    between atoms: C7_21  and  C8_22 
ROOT
HETATM    1  C1  UNL     1     -21.757  46.443  14.814  1.00  0.00     0.677 A 
HETATM    2  N2  UNL     1     -22.979  46.935  14.547  1.00  0.00    -0.176 N 
ATOM      3  H2  UNL     1     -23.755  46.650  15.145  1.00  0.00     0.186 HD
HETATM    4  C2  UNL     1     -23.234  47.780  13.539  1.00  0.00     0.141 A 
HETATM    5  C3  UNL     1     -22.150  48.133  12.761  1.00  0.00     0.068 A 
HETATM    6  C4  UNL     1     -20.885  47.644  13.010  1.00  0.00     0.125 A 
HETATM    7  N3  UNL     1     -20.696  46.800  14.038  1.00  0.00    -0.201 N 
ATOM      8  H3  UNL     1     -19.766  46.429  14.235  1.00  0.00     0.183 HD
HETATM    9  C5  UNL     1     -22.320  48.993  11.702  1.00  0.00     0.116 A 
HETATM   10  N5  UNL     1     -23.573  49.436  11.500  1.00  0.00    -0.319 N 
ATOM     11  H5  UNL     1     -23.743  50.076  10.723  1.00  0.00     0.170 HD
HETATM   12  C6  UNL     1     -24.632  49.071  12.284  1.00  0.00     0.181 A 
HETATM   13  S1  UNL     1     -26.114  49.659  11.838  1.00  0.00    -0.040 SA
HETATM   14  N6  UNL     1     -24.499  48.239  13.323  1.00  0.00    -0.304 N 
ENDROOT
BRANCH  14  15
HETATM   15  C7  UNL     1     -25.626  47.833  14.111  1.00  0.00     0.171 C 
BRANCH  15  16
HETATM   16  C8  UNL     1     -25.626  48.174  15.527  1.00  0.00    -0.040 A 
HETATM   17  C9  UNL     1     -24.536  48.163  16.341  1.00  0.00     0.009 A 
HETATM   18  C10 UNL     1     -24.609  48.525  17.699  1.00  0.00     0.001 A 
HETATM   19  C11 UNL     1     -25.803  48.905  18.241  1.00  0.00     0.000 A 
HETATM   20  C12 UNL     1     -26.920  48.931  17.459  1.00  0.00     0.001 A 
HETATM   21  C13 UNL     1     -26.825  48.575  16.147  1.00  0.00     0.009 A 
ENDBRANCH  15  16
ENDBRANCH  14  15
BRANCH   1  22
HETATM   22  N1  UNL     1     -21.563  45.631  15.798  1.00  0.00    -0.234 N 
ATOM     23  H12 UNL     1     -21.813  44.649  15.682  1.00  0.00     0.174 HD
ATOM     24  H11 UNL     1     -21.170  45.957  16.681  1.00  0.00     0.174 HD
ENDBRANCH   1  22
BRANCH   9  25
HETATM   25  N4  UNL     1     -21.366  49.375  10.927  1.00  0.00    -0.385 N 
ATOM     26  H42 UNL     1     -20.438  49.557  11.309  1.00  0.00     0.157 HD
ATOM     27  H41 UNL     1     -21.469  49.514   9.922  1.00  0.00     0.157 HD
ENDBRANCH   9  25
TORSDOF 4
ENDMDL
MODEL 2
REMARK VINA RESULT: -7.701517389      0.090      1.053
REMARK  4 active torsions:
REMARK  status: ('A' for Active; 'I' for Inactive)
REMARK    1  A    between atoms: N1_1  and  C1_4 
REMARK    2  A    between atoms: C5_12  and  N4_13 
REMARK    3  A    between atoms: N6_20  and  C7_21 
REMARK    4  A    between atoms: C7_21  and  C8_22 
ROOT
HETATM    1  C1  UNL     1     -21.789  46.418  14.865  1.00  0.00     0.677 A 
HETATM    2  N2  UNL     1     -23.003  46.910  14.561  1.00  0.00    -0.176 N 
ATOM      3  H2  UNL     1     -23.798  46.619  15.129  1.00  0.00     0.186 HD
HETATM    4  C2  UNL     1     -23.224  47.762  13.550  1.00  0.00     0.141 A 
HETATM    5  C3  UNL     1     -22.115  48.123  12.813  1.00  0.00     0.068 A 
HETATM    6  C4  UNL     1     -20.858  47.634  13.102  1.00  0.00     0.125 A 
HETATM    7  N3  UNL     1     -20.703  46.782  14.130  1.00  0.00    -0.201 N 
ATOM      8  H3  UNL     1     -19.780  46.412  14.356  1.00  0.00     0.183 HD
HETATM    9  C5  UNL     1     -22.250  48.990  11.756  1.00  0.00     0.116 A 
HETATM   10  N5  UNL     1     -23.497  49.433  11.513  1.00  0.00    -0.319 N 
ATOM     11  H5  UNL     1     -23.640  50.078  10.737  1.00  0.00     0.170 HD
HETATM   12  C6  UNL     1     -24.581  49.059  12.258  1.00  0.00     0.181 A 
HETATM   13  S1  UNL     1     -26.048  49.648  11.766  1.00  0.00    -0.040 SA
HETATM   14  N6  UNL     1     -24.482  48.219  13.295  1.00  0.00    -0.304 N 
ENDROOT
BRANCH  14  15
HETATM   15  C7  UNL     1     -25.635  47.805  14.040  1.00  0.00     0.171 C 
BRANCH  15  16
HETATM   16  C8  UNL     1     -25.721  48.203  15.439  1.00  0.00    -0.040 A 
HETATM   17  C9  UNL     1     -26.855  48.595  16.080  1.00  0.00     0.009 A 
HETATM   18  C10 UNL     1     -26.863  48.947  17.443  1.00  0.00     0.001 A 
HETATM   19  C11 UNL     1     -25.707  48.900  18.168  1.00  0.00     0.000 A 
HETATM   20  C12 UNL     1     -24.549  48.511  17.563  1.00  0.00     0.001 A 
HETATM   21  C13 UNL     1     -24.564  48.176  16.242  1.00  0.00     0.009 A 
ENDBRANCH  15  16
ENDBRANCH  14  15
BRANCH   1  22
HETATM   22  N1  UNL     1     -21.628  45.598  15.850  1.00  0.00    -0.234 N 
ATOM     23  H12 UNL     1     -22.279  44.819  15.953  1.00  0.00     0.174 HD
ATOM     24  H11 UNL     1     -20.867  45.720  16.518  1.00  0.00     0.174 HD
ENDBRANCH   1  22
BRANCH   9  25
HETATM   25  N4  UNL     1     -21.270  49.380  11.017  1.00  0.00    -0.385 N 
ATOM     26  H42 UNL     1     -20.638  50.108  11.348  1.00  0.00     0.157 HD
ATOM     27  H41 UNL     1     -21.070  49.003  10.091  1.00  0.00     0.157 HD
ENDBRANCH   9  25
TORSDOF 4
ENDMDL
MODEL 3
REMARK VINA RESULT: -7.637504527      1.913      3.383
REMARK  4 active torsions:
REMARK  status: ('A' for Active; 'I' for Inactive)
REMARK    1  A    between atoms: N1_1  and  C1_4 
REMARK    2  A    between atoms: C5_12  and  N4_13 
REMARK    3  A    between atoms: N6_20  and  C7_21 
REMARK    4  A    between atoms: C7_21  and  C8_22 
ROOT
HETATM    1  C1  UNL     1     -25.409  48.845  11.809  1.00  0.00     0.677 A 
HETATM    2  N2  UNL     1     -25.035  48.102  12.866  1.00  0.00    -0.176 N 
ATOM      3  H2  UNL     1     -25.763  47.725  13.472  1.00  0.00     0.186 HD
HETATM    4  C2  UNL     1     -23.757  47.832  13.165  1.00  0.00     0.141 A 
HETATM    5  C3  UNL     1     -22.813  48.367  12.314  1.00  0.00     0.068 A 
HETATM    6  C4  UNL     1     -23.167  49.132  11.223  1.00  0.00     0.125 A 
HETATM    7  N3  UNL     1     -24.467  49.368  10.976  1.00  0.00    -0.201 N 
ATOM      8  H3  UNL     1     -24.744  49.932  10.174  1.00  0.00     0.183 HD
HETATM    9  C5  UNL     1     -21.477  48.143  12.547  1.00  0.00     0.116 A 
HETATM   10  N5  UNL     1     -21.186  47.395  13.626  1.00  0.00    -0.319 N 
ATOM     11  H5  UNL     1     -20.206  47.205  13.836  1.00  0.00     0.170 HD
HETATM   12  C6  UNL     1     -22.140  46.876  14.456  1.00  0.00     0.181 A 
HETATM   13  S1  UNL     1     -21.591  46.042  15.776  1.00  0.00    -0.040 SA
HETATM   14  N6  UNL     1     -23.448  47.073  14.255  1.00  0.00    -0.304 N 
ENDROOT
BRANCH  14  15
HETATM   15  C7  UNL     1     -24.435  46.557  15.158  1.00  0.00     0.171 C 
BRANCH  15  16
HETATM   16  C8  UNL     1     -24.956  47.451  16.182  1.00  0.00    -0.040 A 
HETATM   17  C9  UNL     1     -24.239  47.967  17.217  1.00  0.00     0.009 A 
HETATM   18  C10 UNL     1     -24.807  48.844  18.160  1.00  0.00     0.001 A 
HETATM   19  C11 UNL     1     -26.120  49.204  18.054  1.00  0.00     0.000 A 
HETATM   20  C12 UNL     1     -26.873  48.710  17.031  1.00  0.00     0.001 A 
HETATM   21  C13 UNL     1     -26.302  47.862  16.130  1.00  0.00     0.009 A 
ENDBRANCH  15  16
ENDBRANCH  14  15
BRANCH   1  22
HETATM   22  N1  UNL     1     -26.655  49.078  11.563  1.00  0.00    -0.234 N 
ATOM     23  H12 UNL     1     -27.170  48.425  10.971  1.00  0.00     0.174 HD
ATOM     24  H11 UNL     1     -27.125  49.897  11.949  1.00  0.00     0.174 HD
ENDBRANCH   1  22
BRANCH   9  25
HETATM   25  N4  UNL     1     -20.531  48.603  11.805  1.00  0.00    -0.385 N 
ATOM     26  H42 UNL     1     -20.176  49.547  11.954  1.00  0.00     0.157 HD
ATOM     27  H41 UNL     1     -20.092  48.075  11.050  1.00  0.00     0.157 HD
ENDBRANCH   9  25
TORSDOF 4
ENDMDL
MODEL 4
REMARK VINA RESULT: -7.599958666      1.916      3.521
REMARK  4 active torsions:
REMARK  status: ('A' for Active; 'I' for Inactive)
REMARK    1  A    between atoms: N1_1  and  C1_4 
REMARK    2  A    between atoms: C5_12  and  N4_13 
REMARK    3  A    between atoms: N6_20  and  C7_21 
REMARK    4  A    between atoms: C7_21  and  C8_22 
ROOT
HETATM    1  C1  UNL     1     -25.423  48.813  11.767  1.00  0.00     0.677 A 
HETATM    2  N2  UNL     1     -25.047  48.081  12.830  1.00  0.00    -0.176 N 
ATOM      3  H2  UNL     1     -25.774  47.692  13.430  1.00  0.00     0.186 HD
HETATM    4  C2  UNL     1     -23.768  47.835  13.144  1.00  0.00     0.141 A 
HETATM    5  C3  UNL     1     -22.824  48.384  12.301  1.00  0.00     0.068 A 
HETATM    6  C4  UNL     1     -23.180  49.140  11.204  1.00  0.00     0.125 A 
HETATM    7  N3  UNL     1     -24.482  49.351  10.943  1.00  0.00    -0.201 N 
ATOM      8  H3  UNL     1     -24.761  49.908  10.136  1.00  0.00     0.183 HD
HETATM    9  C5  UNL     1     -21.487  48.186  12.549  1.00  0.00     0.116 A 
HETATM   10  N5  UNL     1     -21.194  47.446  13.633  1.00  0.00    -0.319 N 
ATOM     11  H5  UNL     1     -20.212  47.275  13.854  1.00  0.00     0.170 HD
HETATM   12  C6  UNL     1     -22.147  46.913  14.455  1.00  0.00     0.181 A 
HETATM   13  S1  UNL     1     -21.597  46.093  15.783  1.00  0.00    -0.040 SA
HETATM   14  N6  UNL     1     -23.456  47.085  14.239  1.00  0.00    -0.304 N 
ENDROOT
BRANCH  14  15
HETATM   15  C7  UNL     1     -24.443  46.553  15.133  1.00  0.00     0.171 C 
BRANCH  15  16
HETATM   16  C8  UNL     1     -25.071  47.468  16.076  1.00  0.00    -0.040 A 
HETATM   17  C9  UNL     1     -26.323  47.988  15.957  1.00  0.00     0.009 A 
HETATM   18  C10 UNL     1     -26.871  48.854  16.922  1.00  0.00     0.001 A 
HETATM   19  C11 UNL     1     -26.143  49.197  18.024  1.00  0.00     0.000 A 
HETATM   20  C12 UNL     1     -24.885  48.697  18.182  1.00  0.00     0.001 A 
HETATM   21  C13 UNL     1     -24.374  47.861  17.235  1.00  0.00     0.009 A 
ENDBRANCH  15  16
ENDBRANCH  14  15
BRANCH   1  22
HETATM   22  N1  UNL     1     -26.670  49.022  11.508  1.00  0.00    -0.234 N 
ATOM     23  H12 UNL     1     -27.372  48.699  12.174  1.00  0.00     0.174 HD
ATOM     24  H11 UNL     1     -26.958  49.500  10.654  1.00  0.00     0.174 HD
ENDBRANCH   1  22
BRANCH   9  25
HETATM   25  N4  UNL     1     -20.542  48.661  11.815  1.00  0.00    -0.385 N 
ATOM     26  H42 UNL     1     -20.679  48.769  10.810  1.00  0.00     0.157 HD
ATOM     27  H41 UNL     1     -19.632  48.949  12.174  1.00  0.00     0.157 HD
ENDBRANCH   9  25
TORSDOF 4
ENDMDL
MODEL 5
REMARK VINA RESULT: -6.668434433      1.476      1.948
REMARK  4 active torsions:
REMARK  status: ('A' for Active; 'I' for Inactive)
REMARK    1  A    between atoms: N1_1  and  C1_4 
REMARK    2  A    between atoms: C5_12  and  N4_13 
REMARK    3  A    between atoms: N6_20  and  C7_21 
REMARK    4  A    between atoms: C7_21  and  C8_22 
ROOT
HETATM    1  C1  UNL     1     -21.013  47.747  12.625  1.00  0.00     0.677 A 
HETATM    2  N2  UNL     1     -22.209  47.548  13.206  1.00  0.00    -0.176 N 
ATOM      3  H2  UNL     1     -22.245  46.983  14.055  1.00  0.00     0.186 HD
HETATM    4  C2  UNL     1     -23.356  48.051  12.730  1.00  0.00     0.141 A 
HETATM    5  C3  UNL     1     -23.251  48.806  11.581  1.00  0.00     0.068 A 
HETATM    6  C4  UNL     1     -22.038  49.027  10.963  1.00  0.00     0.125 A 
HETATM    7  N3  UNL     1     -20.923  48.494  11.490  1.00  0.00    -0.201 N 
ATOM      8  H3  UNL     1     -20.018  48.648  11.045  1.00  0.00     0.183 HD
HETATM    9  C5  UNL     1     -24.378  49.358  11.020  1.00  0.00     0.116 A 
HETATM   10  N5  UNL     1     -25.535  49.109  11.659  1.00  0.00    -0.319 N 
ATOM     11  H5  UNL     1     -26.396  49.500  11.275  1.00  0.00     0.170 HD
HETATM   12  C6  UNL     1     -25.614  48.356  12.797  1.00  0.00     0.181 A 
HETATM   13  S1  UNL     1     -27.132  48.095  13.402  1.00  0.00    -0.040 SA
HETATM   14  N6  UNL     1     -24.535  47.807  13.368  1.00  0.00    -0.304 N 
ENDROOT
BRANCH  14  15
HETATM   15  C7  UNL     1     -24.640  46.986  14.539  1.00  0.00     0.171 C 
BRANCH  15  16
HETATM   16  C8  UNL     1     -24.792  47.650  15.826  1.00  0.00    -0.040 A 
HETATM   17  C9  UNL     1     -23.774  48.107  16.604  1.00  0.00     0.009 A 
HETATM   18  C10 UNL     1     -24.000  48.759  17.830  1.00  0.00     0.001 A 
HETATM   19  C11 UNL     1     -25.277  48.953  18.276  1.00  0.00     0.000 A 
HETATM   20  C12 UNL     1     -26.325  48.511  17.525  1.00  0.00     0.001 A 
HETATM   21  C13 UNL     1     -26.082  47.882  16.342  1.00  0.00     0.009 A 
ENDBRANCH  15  16
ENDBRANCH  14  15
BRANCH   1  22
HETATM   22  N1  UNL     1     -19.935  47.239  13.123  1.00  0.00    -0.234 N 
ATOM     23  H12 UNL     1     -19.819  47.230  14.137  1.00  0.00     0.174 HD
ATOM     24  H11 UNL     1     -19.207  46.853  12.522  1.00  0.00     0.174 HD
ENDBRANCH   1  22
BRANCH   9  25
HETATM   25  N4  UNL     1     -24.371  50.076   9.951  1.00  0.00    -0.385 N 
ATOM     26  H42 UNL     1     -24.118  49.658   9.056  1.00  0.00     0.157 HD
ATOM     27  H41 UNL     1     -24.609  51.067   9.929  1.00  0.00     0.157 HD
ENDBRANCH   9  25
TORSDOF 4
ENDMDL
