MODEL 1
REMARK VINA RESULT: -7.243532548      0.000      0.000
REMARK  3 active torsions:
REMARK  status: ('A' for Active; 'I' for Inactive)
REMARK    1  A    between atoms: O1_3  and  C2_4 
REMARK    2  A    between atoms: C5_7  and  N2_8 
REMARK    3  A    between atoms: N2_8  and  C6_10 
ROOT
HETATM    1  N1  UNL     1     -28.240  51.436  19.820  1.00  0.00    -0.164 NA
HETATM    2  C1  UNL     1     -27.331  50.694  19.783  1.00  0.00     0.234 C 
HETATM    3  O1  UNL     1     -26.288  49.819  19.729  1.00  0.00    -0.241 OA
ENDROOT
BRANCH   3   4
HETATM    4  C2  UNL     1     -25.971  49.096  18.588  1.00  0.00     0.089 A 
HETATM    5  C3  UNL     1     -26.948  48.689  17.708  1.00  0.00     0.040 A 
HETATM    6  C4  UNL     1     -26.597  47.966  16.576  1.00  0.00     0.033 A 
HETATM    7  C5  UNL     1     -25.293  47.627  16.280  1.00  0.00     0.049 A 
HETATM    8  C11 UNL     1     -24.321  48.041  17.167  1.00  0.00     0.033 A 
HETATM    9  C12 UNL     1     -24.666  48.767  18.307  1.00  0.00     0.040 A 
BRANCH   7  10
HETATM   10  N2  UNL     1     -24.941  46.889  15.120  1.00  0.00    -0.192 N 
ATOM     11  H2  UNL     1     -25.210  45.908  15.042  1.00  0.00     0.184 HD
BRANCH  10  12
HETATM   12  C6  UNL     1     -24.284  47.453  14.165  1.00  0.00     0.685 A 
HETATM   13  N3  UNL     1     -22.960  47.353  13.994  1.00  0.00    -0.174 N 
HETATM   14  C7  UNL     1     -22.609  48.068  12.898  1.00  0.00     0.153 A 
ATOM     15  H3  UNL     1     -22.321  46.826  14.589  1.00  0.00     0.186 HD
HETATM   16  N4  UNL     1     -21.451  48.325  12.261  1.00  0.00    -0.336 N 
HETATM   17  C10 UNL     1     -23.763  48.616  12.397  1.00  0.00     0.137 A 
HETATM   18  C8  UNL     1     -21.413  49.105  11.148  1.00  0.00     0.183 A 
ATOM     19  H4  UNL     1     -20.584  47.925  12.620  1.00  0.00     0.168 HD
HETATM   20  N5  UNL     1     -22.529  49.652  10.638  1.00  0.00    -0.337 N 
HETATM   21  C9  UNL     1     -23.695  49.411  11.254  1.00  0.00     0.131 A 
ATOM     22  H5  UNL     1     -22.491  50.237   9.803  1.00  0.00     0.168 HD
HETATM   23  N6  UNL     1     -24.790  49.917  10.798  1.00  0.00    -0.383 N 
ATOM     24  H62 UNL     1     -24.740  50.498   9.962  1.00  0.00     0.157 HD
ATOM     25  H61 UNL     1     -25.677  49.733  11.268  1.00  0.00     0.157 HD
HETATM   26  N7  UNL     1     -24.778  48.238  13.172  1.00  0.00    -0.184 N 
ATOM     27  H7  UNL     1     -25.758  48.493  13.042  1.00  0.00     0.184 HD
ENDBRANCH  10  12
ENDBRANCH   7  10
ENDBRANCH   3   4
TORSDOF 3
ENDMDL
MODEL 2
REMARK VINA RESULT: -7.194554345      0.062      1.055
REMARK  3 active torsions:
REMARK  status: ('A' for Active; 'I' for Inactive)
REMARK    1  A    between atoms: O1_3  and  C2_4 
REMARK    2  A    between atoms: C5_7  and  N2_8 
REMARK    3  A    between atoms: N2_8  and  C6_10 
ROOT
HETATM    1  N1  UNL     1     -28.263  51.407  19.834  1.00  0.00    -0.164 NA
HETATM    2  C1  UNL     1     -27.356  50.662  19.797  1.00  0.00     0.234 C 
HETATM    3  O1  UNL     1     -26.316  49.783  19.743  1.00  0.00    -0.241 OA
ENDROOT
BRANCH   3   4
HETATM    4  C2  UNL     1     -25.983  49.081  18.594  1.00  0.00     0.089 A 
HETATM    5  C3  UNL     1     -24.680  48.722  18.331  1.00  0.00     0.040 A 
HETATM    6  C4  UNL     1     -24.380  48.019  17.172  1.00  0.00     0.033 A 
HETATM    7  C5  UNL     1     -25.339  47.654  16.249  1.00  0.00     0.049 A 
HETATM    8  C11 UNL     1     -26.642  48.018  16.523  1.00  0.00     0.033 A 
HETATM    9  C12 UNL     1     -26.950  48.723  17.685  1.00  0.00     0.040 A 
BRANCH   7  10
HETATM   10  N2  UNL     1     -25.026  46.935  15.067  1.00  0.00    -0.192 N 
ATOM     11  H2  UNL     1     -25.338  45.970  14.961  1.00  0.00     0.184 HD
BRANCH  10  12
HETATM   12  C6  UNL     1     -24.347  47.497  14.126  1.00  0.00     0.685 A 
HETATM   13  N3  UNL     1     -23.019  47.400  13.986  1.00  0.00    -0.174 N 
HETATM   14  C7  UNL     1     -22.644  48.112  12.897  1.00  0.00     0.153 A 
ATOM     15  H3  UNL     1     -22.393  46.877  14.599  1.00  0.00     0.186 HD
HETATM   16  N4  UNL     1     -21.472  48.369  12.286  1.00  0.00    -0.336 N 
HETATM   17  C10 UNL     1     -23.787  48.655  12.367  1.00  0.00     0.137 A 
HETATM   18  C8  UNL     1     -21.409  49.145  11.171  1.00  0.00     0.183 A 
ATOM     19  H4  UNL     1     -20.612  47.973  12.667  1.00  0.00     0.168 HD
HETATM   20  N5  UNL     1     -22.514  49.688  10.633  1.00  0.00    -0.337 N 
HETATM   21  C9  UNL     1     -23.693  49.446  11.222  1.00  0.00     0.131 A 
ATOM     22  H5  UNL     1     -22.457  50.270   9.797  1.00  0.00     0.168 HD
HETATM   23  N6  UNL     1     -24.778  49.947  10.739  1.00  0.00    -0.383 N 
ATOM     24  H62 UNL     1     -24.710  50.526   9.902  1.00  0.00     0.157 HD
ATOM     25  H61 UNL     1     -25.676  49.763  11.188  1.00  0.00     0.157 HD
HETATM   26  N7  UNL     1     -24.819  48.277  13.118  1.00  0.00    -0.184 N 
ATOM     27  H7  UNL     1     -25.796  48.530  12.964  1.00  0.00     0.184 HD
ENDBRANCH  10  12
ENDBRANCH   7  10
ENDBRANCH   3   4
TORSDOF 3
ENDMDL
MODEL 3
REMARK VINA RESULT: -7.115138968      0.890      1.367
REMARK  3 active torsions:
REMARK  status: ('A' for Active; 'I' for Inactive)
REMARK    1  A    between atoms: O1_3  and  C2_4 
REMARK    2  A    between atoms: C5_7  and  N2_8 
REMARK    3  A    between atoms: N2_8  and  C6_10 
ROOT
HETATM    1  N1  UNL     1     -27.247  51.406  19.893  1.00  0.00    -0.164 NA
HETATM    2  C1  UNL     1     -27.235  50.305  19.487  1.00  0.00     0.234 C 
HETATM    3  O1  UNL     1     -27.213  49.034  18.996  1.00  0.00    -0.241 OA
ENDROOT
BRANCH   3   4
HETATM    4  C2  UNL     1     -26.207  48.565  18.165  1.00  0.00     0.089 A 
HETATM    5  C3  UNL     1     -24.883  48.836  18.426  1.00  0.00     0.040 A 
HETATM    6  C4  UNL     1     -23.900  48.352  17.573  1.00  0.00     0.033 A 
HETATM    7  C5  UNL     1     -24.186  47.596  16.454  1.00  0.00     0.049 A 
HETATM    8  C11 UNL     1     -25.516  47.329  16.203  1.00  0.00     0.033 A 
HETATM    9  C12 UNL     1     -26.509  47.812  17.055  1.00  0.00     0.040 A 
BRANCH   7  10
HETATM   10  N2  UNL     1     -23.176  47.104  15.588  1.00  0.00    -0.192 N 
ATOM     11  H2  UNL     1     -22.609  46.305  15.871  1.00  0.00     0.184 HD
BRANCH  10  12
HETATM   12  C6  UNL     1     -22.972  47.663  14.444  1.00  0.00     0.685 A 
HETATM   13  N3  UNL     1     -21.787  47.710  13.824  1.00  0.00    -0.174 N 
HETATM   14  C7  UNL     1     -21.937  48.370  12.650  1.00  0.00     0.153 A 
ATOM     15  H3  UNL     1     -20.915  47.315  14.176  1.00  0.00     0.186 HD
HETATM   16  N4  UNL     1     -21.116  48.711  11.639  1.00  0.00    -0.336 N 
HETATM   17  C10 UNL     1     -23.258  48.731  12.566  1.00  0.00     0.137 A 
HETATM   18  C8  UNL     1     -21.572  49.396  10.557  1.00  0.00     0.183 A 
ATOM     19  H4  UNL     1     -20.131  48.450  11.686  1.00  0.00     0.168 HD
HETATM   20  N5  UNL     1     -22.861  49.760  10.451  1.00  0.00    -0.337 N 
HETATM   21  C9  UNL     1     -23.699  49.432  11.444  1.00  0.00     0.131 A 
ATOM     22  H5  UNL     1     -23.194  50.275   9.635  1.00  0.00     0.168 HD
HETATM   23  N6  UNL     1     -24.944  49.762  11.383  1.00  0.00    -0.383 N 
ATOM     24  H62 UNL     1     -25.266  50.275  10.563  1.00  0.00     0.157 HD
ATOM     25  H61 UNL     1     -25.581  49.512  12.140  1.00  0.00     0.157 HD
HETATM   26  N7  UNL     1     -23.882  48.298  13.660  1.00  0.00    -0.184 N 
ATOM     27  H7  UNL     1     -24.873  48.422  13.872  1.00  0.00     0.184 HD
ENDBRANCH  10  12
ENDBRANCH   7  10
ENDBRANCH   3   4
TORSDOF 3
ENDMDL
MODEL 4
REMARK VINA RESULT: -7.051875862      0.981      2.179
REMARK  3 active torsions:
REMARK  status: ('A' for Active; 'I' for Inactive)
REMARK    1  A    between atoms: O1_3  and  C2_4 
REMARK    2  A    between atoms: C5_7  and  N2_8 
REMARK    3  A    between atoms: N2_8  and  C6_10 
ROOT
HETATM    1  N1  UNL     1     -27.632  51.006  20.113  1.00  0.00    -0.164 NA
HETATM    2  C1  UNL     1     -26.894  50.166  19.756  1.00  0.00     0.234 C 
HETATM    3  O1  UNL     1     -26.053  49.183  19.328  1.00  0.00    -0.241 OA
ENDROOT
BRANCH   3   4
HETATM    4  C2  UNL     1     -25.950  48.807  17.996  1.00  0.00     0.089 A 
HETATM    5  C3  UNL     1     -24.750  48.392  17.464  1.00  0.00     0.040 A 
HETATM    6  C4  UNL     1     -24.681  48.022  16.128  1.00  0.00     0.033 A 
HETATM    7  C5  UNL     1     -25.775  48.049  15.287  1.00  0.00     0.049 A 
HETATM    8  C11 UNL     1     -26.973  48.466  15.830  1.00  0.00     0.033 A 
HETATM    9  C12 UNL     1     -27.050  48.838  17.172  1.00  0.00     0.040 A 
BRANCH   7  10
HETATM   10  N2  UNL     1     -25.697  47.670  13.922  1.00  0.00    -0.192 N 
ATOM     11  H2  UNL     1     -26.433  47.095  13.512  1.00  0.00     0.184 HD
BRANCH  10  12
HETATM   12  C6  UNL     1     -24.700  48.048  13.198  1.00  0.00     0.685 A 
HETATM   13  N3  UNL     1     -24.768  48.983  12.242  1.00  0.00    -0.174 N 
HETATM   14  C7  UNL     1     -23.541  49.128  11.688  1.00  0.00     0.153 A 
ATOM     15  H3  UNL     1     -25.606  49.500  11.974  1.00  0.00     0.186 HD
HETATM   16  N4  UNL     1     -23.022  49.897  10.712  1.00  0.00    -0.336 N 
HETATM   17  C10 UNL     1     -22.709  48.249  12.334  1.00  0.00     0.137 A 
HETATM   18  C8  UNL     1     -21.710  49.815  10.367  1.00  0.00     0.183 A 
ATOM     19  H4  UNL     1     -23.627  50.556  10.221  1.00  0.00     0.168 HD
HETATM   20  N5  UNL     1     -20.876  48.963  10.985  1.00  0.00    -0.337 N 
HETATM   21  C9  UNL     1     -21.367  48.187  11.961  1.00  0.00     0.131 A 
ATOM     22  H5  UNL     1     -19.892  48.908  10.719  1.00  0.00     0.168 HD
HETATM   23  N6  UNL     1     -20.601  47.355  12.581  1.00  0.00    -0.383 N 
ATOM     24  H62 UNL     1     -19.620  47.309  12.308  1.00  0.00     0.157 HD
ATOM     25  H61 UNL     1     -20.976  46.764  13.323  1.00  0.00     0.157 HD
HETATM   26  N7  UNL     1     -23.420  47.596  13.252  1.00  0.00    -0.184 N 
ATOM     27  H7  UNL     1     -23.064  46.880  13.886  1.00  0.00     0.184 HD
ENDBRANCH  10  12
ENDBRANCH   7  10
ENDBRANCH   3   4
TORSDOF 3
ENDMDL
MODEL 5
REMARK VINA RESULT: -6.952386405      0.968      1.907
REMARK  3 active torsions:
REMARK  status: ('A' for Active; 'I' for Inactive)
REMARK    1  A    between atoms: O1_3  and  C2_4 
REMARK    2  A    between atoms: C5_7  and  N2_8 
REMARK    3  A    between atoms: N2_8  and  C6_10 
ROOT
HETATM    1  N1  UNL     1     -27.648  50.966  20.155  1.00  0.00    -0.164 NA
HETATM    2  C1  UNL     1     -26.883  50.159  19.781  1.00  0.00     0.234 C 
HETATM    3  O1  UNL     1     -26.009  49.214  19.332  1.00  0.00    -0.241 OA
ENDROOT
BRANCH   3   4
HETATM    4  C2  UNL     1     -25.944  48.819  18.004  1.00  0.00     0.089 A 
HETATM    5  C3  UNL     1     -27.063  48.829  17.202  1.00  0.00     0.040 A 
HETATM    6  C4  UNL     1     -26.964  48.427  15.877  1.00  0.00     0.033 A 
HETATM    7  C5  UNL     1     -25.777  48.010  15.309  1.00  0.00     0.049 A 
HETATM    8  C11 UNL     1     -24.662  48.005  16.121  1.00  0.00     0.033 A 
HETATM    9  C12 UNL     1     -24.754  48.407  17.453  1.00  0.00     0.040 A 
BRANCH   7  10
HETATM   10  N2  UNL     1     -25.683  47.601  13.953  1.00  0.00    -0.192 N 
ATOM     11  H2  UNL     1     -26.398  46.992  13.555  1.00  0.00     0.184 HD
BRANCH  10  12
HETATM   12  C6  UNL     1     -24.697  47.996  13.223  1.00  0.00     0.685 A 
HETATM   13  N3  UNL     1     -24.786  48.934  12.271  1.00  0.00    -0.174 N 
HETATM   14  C7  UNL     1     -23.566  49.097  11.707  1.00  0.00     0.153 A 
ATOM     15  H3  UNL     1     -25.633  49.441  12.013  1.00  0.00     0.186 HD
HETATM   16  N4  UNL     1     -23.066  49.878  10.730  1.00  0.00    -0.336 N 
HETATM   17  C10 UNL     1     -22.717  48.227  12.343  1.00  0.00     0.137 A 
HETATM   18  C8  UNL     1     -21.756  49.815  10.374  1.00  0.00     0.183 A 
ATOM     19  H4  UNL     1     -23.684  50.531  10.248  1.00  0.00     0.168 HD
HETATM   20  N5  UNL     1     -20.905  48.972  10.981  1.00  0.00    -0.337 N 
HETATM   21  C9  UNL     1     -21.378  48.184  11.957  1.00  0.00     0.131 A 
ATOM     22  H5  UNL     1     -19.923  48.931  10.706  1.00  0.00     0.168 HD
HETATM   23  N6  UNL     1     -20.595  47.360  12.566  1.00  0.00    -0.383 N 
ATOM     24  H62 UNL     1     -19.616  47.329  12.284  1.00  0.00     0.157 HD
ATOM     25  H61 UNL     1     -20.956  46.761  13.309  1.00  0.00     0.157 HD
HETATM   26  N7  UNL     1     -23.411  47.561  13.263  1.00  0.00    -0.184 N 
ATOM     27  H7  UNL     1     -23.040  46.846  13.891  1.00  0.00     0.184 HD
ENDBRANCH  10  12
ENDBRANCH   7  10
ENDBRANCH   3   4
TORSDOF 3
ENDMDL
