MODEL 1
REMARK VINA RESULT: -8.271226867      0.000      0.000
REMARK  3 active torsions:
REMARK  status: ('A' for Active; 'I' for Inactive)
REMARK       I    between atoms: C1_4  and  N3_6 
REMARK    1  A    between atoms: N3_6  and  N4_8 
REMARK    2  A    between atoms: C2_10  and  C3_11 
REMARK    3  A    between atoms: C9_25  and  C10_26 
ROOT
HETATM    1  C3  UNL     1       1.773  16.480  22.530  1.00  0.00     0.078 A 
HETATM    2  N5  UNL     1       1.953  15.296  21.936  1.00  0.00    -0.336 N 
ATOM      3  H5  UNL     1       2.050  15.169  20.928  1.00  0.00     0.168 HD
HETATM    4  C4  UNL     1       1.990  14.283  22.844  1.00  0.00     0.151 A 
HETATM    5  C5  UNL     1       2.168  12.874  22.572  1.00  0.00     0.150 A 
HETATM    6  N6  UNL     1       2.184  11.991  23.570  1.00  0.00    -0.349 N 
ATOM      7  H6  UNL     1       2.068  12.325  24.526  1.00  0.00     0.167 HD
HETATM    8  C6  UNL     1       2.349  10.656  23.352  1.00  0.00     0.091 A 
HETATM    9  C7  UNL     1       2.501  10.242  22.049  1.00  0.00     0.034 A 
HETATM   10  C8  UNL     1       2.487  11.146  21.017  1.00  0.00     0.091 A 
HETATM   11  N7  UNL     1       2.317  12.459  21.317  1.00  0.00    -0.349 N 
ATOM     12  H7  UNL     1       2.304  13.144  20.561  1.00  0.00     0.167 HD
HETATM   13  N8  UNL     1       1.824  14.900  24.022  1.00  0.00    -0.337 N 
ATOM     14  H8  UNL     1       1.804  14.410  24.917  1.00  0.00     0.167 HD
HETATM   15  C9  UNL     1       1.689  16.223  23.901  1.00  0.00     0.072 A 
ENDROOT
BRANCH   1  16
HETATM   16  C2  UNL     1       1.663  17.795  21.923  1.00  0.00     0.139 C 
HETATM   17  N4  UNL     1       0.608  18.346  21.544  1.00  0.00    -0.307 N 
ATOM     18  H4  UNL     1       0.742  19.273  21.141  1.00  0.00     0.186 HD
BRANCH  17  19
HETATM   19  N3  UNL     1      -0.704  17.926  21.573  1.00  0.00    -0.274 N 
HETATM   20  C1  UNL     1      -1.579  18.007  20.463  1.00  0.00     0.200 C 
HETATM   21  N1  UNL     1      -1.461  17.229  19.450  1.00  0.00    -0.372 N 
HETATM   22  N2  UNL     1      -2.608  18.978  20.483  1.00  0.00    -0.062 NA
ATOM     23  H12 UNL     1      -2.092  17.287  18.649  1.00  0.00     0.158 HD
ATOM     24  H11 UNL     1      -0.720  16.528  19.436  1.00  0.00     0.158 HD
ATOM     25  H3  UNL     1      -1.066  17.535  22.443  1.00  0.00     0.189 HD
ENDBRANCH  17  19
ENDBRANCH   1  16
BRANCH  15  26
HETATM   26  C10 UNL     1       1.489  17.166  24.997  1.00  0.00    -0.007 A 
HETATM   27  C11 UNL     1       0.803  18.338  24.884  1.00  0.00     0.014 A 
HETATM   28  C12 UNL     1       0.644  19.185  25.975  1.00  0.00     0.001 A 
HETATM   29  C13 UNL     1       1.174  18.872  27.209  1.00  0.00     0.000 A 
HETATM   30  C14 UNL     1       1.866  17.695  27.337  1.00  0.00     0.001 A 
HETATM   31  C15 UNL     1       2.014  16.877  26.263  1.00  0.00     0.014 A 
ENDBRANCH  15  26
TORSDOF 3
ENDMDL
MODEL 2
REMARK VINA RESULT: -7.463263378      0.660      1.183
REMARK  3 active torsions:
REMARK  status: ('A' for Active; 'I' for Inactive)
REMARK       I    between atoms: C1_4  and  N3_6 
REMARK    1  A    between atoms: N3_6  and  N4_8 
REMARK    2  A    between atoms: C2_10  and  C3_11 
REMARK    3  A    between atoms: C9_25  and  C10_26 
ROOT
HETATM    1  C3  UNL     1       1.931  16.184  22.787  1.00  0.00     0.078 A 
HETATM    2  N5  UNL     1       2.001  15.010  22.151  1.00  0.00    -0.336 N 
ATOM      3  H5  UNL     1       2.131  14.909  21.145  1.00  0.00     0.168 HD
HETATM    4  C4  UNL     1       1.875  13.967  23.016  1.00  0.00     0.151 A 
HETATM    5  C5  UNL     1       1.902  12.558  22.694  1.00  0.00     0.150 A 
HETATM    6  N6  UNL     1       1.766  11.643  23.653  1.00  0.00    -0.349 N 
ATOM      7  H6  UNL     1       1.643  11.953  24.616  1.00  0.00     0.167 HD
HETATM    8  C6  UNL     1       1.785  10.307  23.386  1.00  0.00     0.091 A 
HETATM    9  C7  UNL     1       1.951   9.926  22.075  1.00  0.00     0.034 A 
HETATM   10  C8  UNL     1       2.092  10.863  21.083  1.00  0.00     0.091 A 
HETATM   11  N7  UNL     1       2.062  12.174  21.430  1.00  0.00    -0.349 N 
ATOM     12  H7  UNL     1       2.166  12.883  20.704  1.00  0.00     0.167 HD
HETATM   13  N8  UNL     1       1.726  14.555  24.212  1.00  0.00    -0.337 N 
ATOM     14  H8  UNL     1       1.605  14.039  25.083  1.00  0.00     0.167 HD
HETATM   15  C9  UNL     1       1.751  15.889  24.141  1.00  0.00     0.072 A 
ENDROOT
BRANCH   1  16
HETATM   16  C2  UNL     1       2.005  17.524  22.231  1.00  0.00     0.139 C 
HETATM   17  N4  UNL     1       1.155  18.063  21.491  1.00  0.00    -0.307 N 
ATOM     18  H4  UNL     1       1.392  19.013  21.205  1.00  0.00     0.186 HD
BRANCH  17  19
HETATM   19  N3  UNL     1      -0.045  17.605  20.992  1.00  0.00    -0.274 N 
HETATM   20  C1  UNL     1      -1.083  18.455  20.539  1.00  0.00     0.200 C 
HETATM   21  N1  UNL     1      -0.992  19.107  19.438  1.00  0.00    -0.372 N 
HETATM   22  N2  UNL     1      -2.247  18.581  21.333  1.00  0.00    -0.062 NA
ATOM     23  H12 UNL     1      -1.740  19.720  19.111  1.00  0.00     0.158 HD
ATOM     24  H11 UNL     1      -0.152  19.016  18.865  1.00  0.00     0.158 HD
ATOM     25  H3  UNL     1      -0.194  16.597  20.945  1.00  0.00     0.189 HD
ENDBRANCH  17  19
ENDBRANCH   1  16
BRANCH  15  26
HETATM   26  C10 UNL     1       1.609  16.808  25.266  1.00  0.00    -0.007 A 
HETATM   27  C11 UNL     1       2.130  16.588  26.505  1.00  0.00     0.014 A 
HETATM   28  C12 UNL     1       1.962  17.515  27.529  1.00  0.00     0.001 A 
HETATM   29  C13 UNL     1       1.264  18.687  27.328  1.00  0.00     0.000 A 
HETATM   30  C14 UNL     1       0.734  18.921  26.084  1.00  0.00     0.001 A 
HETATM   31  C15 UNL     1       0.906  18.008  25.094  1.00  0.00     0.014 A 
ENDBRANCH  15  26
TORSDOF 3
ENDMDL
MODEL 3
REMARK VINA RESULT: -5.610031925      2.856      6.672
REMARK  3 active torsions:
REMARK  status: ('A' for Active; 'I' for Inactive)
REMARK       I    between atoms: C1_4  and  N3_6 
REMARK    1  A    between atoms: N3_6  and  N4_8 
REMARK    2  A    between atoms: C2_10  and  C3_11 
REMARK    3  A    between atoms: C9_25  and  C10_26 
ROOT
HETATM    1  C3  UNL     1       2.915  15.798  23.869  1.00  0.00     0.078 A 
HETATM    2  N5  UNL     1       2.638  17.072  24.162  1.00  0.00    -0.336 N 
ATOM      3  H5  UNL     1       3.106  17.874  23.737  1.00  0.00     0.168 HD
HETATM    4  C4  UNL     1       1.655  17.166  25.098  1.00  0.00     0.151 A 
HETATM    5  C5  UNL     1       1.095  18.376  25.657  1.00  0.00     0.150 A 
HETATM    6  N6  UNL     1       0.128  18.313  26.572  1.00  0.00    -0.349 N 
ATOM      7  H6  UNL     1      -0.209  17.399  26.871  1.00  0.00     0.167 HD
HETATM    8  C6  UNL     1      -0.423  19.432  27.121  1.00  0.00     0.091 A 
HETATM    9  C7  UNL     1       0.058  20.648  26.694  1.00  0.00     0.034 A 
HETATM   10  C8  UNL     1       1.052  20.721  25.752  1.00  0.00     0.091 A 
HETATM   11  N7  UNL     1       1.549  19.560  25.253  1.00  0.00    -0.349 N 
ATOM     12  H7  UNL     1       2.288  19.597  24.552  1.00  0.00     0.167 HD
HETATM   13  N8  UNL     1       1.341  15.891  25.366  1.00  0.00    -0.337 N 
ATOM     14  H8  UNL     1       0.626  15.615  26.038  1.00  0.00     0.167 HD
HETATM   15  C9  UNL     1       2.065  15.018  24.658  1.00  0.00     0.072 A 
ENDROOT
BRANCH   1  16
HETATM   16  C2  UNL     1       3.901  15.272  22.941  1.00  0.00     0.139 C 
HETATM   17  N4  UNL     1       3.675  14.504  21.982  1.00  0.00    -0.307 N 
ATOM     18  H4  UNL     1       4.505  14.247  21.448  1.00  0.00     0.186 HD
BRANCH  17  19
HETATM   19  N3  UNL     1       2.506  13.942  21.517  1.00  0.00    -0.274 N 
HETATM   20  C1  UNL     1       2.419  12.627  21.000  1.00  0.00     0.200 C 
HETATM   21  N1  UNL     1       2.491  11.595  21.758  1.00  0.00    -0.372 N 
HETATM   22  N2  UNL     1       2.248  12.460  19.605  1.00  0.00    -0.062 NA
ATOM     23  H12 UNL     1       2.429  10.647  21.386  1.00  0.00     0.158 HD
ATOM     24  H11 UNL     1       2.614  11.715  22.764  1.00  0.00     0.158 HD
ATOM     25  H3  UNL     1       1.656  14.505  21.546  1.00  0.00     0.189 HD
ENDBRANCH  17  19
ENDBRANCH   1  16
BRANCH  15  26
HETATM   26  C10 UNL     1       1.961  13.564  24.730  1.00  0.00    -0.007 A 
HETATM   27  C11 UNL     1       3.023  12.729  24.909  1.00  0.00     0.014 A 
HETATM   28  C12 UNL     1       2.848  11.351  24.978  1.00  0.00     0.001 A 
HETATM   29  C13 UNL     1       1.597  10.781  24.865  1.00  0.00     0.000 A 
HETATM   30  C14 UNL     1       0.520  11.610  24.684  1.00  0.00     0.001 A 
HETATM   31  C15 UNL     1       0.705  12.954  24.620  1.00  0.00     0.014 A 
ENDBRANCH  15  26
TORSDOF 3
ENDMDL
MODEL 4
REMARK VINA RESULT: -4.488229115      2.508      6.425
REMARK  3 active torsions:
REMARK  status: ('A' for Active; 'I' for Inactive)
REMARK       I    between atoms: C1_4  and  N3_6 
REMARK    1  A    between atoms: N3_6  and  N4_8 
REMARK    2  A    between atoms: C2_10  and  C3_11 
REMARK    3  A    between atoms: C9_25  and  C10_26 
ROOT
HETATM    1  C3  UNL     1       3.214  15.881  24.336  1.00  0.00     0.078 A 
HETATM    2  N5  UNL     1       2.904  17.153  24.605  1.00  0.00    -0.336 N 
ATOM      3  H5  UNL     1       3.449  17.956  24.290  1.00  0.00     0.168 HD
HETATM    4  C4  UNL     1       1.769  17.243  25.351  1.00  0.00     0.151 A 
HETATM    5  C5  UNL     1       1.133  18.449  25.830  1.00  0.00     0.150 A 
HETATM    6  N6  UNL     1       0.017  18.382  26.556  1.00  0.00    -0.349 N 
ATOM      7  H6  UNL     1      -0.379  17.466  26.767  1.00  0.00     0.167 HD
HETATM    8  C6  UNL     1      -0.610  19.497  27.024  1.00  0.00     0.091 A 
HETATM    9  C7  UNL     1      -0.046  20.714  26.720  1.00  0.00     0.034 A 
HETATM   10  C8  UNL     1       1.102  20.791  25.973  1.00  0.00     0.091 A 
HETATM   11  N7  UNL     1       1.666  19.634  25.543  1.00  0.00    -0.349 N 
ATOM     12  H7  UNL     1       2.520  19.673  24.986  1.00  0.00     0.167 HD
HETATM   13  N8  UNL     1       1.398  15.966  25.528  1.00  0.00    -0.337 N 
ATOM     14  H8  UNL     1       0.571  15.688  26.055  1.00  0.00     0.167 HD
HETATM   15  C9  UNL     1       2.226  15.098  24.940  1.00  0.00     0.072 A 
ENDROOT
BRANCH   1  16
HETATM   16  C2  UNL     1       4.344  15.359  23.587  1.00  0.00     0.139 C 
HETATM   17  N4  UNL     1       4.343  15.038  22.380  1.00  0.00    -0.307 N 
ATOM     18  H4  UNL     1       5.240  14.691  22.040  1.00  0.00     0.186 HD
BRANCH  17  19
HETATM   19  N3  UNL     1       3.349  15.067  21.426  1.00  0.00    -0.274 N 
HETATM   20  C1  UNL     1       1.969  15.141  21.733  1.00  0.00     0.200 C 
HETATM   21  N1  UNL     1       1.430  16.217  22.178  1.00  0.00    -0.372 N 
HETATM   22  N2  UNL     1       1.171  13.988  21.540  1.00  0.00    -0.062 NA
ATOM     23  H12 UNL     1       0.435  16.271  22.400  1.00  0.00     0.158 HD
ATOM     24  H11 UNL     1       2.005  17.048  22.317  1.00  0.00     0.158 HD
ATOM     25  H3  UNL     1       3.622  15.035  20.444  1.00  0.00     0.189 HD
ENDBRANCH  17  19
ENDBRANCH   1  16
BRANCH  15  26
HETATM   26  C10 UNL     1       2.095  13.645  24.957  1.00  0.00    -0.007 A 
HETATM   27  C11 UNL     1       2.976  12.789  24.367  1.00  0.00     0.014 A 
HETATM   28  C12 UNL     1       2.792  11.412  24.432  1.00  0.00     0.001 A 
HETATM   29  C13 UNL     1       1.713  10.864  25.093  1.00  0.00     0.000 A 
HETATM   30  C14 UNL     1       0.818  11.714  25.691  1.00  0.00     0.001 A 
HETATM   31  C15 UNL     1       1.010  13.057  25.621  1.00  0.00     0.014 A 
ENDBRANCH  15  26
TORSDOF 3
ENDMDL
