MODEL 1
REMARK VINA RESULT: -7.441955464      0.000      0.000
REMARK  6 active torsions:
REMARK  status: ('A' for Active; 'I' for Inactive)
REMARK    1  A    between atoms: N1_1  and  C1_4 
REMARK    2  A    between atoms: C2_7  and  N3_8 
REMARK    3  A    between atoms: N3_8  and  C3_10 
REMARK    4  A    between atoms: C3_10  and  C4_11 
REMARK    5  A    between atoms: C7_22  and  S1_23 
REMARK    6  A    between atoms: S1_23  and  C8_24 
ROOT
HETATM    1  C1  UNL     1       3.287  15.048  22.288  1.00  0.00     0.133 A 
HETATM    2  N2  UNL     1       3.373  13.766  21.899  1.00  0.00    -0.176 N 
ATOM      3  H2  UNL     1       4.287  13.314  21.915  1.00  0.00     0.186 HD
HETATM    4  C2  UNL     1       2.309  13.051  21.490  1.00  0.00     0.679 A 
HETATM    5  N7  UNL     1       1.105  13.650  21.471  1.00  0.00    -0.201 N 
ATOM      6  H7  UNL     1       0.286  13.125  21.165  1.00  0.00     0.183 HD
HETATM    7  C6  UNL     1       0.967  14.948  21.856  1.00  0.00     0.128 A 
HETATM    8  C7  UNL     1       2.054  15.665  22.271  1.00  0.00     0.065 A 
ENDROOT
BRANCH   4   9
HETATM    9  N3  UNL     1       2.398  11.837  21.123  1.00  0.00    -0.220 N 
ATOM     10  H3  UNL     1       2.456  11.663  20.119  1.00  0.00     0.178 HD
BRANCH   9  11
HETATM   11  C3  UNL     1       2.425  10.694  21.973  1.00  0.00     0.198 C 
BRANCH  11  12
HETATM   12  C4  UNL     1       1.698  10.895  23.248  1.00  0.00     0.062 A 
HETATM   13  C5  UNL     1       2.295  11.344  24.413  1.00  0.00     0.136 A 
HETATM   14  N4  UNL     1       1.364  11.416  25.381  1.00  0.00    -0.296 N 
HETATM   15  N5  UNL     1       0.236  11.022  24.819  1.00  0.00    -0.243 N 
ATOM     16  H4  UNL     1       1.502  11.712  26.347  1.00  0.00     0.187 HD
HETATM   17  N6  UNL     1       0.406  10.707  23.555  1.00  0.00    -0.287 N 
ATOM     18  H5  UNL     1      -0.659  10.970  25.306  1.00  0.00     0.208 HD
ATOM     19  H6  UNL     1      -0.318  10.377  22.917  1.00  0.00     0.188 HD
ENDBRANCH  11  12
ENDBRANCH   9  11
ENDBRANCH   4   9
BRANCH   1  20
HETATM   20  N1  UNL     1       4.327  15.701  22.674  1.00  0.00    -0.384 N 
ATOM     21  H12 UNL     1       4.399  16.702  22.486  1.00  0.00     0.157 HD
ATOM     22  H11 UNL     1       5.091  15.240  23.168  1.00  0.00     0.157 HD
ENDBRANCH   1  20
BRANCH   8  23
HETATM   23  S1  UNL     1       1.967  17.374  22.793  1.00  0.00    -0.085 SA
BRANCH  23  24
HETATM   24  C8  UNL     1       1.606  17.499  24.524  1.00  0.00     0.005 A 
HETATM   25  C9  UNL     1       0.870  18.541  25.021  1.00  0.00     0.019 A 
HETATM   26  C10 UNL     1       0.589  18.633  26.386  1.00  0.00     0.001 A 
HETATM   27  C11 UNL     1       1.061  17.658  27.242  1.00  0.00     0.000 A 
HETATM   28  C12 UNL     1       1.812  16.592  26.736  1.00  0.00     0.001 A 
HETATM   29  C13 UNL     1       2.069  16.537  25.378  1.00  0.00     0.019 A 
ENDBRANCH  23  24
ENDBRANCH   8  23
TORSDOF 6
ENDMDL
MODEL 2
REMARK VINA RESULT: -7.427141408      0.051      1.041
REMARK  6 active torsions:
REMARK  status: ('A' for Active; 'I' for Inactive)
REMARK    1  A    between atoms: N1_1  and  C1_4 
REMARK    2  A    between atoms: C2_7  and  N3_8 
REMARK    3  A    between atoms: N3_8  and  C3_10 
REMARK    4  A    between atoms: C3_10  and  C4_11 
REMARK    5  A    between atoms: C7_22  and  S1_23 
REMARK    6  A    between atoms: S1_23  and  C8_24 
ROOT
HETATM    1  C1  UNL     1       3.286  15.034  22.284  1.00  0.00     0.133 A 
HETATM    2  N2  UNL     1       3.365  13.750  21.901  1.00  0.00    -0.176 N 
ATOM      3  H2  UNL     1       4.277  13.293  21.919  1.00  0.00     0.186 HD
HETATM    4  C2  UNL     1       2.298  13.037  21.496  1.00  0.00     0.679 A 
HETATM    5  N7  UNL     1       1.097  13.641  21.475  1.00  0.00    -0.201 N 
ATOM      6  H7  UNL     1       0.275  13.119  21.172  1.00  0.00     0.183 HD
HETATM    7  C6  UNL     1       0.965  14.942  21.854  1.00  0.00     0.128 A 
HETATM    8  C7  UNL     1       2.056  15.657  22.263  1.00  0.00     0.065 A 
ENDROOT
BRANCH   4   9
HETATM    9  N3  UNL     1       2.382  11.820  21.136  1.00  0.00    -0.220 N 
ATOM     10  H3  UNL     1       2.436  11.641  20.134  1.00  0.00     0.178 HD
BRANCH   9  11
HETATM   11  C3  UNL     1       2.408  10.682  21.993  1.00  0.00     0.198 C 
BRANCH  11  12
HETATM   12  C4  UNL     1       1.681  10.891  23.267  1.00  0.00     0.062 A 
HETATM   13  C5  UNL     1       2.278  11.347  24.429  1.00  0.00     0.136 A 
HETATM   14  N4  UNL     1       1.348  11.426  25.396  1.00  0.00    -0.296 N 
HETATM   15  N5  UNL     1       0.219  11.029  24.837  1.00  0.00    -0.243 N 
ATOM     16  H4  UNL     1       1.486  11.728  26.361  1.00  0.00     0.187 HD
HETATM   17  N6  UNL     1       0.389  10.706  23.575  1.00  0.00    -0.287 N 
ATOM     18  H5  UNL     1      -0.676  10.980  25.325  1.00  0.00     0.208 HD
ATOM     19  H6  UNL     1      -0.336  10.372  22.940  1.00  0.00     0.188 HD
ENDBRANCH  11  12
ENDBRANCH   9  11
ENDBRANCH   4   9
BRANCH   1  20
HETATM   20  N1  UNL     1       4.329  15.685  22.665  1.00  0.00    -0.384 N 
ATOM     21  H12 UNL     1       5.214  15.196  22.798  1.00  0.00     0.157 HD
ATOM     22  H11 UNL     1       4.294  16.689  22.839  1.00  0.00     0.157 HD
ENDBRANCH   1  20
BRANCH   8  23
HETATM   23  S1  UNL     1       1.976  17.369  22.777  1.00  0.00    -0.085 SA
BRANCH  23  24
HETATM   24  C8  UNL     1       1.645  17.505  24.512  1.00  0.00     0.005 A 
HETATM   25  C9  UNL     1       2.133  16.585  25.401  1.00  0.00     0.019 A 
HETATM   26  C10 UNL     1       1.869  16.699  26.767  1.00  0.00     0.001 A 
HETATM   27  C11 UNL     1       1.105  17.754  27.225  1.00  0.00     0.000 A 
HETATM   28  C12 UNL     1       0.606  18.695  26.318  1.00  0.00     0.001 A 
HETATM   29  C13 UNL     1       0.890  18.548  24.973  1.00  0.00     0.019 A 
ENDBRANCH  23  24
ENDBRANCH   8  23
TORSDOF 6
ENDMDL
MODEL 3
REMARK VINA RESULT: -7.056547066      0.937      1.436
REMARK  6 active torsions:
REMARK  status: ('A' for Active; 'I' for Inactive)
REMARK    1  A    between atoms: N1_1  and  C1_4 
REMARK    2  A    between atoms: C2_7  and  N3_8 
REMARK    3  A    between atoms: N3_8  and  C3_10 
REMARK    4  A    between atoms: C3_10  and  C4_11 
REMARK    5  A    between atoms: C7_22  and  S1_23 
REMARK    6  A    between atoms: S1_23  and  C8_24 
ROOT
HETATM    1  C1  UNL     1       1.605  15.691  21.995  1.00  0.00     0.133 A 
HETATM    2  N2  UNL     1       1.522  14.445  21.503  1.00  0.00    -0.176 N 
ATOM      3  H2  UNL     1       0.790  14.239  20.823  1.00  0.00     0.186 HD
HETATM    4  C2  UNL     1       2.358  13.455  21.866  1.00  0.00     0.679 A 
HETATM    5  N7  UNL     1       3.322  13.729  22.763  1.00  0.00    -0.201 N 
ATOM      6  H7  UNL     1       3.966  12.993  23.051  1.00  0.00     0.183 HD
HETATM    7  C6  UNL     1       3.447  14.978  23.291  1.00  0.00     0.128 A 
HETATM    8  C7  UNL     1       2.592  15.976  22.915  1.00  0.00     0.065 A 
ENDROOT
BRANCH   4   9
HETATM    9  N3  UNL     1       2.272  12.277  21.395  1.00  0.00    -0.220 N 
ATOM     10  H3  UNL     1       2.251  12.190  20.379  1.00  0.00     0.178 HD
BRANCH   9  11
HETATM   11  C3  UNL     1       2.203  11.067  22.144  1.00  0.00     0.198 C 
BRANCH  11  12
HETATM   12  C4  UNL     1       1.468  11.210  23.423  1.00  0.00     0.062 A 
HETATM   13  C5  UNL     1       2.072  11.179  24.667  1.00  0.00     0.136 A 
HETATM   14  N4  UNL     1       1.130  11.336  25.614  1.00  0.00    -0.296 N 
HETATM   15  N5  UNL     1      -0.012  11.459  24.962  1.00  0.00    -0.243 N 
ATOM     16  H4  UNL     1       1.270  11.355  26.624  1.00  0.00     0.187 HD
HETATM   17  N6  UNL     1       0.160  11.388  23.662  1.00  0.00    -0.287 N 
ATOM     18  H5  UNL     1      -0.917  11.594  25.413  1.00  0.00     0.208 HD
ATOM     19  H6  UNL     1      -0.573  11.456  22.956  1.00  0.00     0.188 HD
ENDBRANCH  11  12
ENDBRANCH   9  11
ENDBRANCH   4   9
BRANCH   1  20
HETATM   20  N1  UNL     1       0.787  16.614  21.624  1.00  0.00    -0.384 N 
ATOM     21  H12 UNL     1       1.145  17.488  21.241  1.00  0.00     0.157 HD
ATOM     22  H11 UNL     1      -0.222  16.491  21.705  1.00  0.00     0.157 HD
ENDBRANCH   1  20
BRANCH   8  23
HETATM   23  S1  UNL     1       2.682  17.644  23.556  1.00  0.00    -0.085 SA
BRANCH  23  24
HETATM   24  C8  UNL     1       1.795  17.795  25.082  1.00  0.00     0.005 A 
HETATM   25  C9  UNL     1       0.981  18.868  25.326  1.00  0.00     0.019 A 
HETATM   26  C10 UNL     1       0.284  18.980  26.531  1.00  0.00     0.001 A 
HETATM   27  C11 UNL     1       0.420  17.993  27.487  1.00  0.00     0.000 A 
HETATM   28  C12 UNL     1       1.251  16.895  27.240  1.00  0.00     0.001 A 
HETATM   29  C13 UNL     1       1.924  16.821  26.034  1.00  0.00     0.019 A 
ENDBRANCH  23  24
ENDBRANCH   8  23
TORSDOF 6
ENDMDL
MODEL 4
REMARK VINA RESULT: -6.462948390      1.691      2.490
REMARK  6 active torsions:
REMARK  status: ('A' for Active; 'I' for Inactive)
REMARK    1  A    between atoms: N1_1  and  C1_4 
REMARK    2  A    between atoms: C2_7  and  N3_8 
REMARK    3  A    between atoms: N3_8  and  C3_10 
REMARK    4  A    between atoms: C3_10  and  C4_11 
REMARK    5  A    between atoms: C7_22  and  S1_23 
REMARK    6  A    between atoms: S1_23  and  C8_24 
ROOT
HETATM    1  C1  UNL     1       2.586  14.191  24.637  1.00  0.00     0.133 A 
HETATM    2  N2  UNL     1       2.835  13.697  23.414  1.00  0.00    -0.176 N 
ATOM      3  H2  UNL     1       3.223  12.756  23.341  1.00  0.00     0.186 HD
HETATM    4  C2  UNL     1       2.596  14.383  22.282  1.00  0.00     0.679 A 
HETATM    5  N7  UNL     1       2.083  15.623  22.382  1.00  0.00    -0.201 N 
ATOM      6  H7  UNL     1       1.894  16.160  21.536  1.00  0.00     0.183 HD
HETATM    7  C6  UNL     1       1.814  16.168  23.599  1.00  0.00     0.128 A 
HETATM    8  C7  UNL     1       2.060  15.462  24.744  1.00  0.00     0.065 A 
ENDROOT
BRANCH   4   9
HETATM    9  N3  UNL     1       2.835  13.907  21.127  1.00  0.00    -0.220 N 
ATOM     10  H3  UNL     1       3.304  14.524  20.464  1.00  0.00     0.178 HD
BRANCH   9  11
HETATM   11  C3  UNL     1       2.512  12.598  20.666  1.00  0.00     0.198 C 
BRANCH  11  12
HETATM   12  C4  UNL     1       1.762  11.795  21.660  1.00  0.00     0.062 A 
HETATM   13  C5  UNL     1       2.298  10.720  22.345  1.00  0.00     0.136 A 
HETATM   14  N4  UNL     1       1.362  10.213  23.166  1.00  0.00    -0.296 N 
HETATM   15  N5  UNL     1       0.288  10.961  22.985  1.00  0.00    -0.243 N 
ATOM     16  H4  UNL     1       1.460   9.417  23.797  1.00  0.00     0.187 HD
HETATM   17  N6  UNL     1       0.499  11.906  22.097  1.00  0.00    -0.287 N 
ATOM     18  H5  UNL     1      -0.596  10.822  23.474  1.00  0.00     0.208 HD
ATOM     19  H6  UNL     1      -0.181  12.603  21.792  1.00  0.00     0.188 HD
ENDBRANCH  11  12
ENDBRANCH   9  11
ENDBRANCH   4   9
BRANCH   1  20
HETATM   20  N1  UNL     1       2.827  13.505  25.699  1.00  0.00    -0.384 N 
ATOM     21  H12 UNL     1       2.935  13.977  26.597  1.00  0.00     0.157 HD
ATOM     22  H11 UNL     1       2.915  12.489  25.666  1.00  0.00     0.157 HD
ENDBRANCH   1  20
BRANCH   8  23
HETATM   23  S1  UNL     1       1.737  16.099  26.384  1.00  0.00    -0.085 SA
BRANCH  23  24
HETATM   24  C8  UNL     1       1.170  17.777  26.322  1.00  0.00     0.005 A 
HETATM   25  C9  UNL     1       1.742  18.688  25.475  1.00  0.00     0.019 A 
HETATM   26  C10 UNL     1       1.290  20.008  25.431  1.00  0.00     0.001 A 
HETATM   27  C11 UNL     1       0.252  20.396  26.253  1.00  0.00     0.000 A 
HETATM   28  C12 UNL     1      -0.335  19.467  27.119  1.00  0.00     0.001 A 
HETATM   29  C13 UNL     1       0.141  18.169  27.133  1.00  0.00     0.019 A 
ENDBRANCH  23  24
ENDBRANCH   8  23
TORSDOF 6
ENDMDL
MODEL 5
REMARK VINA RESULT: -6.427138679      1.691      2.481
REMARK  6 active torsions:
REMARK  status: ('A' for Active; 'I' for Inactive)
REMARK    1  A    between atoms: N1_1  and  C1_4 
REMARK    2  A    between atoms: C2_7  and  N3_8 
REMARK    3  A    between atoms: N3_8  and  C3_10 
REMARK    4  A    between atoms: C3_10  and  C4_11 
REMARK    5  A    between atoms: C7_22  and  S1_23 
REMARK    6  A    between atoms: S1_23  and  C8_24 
ROOT
HETATM    1  C1  UNL     1       2.598  14.192  24.645  1.00  0.00     0.133 A 
HETATM    2  N2  UNL     1       2.847  13.706  23.419  1.00  0.00    -0.176 N 
ATOM      3  H2  UNL     1       3.246  12.770  23.339  1.00  0.00     0.186 HD
HETATM    4  C2  UNL     1       2.594  14.394  22.290  1.00  0.00     0.679 A 
HETATM    5  N7  UNL     1       2.066  15.626  22.398  1.00  0.00    -0.201 N 
ATOM      6  H7  UNL     1       1.866  16.164  21.556  1.00  0.00     0.183 HD
HETATM    7  C6  UNL     1       1.795  16.163  23.619  1.00  0.00     0.128 A 
HETATM    8  C7  UNL     1       2.057  15.455  24.759  1.00  0.00     0.065 A 
ENDROOT
BRANCH   4   9
HETATM    9  N3  UNL     1       2.832  13.925  21.133  1.00  0.00    -0.220 N 
ATOM     10  H3  UNL     1       3.287  14.552  20.469  1.00  0.00     0.178 HD
BRANCH   9  11
HETATM   11  C3  UNL     1       2.528  12.613  20.670  1.00  0.00     0.198 C 
BRANCH  11  12
HETATM   12  C4  UNL     1       1.771  11.804  21.654  1.00  0.00     0.062 A 
HETATM   13  C5  UNL     1       2.314  10.747  22.363  1.00  0.00     0.136 A 
HETATM   14  N4  UNL     1       1.369  10.230  23.167  1.00  0.00    -0.296 N 
HETATM   15  N5  UNL     1       0.285  10.953  22.953  1.00  0.00    -0.243 N 
ATOM     16  H4  UNL     1       1.469   9.443  23.809  1.00  0.00     0.187 HD
HETATM   17  N6  UNL     1       0.496  11.893  22.060  1.00  0.00    -0.287 N 
ATOM     18  H5  UNL     1      -0.607  10.800  23.424  1.00  0.00     0.208 HD
ATOM     19  H6  UNL     1      -0.191  12.572  21.732  1.00  0.00     0.188 HD
ENDBRANCH  11  12
ENDBRANCH   9  11
ENDBRANCH   4   9
BRANCH   1  20
HETATM   20  N1  UNL     1       2.854  13.504  25.703  1.00  0.00    -0.384 N 
ATOM     21  H12 UNL     1       2.471  12.564  25.804  1.00  0.00     0.157 HD
ATOM     22  H11 UNL     1       3.435  13.879  26.452  1.00  0.00     0.157 HD
ENDBRANCH   1  20
BRANCH   8  23
HETATM   23  S1  UNL     1       1.734  16.082  26.404  1.00  0.00    -0.085 SA
BRANCH  23  24
HETATM   24  C8  UNL     1       1.147  17.753  26.352  1.00  0.00     0.005 A 
HETATM   25  C9  UNL     1       0.128  18.172  27.163  1.00  0.00     0.019 A 
HETATM   26  C10 UNL     1      -0.329  19.490  27.117  1.00  0.00     0.001 A 
HETATM   27  C11 UNL     1       0.257  20.381  26.240  1.00  0.00     0.000 A 
HETATM   28  C12 UNL     1       1.300  19.955  25.410  1.00  0.00     0.001 A 
HETATM   29  C13 UNL     1       1.724  18.641  25.486  1.00  0.00     0.019 A 
ENDBRANCH  23  24
ENDBRANCH   8  23
TORSDOF 6
ENDMDL
