MODEL 1
REMARK VINA RESULT: -8.506898372      0.000      0.000
REMARK  5 active torsions:
REMARK  status: ('A' for Active; 'I' for Inactive)
REMARK    1  A    between atoms: C7_7  and  C8_8 
REMARK    2  A    between atoms: N2_12  and  N3_14 
REMARK    3  A    between atoms: C10_19  and  C11_20 
REMARK    4  A    between atoms: C11_20  and  S1_21 
REMARK    5  A    between atoms: S1_21  and  C12_22 
ROOT
HETATM    1  C8  UNL     1       1.899  15.282  23.706  1.00  0.00     0.087 A 
HETATM    2  N1  UNL     1       1.263  15.661  22.594  1.00  0.00    -0.187 N 
ATOM      3  H1  UNL     1       0.760  15.021  21.980  1.00  0.00     0.184 HD
HETATM    4  C9  UNL     1       1.362  16.955  22.381  1.00  0.00     0.697 A 
HETATM    5  N2  UNL     1       0.673  17.714  21.517  1.00  0.00    -0.139 N 
ATOM      6  H2  UNL     1       0.814  18.720  21.417  1.00  0.00     0.205 HD
HETATM    7  N4  UNL     1       2.111  17.449  23.429  1.00  0.00    -0.188 N 
ATOM      8  H4  UNL     1       2.378  18.424  23.561  1.00  0.00     0.184 HD
HETATM    9  C10 UNL     1       2.435  16.413  24.261  1.00  0.00     0.084 A 
ENDROOT
BRANCH   9  10
HETATM   10  C11 UNL     1       2.772  16.589  25.704  1.00  0.00     0.085 C 
BRANCH  10  11
HETATM   11  S1  UNL     1       1.677  16.928  27.003  1.00  0.00    -0.062 SA
BRANCH  11  12
HETATM   12  C12 UNL     1       1.018  18.578  26.713  1.00  0.00     0.164 A 
HETATM   13  N5  UNL     1       1.579  19.607  25.989  1.00  0.00    -0.331 N 
HETATM   14  C13 UNL     1       0.627  20.625  26.073  1.00  0.00     0.199 A 
ATOM     15  H5  UNL     1       2.477  19.622  25.506  1.00  0.00     0.168 HD
HETATM   16  N6  UNL     1      -0.412  20.248  26.761  1.00  0.00    -0.294 N 
HETATM   17  N7  UNL     1      -0.172  18.995  27.162  1.00  0.00    -0.279 N 
ATOM     18  H6  UNL     1      -1.248  20.801  26.955  1.00  0.00     0.187 HD
ATOM     19  H7  UNL     1      -0.807  18.435  27.731  1.00  0.00     0.189 HD
ENDBRANCH  11  12
ENDBRANCH  10  11
ENDBRANCH   9  10
BRANCH   1  20
HETATM   20  C7  UNL     1       1.983  13.879  24.063  1.00  0.00    -0.001 A 
HETATM   21  C2  UNL     1       2.272  12.872  23.139  1.00  0.00    -0.049 A 
HETATM   22  C1  UNL     1       2.601  13.203  21.718  1.00  0.00     0.049 C 
HETATM   23  C3  UNL     1       2.271  11.531  23.504  1.00  0.00     0.007 A 
HETATM   24  C4  UNL     1       1.999  11.126  24.777  1.00  0.00     0.001 A 
HETATM   25  C5  UNL     1       1.717  12.088  25.701  1.00  0.00     0.001 A 
HETATM   26  C6  UNL     1       1.702  13.444  25.360  1.00  0.00     0.014 A 
ENDBRANCH   1  20
BRANCH   5  27
HETATM   27  N3  UNL     1      -0.289  16.967  20.740  1.00  0.00    -0.331 N 
ATOM     28  H32 UNL     1      -0.616  16.040  21.016  1.00  0.00     0.177 HD
ATOM     29  H31 UNL     1      -0.600  17.458  19.902  1.00  0.00     0.177 HD
ENDBRANCH   5  27
TORSDOF 5
ENDMDL
MODEL 2
REMARK VINA RESULT: -8.315626856      2.922      6.318
REMARK  5 active torsions:
REMARK  status: ('A' for Active; 'I' for Inactive)
REMARK    1  A    between atoms: C7_7  and  C8_8 
REMARK    2  A    between atoms: N2_12  and  N3_14 
REMARK    3  A    between atoms: C10_19  and  C11_20 
REMARK    4  A    between atoms: C11_20  and  S1_21 
REMARK    5  A    between atoms: S1_21  and  C12_22 
ROOT
HETATM    1  C8  UNL     1       2.272  15.766  24.264  1.00  0.00     0.087 A 
HETATM    2  N1  UNL     1       2.944  16.115  23.164  1.00  0.00    -0.187 N 
ATOM      3  H1  UNL     1       3.205  17.074  22.936  1.00  0.00     0.184 HD
HETATM    4  C9  UNL     1       3.230  15.078  22.407  1.00  0.00     0.697 A 
HETATM    5  N2  UNL     1       4.078  15.009  21.370  1.00  0.00    -0.139 N 
ATOM      6  H2  UNL     1       4.242  14.156  20.835  1.00  0.00     0.205 HD
HETATM    7  N4  UNL     1       2.710  13.982  23.063  1.00  0.00    -0.188 N 
ATOM      8  H4  UNL     1       2.755  13.017  22.737  1.00  0.00     0.184 HD
HETATM    9  C10 UNL     1       2.125  14.406  24.225  1.00  0.00     0.084 A 
ENDROOT
BRANCH   9  10
HETATM   10  C11 UNL     1       1.918  13.525  25.412  1.00  0.00     0.085 C 
BRANCH  10  11
HETATM   11  S1  UNL     1       1.359  11.886  25.417  1.00  0.00    -0.062 SA
BRANCH  11  12
HETATM   12  C12 UNL     1       1.599  11.248  23.751  1.00  0.00     0.164 A 
HETATM   13  N5  UNL     1       0.661  11.081  22.757  1.00  0.00    -0.331 N 
HETATM   14  C13 UNL     1       1.404  10.589  21.681  1.00  0.00     0.199 A 
ATOM     15  H5  UNL     1      -0.341  11.271  22.796  1.00  0.00     0.168 HD
HETATM   16  N6  UNL     1       2.666  10.487  21.984  1.00  0.00    -0.294 N 
HETATM   17  N7  UNL     1       2.788  10.882  23.256  1.00  0.00    -0.279 N 
ATOM     18  H6  UNL     1       3.416  10.167  21.371  1.00  0.00     0.187 HD
ATOM     19  H7  UNL     1       3.665  10.901  23.777  1.00  0.00     0.189 HD
ENDBRANCH  11  12
ENDBRANCH  10  11
ENDBRANCH   9  10
BRANCH   1  20
HETATM   20  C7  UNL     1       1.785  16.780  25.180  1.00  0.00    -0.001 A 
HETATM   21  C2  UNL     1       1.040  17.886  24.768  1.00  0.00    -0.049 A 
HETATM   22  C1  UNL     1       0.623  18.045  23.340  1.00  0.00     0.049 C 
HETATM   23  C3  UNL     1       0.654  18.876  25.665  1.00  0.00     0.007 A 
HETATM   24  C4  UNL     1       0.971  18.817  26.989  1.00  0.00     0.001 A 
HETATM   25  C5  UNL     1       1.694  17.746  27.421  1.00  0.00     0.001 A 
HETATM   26  C6  UNL     1       2.104  16.740  26.540  1.00  0.00     0.014 A 
ENDBRANCH   1  20
BRANCH   5  27
HETATM   27  N3  UNL     1       4.737  16.264  21.086  1.00  0.00    -0.331 N 
ATOM     28  H32 UNL     1       4.294  17.005  20.543  1.00  0.00     0.177 HD
ATOM     29  H31 UNL     1       5.675  16.325  21.482  1.00  0.00     0.177 HD
ENDBRANCH   5  27
TORSDOF 5
ENDMDL
MODEL 3
REMARK VINA RESULT: -7.653069858      3.164      6.191
REMARK  5 active torsions:
REMARK  status: ('A' for Active; 'I' for Inactive)
REMARK    1  A    between atoms: C7_7  and  C8_8 
REMARK    2  A    between atoms: N2_12  and  N3_14 
REMARK    3  A    between atoms: C10_19  and  C11_20 
REMARK    4  A    between atoms: C11_20  and  S1_21 
REMARK    5  A    between atoms: S1_21  and  C12_22 
ROOT
HETATM    1  C8  UNL     1       2.075  15.031  25.245  1.00  0.00     0.087 A 
HETATM    2  N1  UNL     1       1.341  13.976  25.612  1.00  0.00    -0.187 N 
ATOM      3  H1  UNL     1       0.465  14.045  26.129  1.00  0.00     0.184 HD
HETATM    4  C9  UNL     1       1.880  12.840  25.230  1.00  0.00     0.697 A 
HETATM    5  N2  UNL     1       1.327  11.617  25.211  1.00  0.00    -0.139 N 
ATOM      6  H2  UNL     1       1.821  10.783  24.895  1.00  0.00     0.205 HD
HETATM    7  N4  UNL     1       3.041  13.180  24.568  1.00  0.00    -0.188 N 
ATOM      8  H4  UNL     1       3.702  12.526  24.149  1.00  0.00     0.184 HD
HETATM    9  C10 UNL     1       3.157  14.543  24.564  1.00  0.00     0.084 A 
ENDROOT
BRANCH   9  10
HETATM   10  C11 UNL     1       3.954  15.300  23.554  1.00  0.00     0.085 C 
BRANCH  10  11
HETATM   11  S1  UNL     1       3.837  15.188  21.830  1.00  0.00    -0.062 SA
BRANCH  11  12
HETATM   12  C12 UNL     1       2.627  13.904  21.471  1.00  0.00     0.164 A 
HETATM   13  N5  UNL     1       2.852  12.612  21.052  1.00  0.00    -0.331 N 
HETATM   14  C13 UNL     1       1.570  12.066  20.965  1.00  0.00     0.199 A 
ATOM     15  H5  UNL     1       3.745  12.159  20.852  1.00  0.00     0.168 HD
HETATM   16  N6  UNL     1       0.661  12.931  21.313  1.00  0.00    -0.294 N 
HETATM   17  N7  UNL     1       1.306  14.063  21.615  1.00  0.00    -0.279 N 
ATOM     18  H6  UNL     1      -0.346  12.775  21.348  1.00  0.00     0.187 HD
ATOM     19  H7  UNL     1       0.854  14.927  21.915  1.00  0.00     0.189 HD
ENDBRANCH  11  12
ENDBRANCH  10  11
ENDBRANCH   9  10
BRANCH   1  20
HETATM   20  C7  UNL     1       1.694  16.369  25.654  1.00  0.00    -0.001 A 
HETATM   21  C2  UNL     1       1.353  17.377  24.749  1.00  0.00    -0.049 A 
HETATM   22  C1  UNL     1       1.283  17.101  23.281  1.00  0.00     0.049 C 
HETATM   23  C3  UNL     1       1.064  18.668  25.176  1.00  0.00     0.007 A 
HETATM   24  C4  UNL     1       1.087  19.018  26.493  1.00  0.00     0.001 A 
HETATM   25  C5  UNL     1       1.411  18.053  27.400  1.00  0.00     0.001 A 
HETATM   26  C6  UNL     1       1.716  16.748  26.999  1.00  0.00     0.014 A 
ENDBRANCH   1  20
BRANCH   5  27
HETATM   27  N3  UNL     1      -0.039  11.601  25.683  1.00  0.00    -0.331 N 
ATOM     28  H32 UNL     1      -0.282  11.749  26.663  1.00  0.00     0.177 HD
ATOM     29  H31 UNL     1      -0.719  11.428  24.943  1.00  0.00     0.177 HD
ENDBRANCH   5  27
TORSDOF 5
ENDMDL
MODEL 4
REMARK VINA RESULT: -7.446693275      2.847      6.349
REMARK  5 active torsions:
REMARK  status: ('A' for Active; 'I' for Inactive)
REMARK    1  A    between atoms: C7_7  and  C8_8 
REMARK    2  A    between atoms: N2_12  and  N3_14 
REMARK    3  A    between atoms: C10_19  and  C11_20 
REMARK    4  A    between atoms: C11_20  and  S1_21 
REMARK    5  A    between atoms: S1_21  and  C12_22 
ROOT
HETATM    1  C8  UNL     1       2.022  16.004  24.274  1.00  0.00     0.087 A 
HETATM    2  N1  UNL     1       2.749  16.272  23.185  1.00  0.00    -0.187 N 
ATOM      3  H1  UNL     1       3.029  17.212  22.905  1.00  0.00     0.184 HD
HETATM    4  C9  UNL     1       3.062  15.184  22.517  1.00  0.00     0.697 A 
HETATM    5  N2  UNL     1       3.958  15.039  21.529  1.00  0.00    -0.139 N 
ATOM      6  H2  UNL     1       4.140  14.150  21.062  1.00  0.00     0.205 HD
HETATM    7  N4  UNL     1       2.502  14.139  23.221  1.00  0.00    -0.188 N 
ATOM      8  H4  UNL     1       2.554  13.153  22.965  1.00  0.00     0.184 HD
HETATM    9  C10 UNL     1       1.866  14.645  24.321  1.00  0.00     0.084 A 
ENDROOT
BRANCH   9  10
HETATM   10  C11 UNL     1       1.595  13.850  25.555  1.00  0.00     0.085 C 
BRANCH  10  11
HETATM   11  S1  UNL     1       1.210  12.165  25.653  1.00  0.00    -0.062 SA
BRANCH  11  12
HETATM   12  C12 UNL     1       1.595  11.448  24.047  1.00  0.00     0.164 A 
HETATM   13  N5  UNL     1       0.736  11.178  23.004  1.00  0.00    -0.331 N 
HETATM   14  C13 UNL     1       1.573  10.666  22.011  1.00  0.00     0.199 A 
ATOM     15  H5  UNL     1      -0.274  11.320  22.966  1.00  0.00     0.168 HD
HETATM   16  N6  UNL     1       2.815  10.644  22.403  1.00  0.00    -0.294 N 
HETATM   17  N7  UNL     1       2.830  11.115  23.655  1.00  0.00    -0.279 N 
ATOM     18  H6  UNL     1       3.619  10.329  21.860  1.00  0.00     0.187 HD
ATOM     19  H7  UNL     1       3.667  11.207  24.230  1.00  0.00     0.189 HD
ENDBRANCH  11  12
ENDBRANCH  10  11
ENDBRANCH   9  10
BRANCH   1  20
HETATM   20  C7  UNL     1       1.501  17.081  25.092  1.00  0.00    -0.001 A 
HETATM   21  C2  UNL     1       1.573  17.085  26.487  1.00  0.00    -0.049 A 
HETATM   22  C1  UNL     1       2.280  15.992  27.223  1.00  0.00     0.049 C 
HETATM   23  C3  UNL     1       0.997  18.101  27.241  1.00  0.00     0.007 A 
HETATM   24  C4  UNL     1       0.343  19.149  26.665  1.00  0.00     0.001 A 
HETATM   25  C5  UNL     1       0.261  19.175  25.304  1.00  0.00     0.001 A 
HETATM   26  C6  UNL     1       0.823  18.161  24.521  1.00  0.00     0.014 A 
ENDBRANCH   1  20
BRANCH   5  27
HETATM   27  N3  UNL     1       4.641  16.267  21.191  1.00  0.00    -0.331 N 
ATOM     28  H32 UNL     1       5.261  16.748  21.844  1.00  0.00     0.177 HD
ATOM     29  H31 UNL     1       4.438  16.594  20.247  1.00  0.00     0.177 HD
ENDBRANCH   5  27
TORSDOF 5
ENDMDL
MODEL 5
REMARK VINA RESULT: -7.398921443      1.805      1.860
REMARK  5 active torsions:
REMARK  status: ('A' for Active; 'I' for Inactive)
REMARK    1  A    between atoms: C7_7  and  C8_8 
REMARK    2  A    between atoms: N2_12  and  N3_14 
REMARK    3  A    between atoms: C10_19  and  C11_20 
REMARK    4  A    between atoms: C11_20  and  S1_21 
REMARK    5  A    between atoms: S1_21  and  C12_22 
ROOT
HETATM    1  C8  UNL     1       2.492  14.356  24.026  1.00  0.00     0.087 A 
HETATM    2  N1  UNL     1       3.255  14.576  22.951  1.00  0.00    -0.187 N 
ATOM      3  H1  UNL     1       3.384  13.902  22.197  1.00  0.00     0.184 HD
HETATM    4  C9  UNL     1       3.819  15.763  22.977  1.00  0.00     0.697 A 
HETATM    5  N2  UNL     1       4.445  16.413  21.985  1.00  0.00    -0.139 N 
ATOM      6  H2  UNL     1       4.856  17.341  22.093  1.00  0.00     0.205 HD
HETATM    7  N4  UNL     1       3.391  16.354  24.148  1.00  0.00    -0.188 N 
ATOM      8  H4  UNL     1       3.653  17.283  24.476  1.00  0.00     0.184 HD
HETATM    9  C10 UNL     1       2.556  15.486  24.795  1.00  0.00     0.084 A 
ENDROOT
BRANCH   9  10
HETATM   10  C11 UNL     1       1.522  15.917  25.782  1.00  0.00     0.085 C 
BRANCH  10  11
HETATM   11  S1  UNL     1       1.756  16.919  27.174  1.00  0.00    -0.062 SA
BRANCH  11  12
HETATM   12  C12 UNL     1       1.078  18.537  26.774  1.00  0.00     0.164 A 
HETATM   13  N5  UNL     1       1.633  19.527  25.994  1.00  0.00    -0.331 N 
HETATM   14  C13 UNL     1       0.667  20.535  26.002  1.00  0.00     0.199 A 
ATOM     15  H5  UNL     1       2.537  19.525  25.521  1.00  0.00     0.168 HD
HETATM   16  N6  UNL     1      -0.377  20.186  26.699  1.00  0.00    -0.294 N 
HETATM   17  N7  UNL     1      -0.124  18.965  27.181  1.00  0.00    -0.279 N 
ATOM     18  H6  UNL     1      -1.222  20.738  26.848  1.00  0.00     0.187 HD
ATOM     19  H7  UNL     1      -0.758  18.432  27.777  1.00  0.00     0.189 HD
ENDBRANCH  11  12
ENDBRANCH  10  11
ENDBRANCH   9  10
BRANCH   1  20
HETATM   20  C7  UNL     1       1.859  13.067  24.225  1.00  0.00    -0.001 A 
HETATM   21  C2  UNL     1       1.272  12.336  23.189  1.00  0.00    -0.049 A 
HETATM   22  C1  UNL     1       1.340  12.816  21.774  1.00  0.00     0.049 C 
HETATM   23  C3  UNL     1       0.610  11.138  23.431  1.00  0.00     0.007 A 
HETATM   24  C4  UNL     1       0.504  10.608  24.682  1.00  0.00     0.001 A 
HETATM   25  C5  UNL     1       1.072  11.296  25.712  1.00  0.00     0.001 A 
HETATM   26  C6  UNL     1       1.736  12.509  25.500  1.00  0.00     0.014 A 
ENDBRANCH   1  20
BRANCH   5  27
HETATM   27  N3  UNL     1       4.479  15.669  20.746  1.00  0.00    -0.331 N 
ATOM     28  H32 UNL     1       3.807  14.932  20.531  1.00  0.00     0.177 HD
ATOM     29  H31 UNL     1       5.234  15.957  20.124  1.00  0.00     0.177 HD
ENDBRANCH   5  27
TORSDOF 5
ENDMDL
