MODEL 1
REMARK VINA RESULT: -7.330495735      0.000      0.000
REMARK  7 active torsions:
REMARK  status: ('A' for Active; 'I' for Inactive)
REMARK    1  A    between atoms: C2_2  and  C3_3 
REMARK    2  A    between atoms: C3_3  and  C4_4 
REMARK    3  A    between atoms: C4_4  and  N1_5 
REMARK       I    between atoms: N1_5  and  C5_7 
REMARK    4  A    between atoms: C5_7  and  C6_9 
REMARK    5  A    between atoms: C8_11  and  C9_12 
REMARK    6  A    between atoms: C9_12  and  C10_13 
REMARK       I    between atoms: N3_24  and  C19_25 
REMARK    7  A    between atoms: C19_25  and  C20_27 
ROOT
HETATM    1  C6  UNL     1       1.540   1.387  18.161  1.00  0.00     0.116 C 
HETATM    2  C7  UNL     1       0.480   0.335  17.940  1.00  0.00     0.049 C 
HETATM    3  C8  UNL     1       1.841   2.211  16.967  1.00  0.00     0.029 C 
HETATM    4  C17 UNL     1       1.643   3.648  17.315  1.00  0.00     0.027 C 
HETATM    5  C18 UNL     1       1.688   3.592  18.834  1.00  0.00     0.127 C 
HETATM    6  N3  UNL     1       1.010   2.333  19.121  1.00  0.00    -0.333 N 
HETATM    7  C19 UNL     1       0.046   2.174  20.156  1.00  0.00     0.225 C 
HETATM    8  O2  UNL     1      -0.528   1.074  20.379  1.00  0.00    -0.273 OA
ENDROOT
BRANCH   3   9
HETATM    9  C9  UNL     1       1.139   1.793  15.704  1.00  0.00     0.048 C 
BRANCH   9  10
HETATM   10  C10 UNL     1       2.043   1.839  14.520  1.00  0.00    -0.034 A 
HETATM   11  C11 UNL     1       3.393   2.110  14.488  1.00  0.00     0.095 A 
HETATM   12  N2  UNL     1       3.870   2.063  13.242  1.00  0.00    -0.368 N 
HETATM   13  C12 UNL     1       2.834   1.757  12.418  1.00  0.00     0.015 A 
ATOM     14  H2  UNL     1       4.836   2.227  12.960  1.00  0.00     0.165 HD
HETATM   15  C13 UNL     1       1.707   1.616  13.194  1.00  0.00    -0.028 A 
HETATM   16  C16 UNL     1       2.514   1.526  10.972  1.00  0.00     0.058 C 
HETATM   17  C14 UNL     1       0.540   1.278  12.335  1.00  0.00     0.041 C 
HETATM   18  C15 UNL     1       1.216   0.771  11.063  1.00  0.00     0.011 C 
ENDBRANCH   9  10
ENDBRANCH   3   9
BRANCH   1  19
HETATM   19  C5  UNL     1       2.739   0.693  18.648  1.00  0.00     0.246 C 
HETATM   20  N1  UNL     1       3.997   0.994  18.098  1.00  0.00    -0.359 N 
ATOM     21  H1  UNL     1       4.023   1.699  17.361  1.00  0.00     0.162 HD
HETATM   22  O1  UNL     1       2.641  -0.160  19.548  1.00  0.00    -0.271 OA
BRANCH  20  23
HETATM   23  C4  UNL     1       5.256   0.398  18.479  1.00  0.00     0.122 C 
BRANCH  23  24
HETATM   24  C3  UNL     1       6.088   1.377  19.231  1.00  0.00     0.019 C 
BRANCH  24  25
HETATM   25  C2  UNL     1       5.402   2.718  19.399  1.00  0.00    -0.003 C 
HETATM   26  C1  UNL     1       6.270   3.858  18.943  1.00  0.00     0.005 C 
ENDBRANCH  24  25
ENDBRANCH  23  24
ENDBRANCH  20  23
ENDBRANCH   1  19
BRANCH   7  27
HETATM   27  C20 UNL     1      -0.340   3.289  21.034  1.00  0.00     0.078 C 
HETATM   28  C21 UNL     1      -0.586   2.920  22.462  1.00  0.00     0.014 C 
HETATM   29  C22 UNL     1      -0.533   4.222  23.261  1.00  0.00     0.005 C 
HETATM   30  C23 UNL     1      -1.596   5.183  22.766  1.00  0.00    -0.019 C 
HETATM   31  C24 UNL     1      -2.944   4.728  23.273  1.00  0.00     0.010 C 
HETATM   32  C25 UNL     1      -1.567   5.377  21.288  1.00  0.00     0.005 C 
HETATM   33  C26 UNL     1      -1.521   4.062  20.533  1.00  0.00     0.014 C 
ENDBRANCH   7  27
TORSDOF 7
ENDMDL
MODEL 2
REMARK VINA RESULT: -7.180046718      3.821      9.369
REMARK  7 active torsions:
REMARK  status: ('A' for Active; 'I' for Inactive)
REMARK    1  A    between atoms: C2_2  and  C3_3 
REMARK    2  A    between atoms: C3_3  and  C4_4 
REMARK    3  A    between atoms: C4_4  and  N1_5 
REMARK       I    between atoms: N1_5  and  C5_7 
REMARK    4  A    between atoms: C5_7  and  C6_9 
REMARK    5  A    between atoms: C8_11  and  C9_12 
REMARK    6  A    between atoms: C9_12  and  C10_13 
REMARK       I    between atoms: N3_24  and  C19_25 
REMARK    7  A    between atoms: C19_25  and  C20_27 
ROOT
HETATM    1  C6  UNL     1      -1.919   3.752  21.593  1.00  0.00     0.116 C 
HETATM    2  C7  UNL     1      -2.063   4.977  20.722  1.00  0.00     0.049 C 
HETATM    3  C8  UNL     1      -3.131   2.902  21.659  1.00  0.00     0.029 C 
HETATM    4  C17 UNL     1      -2.767   1.518  21.236  1.00  0.00     0.027 C 
HETATM    5  C18 UNL     1      -1.256   1.548  21.400  1.00  0.00     0.127 C 
HETATM    6  N3  UNL     1      -0.921   2.903  20.977  1.00  0.00    -0.333 N 
HETATM    7  C19 UNL     1       0.181   3.217  20.133  1.00  0.00     0.225 C 
HETATM    8  O2  UNL     1       0.444   4.397  19.779  1.00  0.00    -0.273 OA
ENDROOT
BRANCH   3   9
HETATM    9  C9  UNL     1      -4.339   3.451  20.951  1.00  0.00     0.048 C 
BRANCH   9  10
HETATM   10  C10 UNL     1      -5.300   4.088  21.896  1.00  0.00    -0.034 A 
HETATM   11  C11 UNL     1      -5.775   3.593  23.091  1.00  0.00     0.095 A 
HETATM   12  N2  UNL     1      -6.626   4.445  23.667  1.00  0.00    -0.368 N 
HETATM   13  C12 UNL     1      -6.732   5.530  22.856  1.00  0.00     0.015 A 
ATOM     14  H2  UNL     1      -7.109   4.307  24.554  1.00  0.00     0.165 HD
HETATM   15  C13 UNL     1      -5.919   5.321  21.766  1.00  0.00    -0.028 A 
HETATM   16  C16 UNL     1      -7.424   6.856  22.755  1.00  0.00     0.058 C 
HETATM   17  C14 UNL     1      -5.997   6.487  20.844  1.00  0.00     0.041 C 
HETATM   18  C15 UNL     1      -6.560   7.576  21.756  1.00  0.00     0.011 C 
ENDBRANCH   9  10
ENDBRANCH   3   9
BRANCH   1  19
HETATM   19  C5  UNL     1      -1.522   4.219  22.928  1.00  0.00     0.246 C 
HETATM   20  N1  UNL     1      -2.435   4.934  23.723  1.00  0.00    -0.359 N 
ATOM     21  H1  UNL     1      -3.359   5.104  23.326  1.00  0.00     0.162 HD
HETATM   22  O1  UNL     1      -0.378   3.983  23.355  1.00  0.00    -0.271 OA
BRANCH  20  23
HETATM   23  C4  UNL     1      -2.187   5.449  25.049  1.00  0.00     0.122 C 
BRANCH  23  24
HETATM   24  C3  UNL     1      -2.976   6.688  25.282  1.00  0.00     0.019 C 
BRANCH  24  25
HETATM   25  C2  UNL     1      -3.727   7.142  24.046  1.00  0.00    -0.003 C 
HETATM   26  C1  UNL     1      -3.718   8.638  23.896  1.00  0.00     0.005 C 
ENDBRANCH  24  25
ENDBRANCH  23  24
ENDBRANCH  20  23
ENDBRANCH   1  19
BRANCH   7  27
HETATM   27  C20 UNL     1       1.086   2.176  19.622  1.00  0.00     0.078 C 
HETATM   28  C21 UNL     1       1.586   1.207  20.645  1.00  0.00     0.014 C 
HETATM   29  C22 UNL     1       2.119  -0.001  19.874  1.00  0.00     0.005 C 
HETATM   30  C23 UNL     1       3.241   0.424  18.948  1.00  0.00    -0.019 C 
HETATM   31  C24 UNL     1       4.488   0.668  19.765  1.00  0.00     0.010 C 
HETATM   32  C25 UNL     1       2.878   1.585  18.083  1.00  0.00     0.005 C 
HETATM   33  C26 UNL     1       2.262   2.723  18.873  1.00  0.00     0.014 C 
ENDBRANCH   7  27
TORSDOF 7
ENDMDL
MODEL 3
REMARK VINA RESULT: -6.939174223      3.611      8.935
REMARK  7 active torsions:
REMARK  status: ('A' for Active; 'I' for Inactive)
REMARK    1  A    between atoms: C2_2  and  C3_3 
REMARK    2  A    between atoms: C3_3  and  C4_4 
REMARK    3  A    between atoms: C4_4  and  N1_5 
REMARK       I    between atoms: N1_5  and  C5_7 
REMARK    4  A    between atoms: C5_7  and  C6_9 
REMARK    5  A    between atoms: C8_11  and  C9_12 
REMARK    6  A    between atoms: C9_12  and  C10_13 
REMARK       I    between atoms: N3_24  and  C19_25 
REMARK    7  A    between atoms: C19_25  and  C20_27 
ROOT
HETATM    1  C6  UNL     1      -1.412   3.629  21.118  1.00  0.00     0.116 C 
HETATM    2  C7  UNL     1      -1.881   4.365  19.885  1.00  0.00     0.049 C 
HETATM    3  C8  UNL     1      -2.303   2.527  21.548  1.00  0.00     0.029 C 
HETATM    4  C17 UNL     1      -1.506   1.266  21.612  1.00  0.00     0.027 C 
HETATM    5  C18 UNL     1      -0.089   1.816  21.663  1.00  0.00     0.127 C 
HETATM    6  N3  UNL     1      -0.168   2.970  20.776  1.00  0.00    -0.333 N 
HETATM    7  C19 UNL     1       0.826   3.293  19.811  1.00  0.00     0.225 C 
HETATM    8  O2  UNL     1       0.729   4.295  19.053  1.00  0.00    -0.273 OA
ENDROOT
BRANCH   3   9
HETATM    9  C9  UNL     1      -3.582   2.393  20.769  1.00  0.00     0.048 C 
BRANCH   9  10
HETATM   10  C10 UNL     1      -4.727   3.057  21.454  1.00  0.00    -0.034 A 
HETATM   11  C11 UNL     1      -5.189   2.849  22.736  1.00  0.00     0.095 A 
HETATM   12  N2  UNL     1      -6.240   3.626  23.006  1.00  0.00    -0.368 N 
HETATM   13  C12 UNL     1      -6.497   4.369  21.897  1.00  0.00     0.015 A 
ATOM     14  H2  UNL     1      -6.757   3.657  23.884  1.00  0.00     0.165 HD
HETATM   15  C13 UNL     1      -5.572   4.027  20.939  1.00  0.00    -0.028 A 
HETATM   16  C16 UNL     1      -7.434   5.418  21.380  1.00  0.00     0.058 C 
HETATM   17  C14 UNL     1      -5.808   4.818  19.701  1.00  0.00     0.041 C 
HETATM   18  C15 UNL     1      -6.654   5.979  20.221  1.00  0.00     0.011 C 
ENDBRANCH   9  10
ENDBRANCH   3   9
BRANCH   1  19
HETATM   19  C5  UNL     1      -1.251   4.631  22.180  1.00  0.00     0.246 C 
HETATM   20  N1  UNL     1      -2.053   4.568  23.333  1.00  0.00    -0.359 N 
ATOM     21  H1  UNL     1      -2.733   3.810  23.382  1.00  0.00     0.162 HD
HETATM   22  O1  UNL     1      -0.404   5.535  22.060  1.00  0.00    -0.271 OA
BRANCH  20  23
HETATM   23  C4  UNL     1      -2.003   5.477  24.454  1.00  0.00     0.122 C 
BRANCH  23  24
HETATM   24  C3  UNL     1      -3.309   6.169  24.621  1.00  0.00     0.019 C 
BRANCH  24  25
HETATM   25  C2  UNL     1      -3.950   6.533  23.297  1.00  0.00    -0.003 C 
HETATM   26  C1  UNL     1      -5.082   7.508  23.465  1.00  0.00     0.005 C 
ENDBRANCH  24  25
ENDBRANCH  23  24
ENDBRANCH  20  23
ENDBRANCH   1  19
BRANCH   7  27
HETATM   27  C20 UNL     1       2.035   2.473  19.639  1.00  0.00     0.078 C 
HETATM   28  C21 UNL     1       3.088   3.066  18.758  1.00  0.00     0.014 C 
HETATM   29  C22 UNL     1       4.381   2.309  19.059  1.00  0.00     0.005 C 
HETATM   30  C23 UNL     1       4.204   0.834  18.761  1.00  0.00    -0.019 C 
HETATM   31  C24 UNL     1       4.231   0.628  17.265  1.00  0.00     0.010 C 
HETATM   32  C25 UNL     1       2.994   0.247  19.405  1.00  0.00     0.005 C 
HETATM   33  C26 UNL     1       1.750   1.081  19.166  1.00  0.00     0.014 C 
ENDBRANCH   7  27
TORSDOF 7
ENDMDL
MODEL 4
REMARK VINA RESULT: -6.905541558      3.605      9.329
REMARK  7 active torsions:
REMARK  status: ('A' for Active; 'I' for Inactive)
REMARK    1  A    between atoms: C2_2  and  C3_3 
REMARK    2  A    between atoms: C3_3  and  C4_4 
REMARK    3  A    between atoms: C4_4  and  N1_5 
REMARK       I    between atoms: N1_5  and  C5_7 
REMARK    4  A    between atoms: C5_7  and  C6_9 
REMARK    5  A    between atoms: C8_11  and  C9_12 
REMARK    6  A    between atoms: C9_12  and  C10_13 
REMARK       I    between atoms: N3_24  and  C19_25 
REMARK    7  A    between atoms: C19_25  and  C20_27 
ROOT
HETATM    1  C6  UNL     1      -1.528   4.422  20.940  1.00  0.00     0.116 C 
HETATM    2  C7  UNL     1      -2.226   4.671  19.624  1.00  0.00     0.049 C 
HETATM    3  C8  UNL     1      -2.310   3.612  21.903  1.00  0.00     0.029 C 
HETATM    4  C17 UNL     1      -1.500   2.423  22.296  1.00  0.00     0.027 C 
HETATM    5  C18 UNL     1      -0.105   2.869  21.887  1.00  0.00     0.127 C 
HETATM    6  N3  UNL     1      -0.361   3.612  20.659  1.00  0.00    -0.333 N 
HETATM    7  C19 UNL     1       0.434   3.495  19.485  1.00  0.00     0.225 C 
HETATM    8  O2  UNL     1       0.186   4.146  18.435  1.00  0.00    -0.273 OA
ENDROOT
BRANCH   3   9
HETATM    9  C9  UNL     1      -3.709   3.272  21.469  1.00  0.00     0.048 C 
BRANCH   9  10
HETATM   10  C10 UNL     1      -4.736   3.982  22.284  1.00  0.00    -0.034 A 
HETATM   11  C11 UNL     1      -5.428   3.514  23.380  1.00  0.00     0.095 A 
HETATM   12  N2  UNL     1      -6.271   4.433  23.852  1.00  0.00    -0.368 N 
HETATM   13  C12 UNL     1      -6.154   5.538  23.070  1.00  0.00     0.015 A 
ATOM     14  H2  UNL     1      -6.892   4.327  24.654  1.00  0.00     0.165 HD
HETATM   15  C13 UNL     1      -5.212   5.271  22.105  1.00  0.00    -0.028 A 
HETATM   16  C16 UNL     1      -6.697   6.926  22.912  1.00  0.00     0.058 C 
HETATM   17  C14 UNL     1      -5.044   6.456  21.220  1.00  0.00     0.041 C 
HETATM   18  C15 UNL     1      -5.631   7.578  22.074  1.00  0.00     0.011 C 
ENDBRANCH   9  10
ENDBRANCH   3   9
BRANCH   1  19
HETATM   19  C5  UNL     1      -1.187   5.736  21.501  1.00  0.00     0.246 C 
HETATM   20  N1  UNL     1      -1.801   6.175  22.687  1.00  0.00    -0.359 N 
ATOM     21  H1  UNL     1      -2.479   5.546  23.117  1.00  0.00     0.162 HD
HETATM   22  O1  UNL     1      -0.354   6.460  20.927  1.00  0.00    -0.271 OA
BRANCH  20  23
HETATM   23  C4  UNL     1      -1.562   7.434  23.352  1.00  0.00     0.122 C 
BRANCH  23  24
HETATM   24  C3  UNL     1      -2.714   7.788  24.225  1.00  0.00     0.019 C 
BRANCH  24  25
HETATM   25  C2  UNL     1      -2.910   6.803  25.360  1.00  0.00    -0.003 C 
HETATM   26  C1  UNL     1      -2.518   7.387  26.689  1.00  0.00     0.005 C 
ENDBRANCH  24  25
ENDBRANCH  23  24
ENDBRANCH  20  23
ENDBRANCH   1  19
BRANCH   7  27
HETATM   27  C20 UNL     1       1.601   2.601  19.425  1.00  0.00     0.078 C 
HETATM   28  C21 UNL     1       2.806   3.171  18.746  1.00  0.00     0.014 C 
HETATM   29  C22 UNL     1       3.992   2.304  19.169  1.00  0.00     0.005 C 
HETATM   30  C23 UNL     1       3.767   0.867  18.743  1.00  0.00    -0.019 C 
HETATM   31  C24 UNL     1       3.997   0.754  17.254  1.00  0.00     0.010 C 
HETATM   32  C25 UNL     1       2.441   0.331  19.167  1.00  0.00     0.005 C 
HETATM   33  C26 UNL     1       1.301   1.266  18.817  1.00  0.00     0.014 C 
ENDBRANCH   7  27
TORSDOF 7
ENDMDL
MODEL 5
REMARK VINA RESULT: -6.760448251      4.586      8.437
REMARK  7 active torsions:
REMARK  status: ('A' for Active; 'I' for Inactive)
REMARK    1  A    between atoms: C2_2  and  C3_3 
REMARK    2  A    between atoms: C3_3  and  C4_4 
REMARK    3  A    between atoms: C4_4  and  N1_5 
REMARK       I    between atoms: N1_5  and  C5_7 
REMARK    4  A    between atoms: C5_7  and  C6_9 
REMARK    5  A    between atoms: C8_11  and  C9_12 
REMARK    6  A    between atoms: C9_12  and  C10_13 
REMARK       I    between atoms: N3_24  and  C19_25 
REMARK    7  A    between atoms: C19_25  and  C20_27 
ROOT
HETATM    1  C6  UNL     1      -2.661   4.786  22.136  1.00  0.00     0.116 C 
HETATM    2  C7  UNL     1      -2.955   5.689  20.963  1.00  0.00     0.049 C 
HETATM    3  C8  UNL     1      -1.499   3.889  21.941  1.00  0.00     0.029 C 
HETATM    4  C17 UNL     1      -0.527   4.118  23.050  1.00  0.00     0.027 C 
HETATM    5  C18 UNL     1      -1.410   4.808  24.078  1.00  0.00     0.127 C 
HETATM    6  N3  UNL     1      -2.275   5.635  23.244  1.00  0.00    -0.333 N 
HETATM    7  C19 UNL     1      -2.607   6.985  23.547  1.00  0.00     0.225 C 
HETATM    8  O2  UNL     1      -3.353   7.678  22.805  1.00  0.00    -0.273 OA
ENDROOT
BRANCH   3   9
HETATM    9  C9  UNL     1      -0.876   3.933  20.574  1.00  0.00     0.048 C 
BRANCH   9  10
HETATM   10  C10 UNL     1       0.189   2.903  20.410  1.00  0.00    -0.034 A 
HETATM   11  C11 UNL     1       1.341   2.980  19.657  1.00  0.00     0.095 A 
HETATM   12  N2  UNL     1       2.059   1.859  19.751  1.00  0.00    -0.368 N 
HETATM   13  C12 UNL     1       1.390   1.011  20.575  1.00  0.00     0.015 A 
ATOM     14  H2  UNL     1       2.949   1.673  19.289  1.00  0.00     0.165 HD
HETATM   15  C13 UNL     1       0.240   1.643  20.985  1.00  0.00    -0.028 A 
HETATM   16  C16 UNL     1       1.485  -0.360  21.174  1.00  0.00     0.058 C 
HETATM   17  C14 UNL     1      -0.531   0.753  21.895  1.00  0.00     0.041 C 
HETATM   18  C15 UNL     1       0.533  -0.251  22.335  1.00  0.00     0.011 C 
ENDBRANCH   9  10
ENDBRANCH   3   9
BRANCH   1  19
HETATM   19  C5  UNL     1      -3.886   4.022  22.407  1.00  0.00     0.246 C 
HETATM   20  N1  UNL     1      -4.953   4.624  23.097  1.00  0.00    -0.359 N 
ATOM     21  H1  UNL     1      -4.824   5.593  23.391  1.00  0.00     0.162 HD
HETATM   22  O1  UNL     1      -3.981   2.842  22.025  1.00  0.00    -0.271 OA
BRANCH  20  23
HETATM   23  C4  UNL     1      -6.212   4.000  23.428  1.00  0.00     0.122 C 
BRANCH  23  24
HETATM   24  C3  UNL     1      -7.347   4.829  22.939  1.00  0.00     0.019 C 
BRANCH  24  25
HETATM   25  C2  UNL     1      -7.212   5.198  21.475  1.00  0.00    -0.003 C 
HETATM   26  C1  UNL     1      -7.434   4.017  20.572  1.00  0.00     0.005 C 
ENDBRANCH  24  25
ENDBRANCH  23  24
ENDBRANCH  20  23
ENDBRANCH   1  19
BRANCH   7  27
HETATM   27  C20 UNL     1      -2.099   7.656  24.754  1.00  0.00     0.078 C 
HETATM   28  C21 UNL     1      -2.899   7.426  25.996  1.00  0.00     0.014 C 
HETATM   29  C22 UNL     1      -2.000   7.815  27.169  1.00  0.00     0.005 C 
HETATM   30  C23 UNL     1      -1.594   9.271  27.056  1.00  0.00    -0.019 C 
HETATM   31  C24 UNL     1      -2.767  10.139  27.447  1.00  0.00     0.010 C 
HETATM   32  C25 UNL     1      -1.034   9.621  25.719  1.00  0.00     0.005 C 
HETATM   33  C26 UNL     1      -1.907   9.130  24.580  1.00  0.00     0.014 C 
ENDBRANCH   7  27
TORSDOF 7
ENDMDL
