MODEL 1
REMARK VINA RESULT: -5.354561066      0.000      0.000
REMARK  3 active torsions:
REMARK  status: ('A' for Active; 'I' for Inactive)
REMARK    1  A    between atoms: C5_5  and  O1_6 
REMARK    2  A    between atoms: O1_6  and  N1_7 
REMARK    3  A    between atoms: C6_10  and  O4_11 
ROOT
HETATM    1  C1  UNL     1       5.865   4.653   8.381  1.00  0.00     0.010 C 
HETATM    2  C2  UNL     1       6.626   3.372   8.590  1.00  0.00    -0.016 C 
HETATM    3  C3  UNL     1       6.995   3.113  10.011  1.00  0.00     0.007 C 
HETATM    4  C4  UNL     1       6.539   1.742  10.427  1.00  0.00     0.038 C 
HETATM    5  C5  UNL     1       7.039   0.697   9.452  1.00  0.00     0.187 C 
HETATM    6  C6  UNL     1       6.614   1.005   8.030  1.00  0.00     0.150 C 
HETATM    7  C7  UNL     1       5.776   2.250   8.000  1.00  0.00     0.038 C 
ENDROOT
BRANCH   5   8
HETATM    8  O1  UNL     1       6.480  -0.548   9.864  1.00  0.00    -0.213 OA
BRANCH   8   9
HETATM    9  N1  UNL     1       6.936  -1.248  10.944  1.00  0.00     0.005 N 
HETATM   10  O2  UNL     1       8.072  -1.748  10.893  1.00  0.00    -0.511 OA
HETATM   11  O3  UNL     1       6.151  -1.393  12.058  1.00  0.00    -0.511 OA
ENDBRANCH   8   9
ENDBRANCH   5   8
BRANCH   6  12
HETATM   12  O4  UNL     1       7.723   1.214   7.227  1.00  0.00    -0.393 OA
ATOM     13  H4  UNL     1       7.539   0.954   6.332  1.00  0.00     0.210 HD
ENDBRANCH   6  12
TORSDOF 3
ENDMDL
MODEL 2
REMARK VINA RESULT: -5.294628443      1.400      2.439
REMARK  3 active torsions:
REMARK  status: ('A' for Active; 'I' for Inactive)
REMARK    1  A    between atoms: C5_5  and  O1_6 
REMARK    2  A    between atoms: O1_6  and  N1_7 
REMARK    3  A    between atoms: C6_10  and  O4_11 
ROOT
HETATM    1  C1  UNL     1       6.009   4.639   8.376  1.00  0.00     0.010 C 
HETATM    2  C2  UNL     1       5.884   3.350   9.143  1.00  0.00    -0.016 C 
HETATM    3  C3  UNL     1       5.981   2.129   8.292  1.00  0.00     0.007 C 
HETATM    4  C4  UNL     1       7.023   1.193   8.839  1.00  0.00     0.038 C 
HETATM    5  C5  UNL     1       6.768   0.914  10.306  1.00  0.00     0.187 C 
HETATM    6  C6  UNL     1       6.702   2.191  11.119  1.00  0.00     0.150 C 
HETATM    7  C7  UNL     1       6.949   3.379  10.236  1.00  0.00     0.038 C 
ENDROOT
BRANCH   5   8
HETATM    8  O1  UNL     1       7.851   0.106  10.763  1.00  0.00    -0.213 OA
BRANCH   8   9
HETATM    9  N1  UNL     1       7.821  -1.259  10.747  1.00  0.00     0.005 N 
HETATM   10  O2  UNL     1       6.829  -1.838  11.221  1.00  0.00    -0.511 OA
HETATM   11  O3  UNL     1       8.865  -1.969  10.217  1.00  0.00    -0.511 OA
ENDBRANCH   8   9
ENDBRANCH   5   8
BRANCH   6  12
HETATM   12  O4  UNL     1       5.449   2.336  11.692  1.00  0.00    -0.393 OA
ATOM     13  H4  UNL     1       5.447   3.058  12.309  1.00  0.00     0.210 HD
ENDBRANCH   6  12
TORSDOF 3
ENDMDL
MODEL 3
REMARK VINA RESULT: -5.276075418      0.505      1.022
REMARK  3 active torsions:
REMARK  status: ('A' for Active; 'I' for Inactive)
REMARK    1  A    between atoms: C5_5  and  O1_6 
REMARK    2  A    between atoms: O1_6  and  N1_7 
REMARK    3  A    between atoms: C6_10  and  O4_11 
ROOT
HETATM    1  C1  UNL     1       5.686   4.761   8.334  1.00  0.00     0.010 C 
HETATM    2  C2  UNL     1       6.519   3.525   8.543  1.00  0.00    -0.016 C 
HETATM    3  C3  UNL     1       6.978   3.334   9.949  1.00  0.00     0.007 C 
HETATM    4  C4  UNL     1       6.612   1.960  10.437  1.00  0.00     0.038 C 
HETATM    5  C5  UNL     1       7.107   0.905   9.470  1.00  0.00     0.187 C 
HETATM    6  C6  UNL     1       6.589   1.140   8.065  1.00  0.00     0.150 C 
HETATM    7  C7  UNL     1       5.692   2.344   8.040  1.00  0.00     0.038 C 
ENDROOT
BRANCH   5   8
HETATM    8  O1  UNL     1       6.632  -0.349   9.955  1.00  0.00    -0.213 OA
BRANCH   8   9
HETATM    9  N1  UNL     1       7.434  -1.256  10.586  1.00  0.00     0.005 N 
HETATM   10  O2  UNL     1       6.946  -1.957  11.488  1.00  0.00    -0.511 OA
HETATM   11  O3  UNL     1       8.749  -1.388  10.226  1.00  0.00    -0.511 OA
ENDBRANCH   8   9
ENDBRANCH   5   8
BRANCH   6  12
HETATM   12  O4  UNL     1       7.641   1.371   7.193  1.00  0.00    -0.393 OA
ATOM     13  H4  UNL     1       7.326   1.425   6.299  1.00  0.00     0.210 HD
ENDBRANCH   6  12
TORSDOF 3
ENDMDL
MODEL 4
REMARK VINA RESULT: -5.206290258      1.341      1.919
REMARK  3 active torsions:
REMARK  status: ('A' for Active; 'I' for Inactive)
REMARK    1  A    between atoms: C5_5  and  O1_6 
REMARK    2  A    between atoms: O1_6  and  N1_7 
REMARK    3  A    between atoms: C6_10  and  O4_11 
ROOT
HETATM    1  C1  UNL     1       6.534   4.123   8.254  1.00  0.00     0.010 C 
HETATM    2  C2  UNL     1       7.065   3.070   9.188  1.00  0.00    -0.016 C 
HETATM    3  C3  UNL     1       7.420   3.585  10.541  1.00  0.00     0.007 C 
HETATM    4  C4  UNL     1       6.743   2.769  11.607  1.00  0.00     0.038 C 
HETATM    5  C5  UNL     1       7.025   1.295  11.405  1.00  0.00     0.187 C 
HETATM    6  C6  UNL     1       6.622   0.827  10.022  1.00  0.00     0.150 C 
HETATM    7  C7  UNL     1       6.015   1.963   9.250  1.00  0.00     0.038 C 
ENDROOT
BRANCH   5   8
HETATM    8  O1  UNL     1       6.267   0.595  12.391  1.00  0.00    -0.213 OA
BRANCH   8   9
HETATM    9  N1  UNL     1       6.184  -0.767  12.439  1.00  0.00     0.005 N 
HETATM   10  O2  UNL     1       5.325  -1.285  13.171  1.00  0.00    -0.511 OA
HETATM   11  O3  UNL     1       7.034  -1.540  11.693  1.00  0.00    -0.511 OA
ENDBRANCH   8   9
ENDBRANCH   5   8
BRANCH   6  12
HETATM   12  O4  UNL     1       7.729   0.375   9.321  1.00  0.00    -0.393 OA
ATOM     13  H4  UNL     1       7.540   0.335   8.391  1.00  0.00     0.210 HD
ENDBRANCH   6  12
TORSDOF 3
ENDMDL
MODEL 5
REMARK VINA RESULT: -5.174513088      1.181      2.121
REMARK  3 active torsions:
REMARK  status: ('A' for Active; 'I' for Inactive)
REMARK    1  A    between atoms: C5_5  and  O1_6 
REMARK    2  A    between atoms: O1_6  and  N1_7 
REMARK    3  A    between atoms: C6_10  and  O4_11 
ROOT
HETATM    1  C1  UNL     1       5.782   4.733   8.321  1.00  0.00     0.010 C 
HETATM    2  C2  UNL     1       5.782   3.345   8.904  1.00  0.00    -0.016 C 
HETATM    3  C3  UNL     1       5.732   2.261   7.882  1.00  0.00     0.007 C 
HETATM    4  C4  UNL     1       6.847   1.277   8.107  1.00  0.00     0.038 C 
HETATM    5  C5  UNL     1       6.840   0.787   9.540  1.00  0.00     0.187 C 
HETATM    6  C6  UNL     1       6.915   1.932  10.528  1.00  0.00     0.150 C 
HETATM    7  C7  UNL     1       7.016   3.240   9.797  1.00  0.00     0.038 C 
ENDROOT
BRANCH   5   8
HETATM    8  O1  UNL     1       7.981  -0.056   9.689  1.00  0.00    -0.213 OA
BRANCH   8   9
HETATM    9  N1  UNL     1       7.946  -1.247  10.356  1.00  0.00     0.005 N 
HETATM   10  O2  UNL     1       8.921  -2.011  10.261  1.00  0.00    -0.511 OA
HETATM   11  O3  UNL     1       6.856  -1.586  11.113  1.00  0.00    -0.511 OA
ENDBRANCH   8   9
ENDBRANCH   5   8
BRANCH   6  12
HETATM   12  O4  UNL     1       5.776   1.968  11.316  1.00  0.00    -0.393 OA
ATOM     13  H4  UNL     1       5.322   2.795  11.207  1.00  0.00     0.210 HD
ENDBRANCH   6  12
TORSDOF 3
ENDMDL
