MODEL 1
REMARK VINA RESULT: -3.707452901      0.000      0.000
REMARK  1 active torsions:
REMARK  status: ('A' for Active; 'I' for Inactive)
REMARK    1  A    between atoms: C2_2  and  C3_4 
ROOT
HETATM    1  C3  UNL     1       3.695   4.408   7.608  1.00  0.00     0.172 C 
HETATM    2  N1  UNL     1       2.374   4.216   8.208  1.00  0.00    -0.155 NA
HETATM    3  S1  UNL     1       1.272   3.884   6.839  1.00  0.00     0.009 SA
HETATM    4  S2  UNL     1       2.772   2.781   5.719  1.00  0.00    -0.073 SA
HETATM    5  C4  UNL     1       4.077   3.113   6.977  1.00  0.00     0.083 C 
HETATM    6  C5  UNL     1       5.376   3.122   6.291  1.00  0.00     0.024 C 
ENDROOT
BRANCH   1   7
HETATM    7  C2  UNL     1       3.671   5.594   6.777  1.00  0.00     0.144 C 
HETATM    8  C1  UNL     1       3.240   6.913   7.279  1.00  0.00     0.093 C 
HETATM    9  O1  UNL     1       4.012   5.542   5.608  1.00  0.00    -0.297 OA
ENDBRANCH   1   7
TORSDOF 1
ENDMDL
MODEL 2
REMARK VINA RESULT: -3.693925338      6.872      7.686
REMARK  1 active torsions:
REMARK  status: ('A' for Active; 'I' for Inactive)
REMARK    1  A    between atoms: C2_2  and  C3_4 
ROOT
HETATM    1  C3  UNL     1       7.743   0.005  11.169  1.00  0.00     0.172 C 
HETATM    2  N1  UNL     1       8.576  -0.665  10.169  1.00  0.00    -0.155 NA
HETATM    3  S1  UNL     1       7.462  -1.107   8.841  1.00  0.00     0.009 SA
HETATM    4  S2  UNL     1       6.249   0.679   9.076  1.00  0.00    -0.073 SA
HETATM    5  C4  UNL     1       7.219   1.249  10.535  1.00  0.00     0.083 C 
HETATM    6  C5  UNL     1       6.329   2.046  11.389  1.00  0.00     0.024 C 
ENDROOT
BRANCH   1   7
HETATM    7  C2  UNL     1       6.790  -0.943  11.706  1.00  0.00     0.144 C 
HETATM    8  C1  UNL     1       5.853  -0.605  12.795  1.00  0.00     0.093 C 
HETATM    9  O1  UNL     1       6.728  -2.079  11.269  1.00  0.00    -0.297 OA
ENDBRANCH   1   7
TORSDOF 1
ENDMDL
MODEL 3
REMARK VINA RESULT: -3.656268741      6.170      6.961
REMARK  1 active torsions:
REMARK  status: ('A' for Active; 'I' for Inactive)
REMARK    1  A    between atoms: C2_2  and  C3_4 
ROOT
HETATM    1  C3  UNL     1       8.170  -0.064   7.270  1.00  0.00     0.172 C 
HETATM    2  N1  UNL     1       7.426   1.196   7.280  1.00  0.00    -0.155 NA
HETATM    3  S1  UNL     1       5.818   0.794   7.953  1.00  0.00     0.009 SA
HETATM    4  S2  UNL     1       6.610  -0.687   9.330  1.00  0.00    -0.073 SA
HETATM    5  C4  UNL     1       8.326  -0.487   8.691  1.00  0.00     0.083 C 
HETATM    6  C5  UNL     1       9.032  -1.762   8.878  1.00  0.00     0.024 C 
ENDROOT
BRANCH   1   7
HETATM    7  C2  UNL     1       7.536  -0.983   6.348  1.00  0.00     0.144 C 
HETATM    8  C1  UNL     1       7.567  -2.447   6.530  1.00  0.00     0.093 C 
HETATM    9  O1  UNL     1       6.943  -0.570   5.367  1.00  0.00    -0.297 OA
ENDBRANCH   1   7
TORSDOF 1
ENDMDL
MODEL 4
REMARK VINA RESULT: -3.648348939      6.480      7.134
REMARK  1 active torsions:
REMARK  status: ('A' for Active; 'I' for Inactive)
REMARK    1  A    between atoms: C2_2  and  C3_4 
ROOT
HETATM    1  C3  UNL     1       6.806  -1.094   9.186  1.00  0.00     0.172 C 
HETATM    2  N1  UNL     1       6.491   0.060  10.029  1.00  0.00    -0.155 NA
HETATM    3  S1  UNL     1       7.062   1.488   9.115  1.00  0.00     0.009 SA
HETATM    4  S2  UNL     1       6.537   0.638   7.187  1.00  0.00    -0.073 SA
HETATM    5  C4  UNL     1       5.998  -0.955   7.941  1.00  0.00     0.083 C 
HETATM    6  C5  UNL     1       6.208  -2.020   6.951  1.00  0.00     0.024 C 
ENDROOT
BRANCH   1   7
HETATM    7  C2  UNL     1       8.244  -1.211   9.060  1.00  0.00     0.144 C 
HETATM    8  C1  UNL     1       8.905  -1.616   7.804  1.00  0.00     0.093 C 
HETATM    9  O1  UNL     1       8.973  -0.976  10.007  1.00  0.00    -0.297 OA
ENDBRANCH   1   7
TORSDOF 1
ENDMDL
MODEL 5
REMARK VINA RESULT: -3.640998034      6.306      7.048
REMARK  1 active torsions:
REMARK  status: ('A' for Active; 'I' for Inactive)
REMARK    1  A    between atoms: C2_2  and  C3_4 
ROOT
HETATM    1  C3  UNL     1       7.439   0.978  11.411  1.00  0.00     0.172 C 
HETATM    2  N1  UNL     1       8.005  -0.265  10.884  1.00  0.00    -0.155 NA
HETATM    3  S1  UNL     1       6.799  -0.878   9.714  1.00  0.00     0.009 SA
HETATM    4  S2  UNL     1       6.228   1.109   9.048  1.00  0.00    -0.073 SA
HETATM    5  C4  UNL     1       7.340   1.929  10.267  1.00  0.00     0.083 C 
HETATM    6  C5  UNL     1       6.760   3.236  10.603  1.00  0.00     0.024 C 
ENDROOT
BRANCH   1   7
HETATM    7  C2  UNL     1       6.234   0.673  12.154  1.00  0.00     0.144 C 
HETATM    8  C1  UNL     1       6.029  -0.610  12.853  1.00  0.00     0.093 C 
HETATM    9  O1  UNL     1       5.326   1.483  12.227  1.00  0.00    -0.297 OA
ENDBRANCH   1   7
TORSDOF 1
ENDMDL
