MODEL 1
REMARK VINA RESULT: -5.471270256      0.000      0.000
REMARK  4 active torsions:
REMARK  status: ('A' for Active; 'I' for Inactive)
REMARK    1  A    between atoms: C2_2  and  C3_3 
REMARK    2  A    between atoms: C3_3  and  N1_4 
REMARK    3  A    between atoms: C4_6  and  N2_7 
REMARK    4  A    between atoms: N2_7  and  C5_9 
ROOT
HETATM    1  N1  UNL     1       6.925  -2.542  11.021  1.00  0.00    -0.266 N 
HETATM    2  S1  UNL     1       6.940  -1.811   9.506  1.00  0.00     0.029 SA
HETATM    3  C4  UNL     1       7.189  -3.201   8.543  1.00  0.00     0.166 A 
HETATM    4  N3  UNL     1       7.245  -4.162   9.469  1.00  0.00    -0.287 N 
ATOM      5  H3  UNL     1       7.389  -5.135   9.203  1.00  0.00     0.172 HD
HETATM    6  C8  UNL     1       7.112  -3.826  10.723  1.00  0.00     0.334 A 
HETATM    7  O1  UNL     1       7.152  -4.685  11.693  1.00  0.00    -0.246 OA
ENDROOT
BRANCH   3   8
HETATM    8  N2  UNL     1       7.297  -3.315   7.240  1.00  0.00    -0.347 N 
ATOM      9  H2  UNL     1       8.202  -3.110   6.816  1.00  0.00     0.163 HD
BRANCH   8  10
HETATM   10  C5  UNL     1       6.235  -3.704   6.386  1.00  0.00     0.102 C 
HETATM   11  C6  UNL     1       6.251  -5.241   6.329  1.00  0.00     0.056 C 
HETATM   12  C7  UNL     1       6.508  -3.242   4.973  1.00  0.00     0.056 C 
HETATM   13 CL1  UNL     1       4.639  -3.180   6.969  1.00  0.00    -0.096 Cl
ENDBRANCH   8  10
ENDBRANCH   3   8
BRANCH   1  14
HETATM   14  C3  UNL     1       6.750  -1.907  12.312  1.00  0.00     0.142 C 
BRANCH  14  15
HETATM   15  C2  UNL     1       6.602  -0.417  12.218  1.00  0.00     0.016 C 
HETATM   16  C1  UNL     1       7.851   0.339  12.506  1.00  0.00     0.006 C 
ENDBRANCH  14  15
ENDBRANCH   1  14
TORSDOF 4
ENDMDL
MODEL 2
REMARK VINA RESULT: -5.455083945      2.693      5.695
REMARK  4 active torsions:
REMARK  status: ('A' for Active; 'I' for Inactive)
REMARK    1  A    between atoms: C2_2  and  C3_3 
REMARK    2  A    between atoms: C3_3  and  N1_4 
REMARK    3  A    between atoms: C4_6  and  N2_7 
REMARK    4  A    between atoms: N2_7  and  C5_9 
ROOT
HETATM    1  N1  UNL     1       8.012  -3.963   8.798  1.00  0.00    -0.266 N 
HETATM    2  S1  UNL     1       6.678  -3.446   9.684  1.00  0.00     0.029 SA
HETATM    3  C4  UNL     1       7.053  -4.178  11.181  1.00  0.00     0.166 A 
HETATM    4  N3  UNL     1       8.208  -4.788  10.899  1.00  0.00    -0.287 N 
ATOM      5  H3  UNL     1       8.701  -5.327  11.611  1.00  0.00     0.172 HD
HETATM    6  C8  UNL     1       8.691  -4.678   9.692  1.00  0.00     0.334 A 
HETATM    7  O1  UNL     1       9.803  -5.232   9.323  1.00  0.00    -0.246 OA
ENDROOT
BRANCH   3   8
HETATM    8  N2  UNL     1       6.396  -4.158  12.317  1.00  0.00    -0.347 N 
ATOM      9  H2  UNL     1       5.864  -4.989  12.577  1.00  0.00     0.163 HD
BRANCH   8  10
HETATM   10  C5  UNL     1       6.379  -3.054  13.206  1.00  0.00     0.102 C 
HETATM   11  C6  UNL     1       7.062  -3.517  14.504  1.00  0.00     0.056 C 
HETATM   12  C7  UNL     1       4.957  -2.718  13.591  1.00  0.00     0.056 C 
HETATM   13 CL1  UNL     1       7.258  -1.640  12.582  1.00  0.00    -0.096 Cl
ENDBRANCH   8  10
ENDBRANCH   3   8
BRANCH   1  14
HETATM   14  C3  UNL     1       8.319  -3.683   7.410  1.00  0.00     0.142 C 
BRANCH  14  15
HETATM   15  C2  UNL     1       7.975  -4.819   6.493  1.00  0.00     0.016 C 
HETATM   16  C1  UNL     1       6.534  -5.192   6.497  1.00  0.00     0.006 C 
ENDBRANCH  14  15
ENDBRANCH   1  14
TORSDOF 4
ENDMDL
MODEL 3
REMARK VINA RESULT: -5.428520705      1.363      1.619
REMARK  4 active torsions:
REMARK  status: ('A' for Active; 'I' for Inactive)
REMARK    1  A    between atoms: C2_2  and  C3_3 
REMARK    2  A    between atoms: C3_3  and  N1_4 
REMARK    3  A    between atoms: C4_6  and  N2_7 
REMARK    4  A    between atoms: N2_7  and  C5_9 
ROOT
HETATM    1  N1  UNL     1       6.896  -2.495  10.983  1.00  0.00    -0.266 N 
HETATM    2  S1  UNL     1       6.795  -1.683   9.513  1.00  0.00     0.029 SA
HETATM    3  C4  UNL     1       7.019  -3.010   8.461  1.00  0.00     0.166 A 
HETATM    4  N3  UNL     1       7.161  -4.017   9.327  1.00  0.00    -0.287 N 
ATOM      5  H3  UNL     1       7.314  -4.970   8.998  1.00  0.00     0.172 HD
HETATM    6  C8  UNL     1       7.099  -3.754  10.603  1.00  0.00     0.334 A 
HETATM    7  O1  UNL     1       7.224  -4.663  11.519  1.00  0.00    -0.246 OA
ENDROOT
BRANCH   3   8
HETATM    8  N2  UNL     1       7.048  -3.050   7.150  1.00  0.00    -0.347 N 
ATOM      9  H2  UNL     1       6.718  -2.231   6.639  1.00  0.00     0.163 HD
BRANCH   8  10
HETATM   10  C5  UNL     1       7.507  -4.161   6.398  1.00  0.00     0.102 C 
HETATM   11  C6  UNL     1       7.666  -3.681   4.946  1.00  0.00     0.056 C 
HETATM   12  C7  UNL     1       6.445  -5.236   6.358  1.00  0.00     0.056 C 
HETATM   13 CL1  UNL     1       9.075  -4.785   6.958  1.00  0.00    -0.096 Cl
ENDBRANCH   8  10
ENDBRANCH   3   8
BRANCH   1  14
HETATM   14  C3  UNL     1       6.786  -1.936  12.316  1.00  0.00     0.142 C 
BRANCH  14  15
HETATM   15  C2  UNL     1       6.610  -0.446  12.315  1.00  0.00     0.016 C 
HETATM   16  C1  UNL     1       7.870   0.317  12.532  1.00  0.00     0.006 C 
ENDBRANCH  14  15
ENDBRANCH   1  14
TORSDOF 4
ENDMDL
MODEL 4
REMARK VINA RESULT: -5.396392778      1.168      1.202
REMARK  4 active torsions:
REMARK  status: ('A' for Active; 'I' for Inactive)
REMARK    1  A    between atoms: C2_2  and  C3_3 
REMARK    2  A    between atoms: C3_3  and  N1_4 
REMARK    3  A    between atoms: C4_6  and  N2_7 
REMARK    4  A    between atoms: N2_7  and  C5_9 
ROOT
HETATM    1  N1  UNL     1       6.908  -2.506  10.875  1.00  0.00    -0.266 N 
HETATM    2  S1  UNL     1       6.852  -1.635   9.437  1.00  0.00     0.029 SA
HETATM    3  C4  UNL     1       6.749  -2.940   8.339  1.00  0.00     0.166 A 
HETATM    4  N3  UNL     1       6.765  -3.989   9.167  1.00  0.00    -0.287 N 
ATOM      5  H3  UNL     1       6.715  -4.940   8.805  1.00  0.00     0.172 HD
HETATM    6  C8  UNL     1       6.846  -3.766  10.450  1.00  0.00     0.334 A 
HETATM    7  O1  UNL     1       6.867  -4.716  11.332  1.00  0.00    -0.246 OA
ENDROOT
BRANCH   3   8
HETATM    8  N2  UNL     1       6.674  -2.936   7.029  1.00  0.00    -0.347 N 
ATOM      9  H2  UNL     1       6.163  -2.175   6.582  1.00  0.00     0.163 HD
BRANCH   8  10
HETATM   10  C5  UNL     1       7.258  -3.923   6.196  1.00  0.00     0.102 C 
HETATM   11  C6  UNL     1       8.712  -4.099   6.666  1.00  0.00     0.056 C 
HETATM   12  C7  UNL     1       7.348  -3.418   4.774  1.00  0.00     0.056 C 
HETATM   13 CL1  UNL     1       6.440  -5.499   6.299  1.00  0.00    -0.096 Cl
ENDBRANCH   8  10
ENDBRANCH   3   8
BRANCH   1  14
HETATM   14  C3  UNL     1       7.001  -1.987  12.224  1.00  0.00     0.142 C 
BRANCH  14  15
HETATM   15  C2  UNL     1       6.670  -0.527  12.316  1.00  0.00     0.016 C 
HETATM   16  C1  UNL     1       7.853   0.357  12.505  1.00  0.00     0.006 C 
ENDBRANCH  14  15
ENDBRANCH   1  14
TORSDOF 4
ENDMDL
MODEL 5
REMARK VINA RESULT: -5.353637407      1.392      1.501
REMARK  4 active torsions:
REMARK  status: ('A' for Active; 'I' for Inactive)
REMARK    1  A    between atoms: C2_2  and  C3_3 
REMARK    2  A    between atoms: C3_3  and  N1_4 
REMARK    3  A    between atoms: C4_6  and  N2_7 
REMARK    4  A    between atoms: N2_7  and  C5_9 
ROOT
HETATM    1  N1  UNL     1       6.923  -2.495  10.862  1.00  0.00    -0.266 N 
HETATM    2  S1  UNL     1       6.960  -1.740   9.358  1.00  0.00     0.029 SA
HETATM    3  C4  UNL     1       6.832  -3.123   8.363  1.00  0.00     0.166 A 
HETATM    4  N3  UNL     1       6.765  -4.101   9.271  1.00  0.00    -0.287 N 
ATOM      5  H3  UNL     1       6.681  -5.075   8.982  1.00  0.00     0.172 HD
HETATM    6  C8  UNL     1       6.813  -3.781  10.535  1.00  0.00     0.334 A 
HETATM    7  O1  UNL     1       6.756  -4.657  11.488  1.00  0.00    -0.246 OA
ENDROOT
BRANCH   3   8
HETATM    8  N2  UNL     1       6.802  -3.219   7.055  1.00  0.00    -0.347 N 
ATOM      9  H2  UNL     1       6.065  -2.722   6.555  1.00  0.00     0.163 HD
BRANCH   8  10
HETATM   10  C5  UNL     1       7.731  -3.972   6.293  1.00  0.00     0.102 C 
HETATM   11  C6  UNL     1       7.262  -5.437   6.340  1.00  0.00     0.056 C 
HETATM   12  C7  UNL     1       9.086  -3.958   6.962  1.00  0.00     0.056 C 
HETATM   13 CL1  UNL     1       7.816  -3.464   4.591  1.00  0.00    -0.096 Cl
ENDBRANCH   8  10
ENDBRANCH   3   8
BRANCH   1  14
HETATM   14  C3  UNL     1       6.995  -1.875  12.169  1.00  0.00     0.142 C 
BRANCH  14  15
HETATM   15  C2  UNL     1       6.739  -0.397  12.132  1.00  0.00     0.016 C 
HETATM   16  C1  UNL     1       7.899   0.434  12.555  1.00  0.00     0.006 C 
ENDBRANCH  14  15
ENDBRANCH   1  14
TORSDOF 4
ENDMDL
