MODEL 1
REMARK VINA RESULT: -7.554826566      0.000      0.000
REMARK  11 active torsions:
REMARK  status: ('A' for Active; 'I' for Inactive)
REMARK    1  A    between atoms: C1_2  and  C2_4 
REMARK    2  A    between atoms: C2_4  and  N2_5 
REMARK    3  A    between atoms: C2_4  and  C6_28 
REMARK    4  A    between atoms: N2_5  and  N3_7 
REMARK    5  A    between atoms: N3_7  and  C3_9 
REMARK    6  A    between atoms: C3_9  and  O2_10 
REMARK    7  A    between atoms: N4_12  and  C4_14 
REMARK    8  A    between atoms: C5_19  and  S1_20 
REMARK    9  A    between atoms: S1_20  and  N7_21 
REMARK   10  A    between atoms: C6_28  and  N9_29 
REMARK   11  A    between atoms: C6_28  and  N10_33 
ROOT
HETATM    1  C3  UNL     1      15.880  10.772  26.006  1.00  0.00     0.250 C 
HETATM    2  N4  UNL     1      16.917  10.554  25.157  1.00  0.00    -0.152 N 
ATOM      3  H4  UNL     1      17.749  11.103  25.377  1.00  0.00     0.188 HD
ENDROOT
BRANCH   1   4
HETATM    4  N3  UNL     1      15.028   9.755  26.476  1.00  0.00    -0.268 N 
ATOM      5  H3  UNL     1      15.209   8.782  26.230  1.00  0.00     0.190 HD
BRANCH   4   6
HETATM    6  N2  UNL     1      13.956  10.076  27.265  1.00  0.00    -0.316 N 
ATOM      7  H2  UNL     1      13.236  10.701  26.904  1.00  0.00     0.181 HD
BRANCH   6   8
HETATM    8  C2  UNL     1      13.833   9.560  28.558  1.00  0.00     0.246 C 
BRANCH   8   9
HETATM    9  C1  UNL     1      14.850  10.054  29.515  1.00  0.00     0.259 C 
HETATM   10  N1  UNL     1      15.093   9.260  30.680  1.00  0.00    -0.060 NA
HETATM   11  O1  UNL     1      15.493  11.136  29.331  1.00  0.00    -0.274 OA
ENDBRANCH   8   9
BRANCH   8  12
HETATM   12  C6  UNL     1      12.414   9.875  29.059  1.00  0.00     0.410 C 
BRANCH  12  13
HETATM   13  N9  UNL     1      12.085   9.024  30.190  1.00  0.00    -0.048 N 
ATOM     14  H93 UNL     1      12.901   8.521  30.540  1.00  0.00     0.276 HD
ATOM     15  H92 UNL     1      11.874   9.566  31.028  1.00  0.00     0.276 HD
ATOM     16  H91 UNL     1      11.324   8.392  29.942  1.00  0.00     0.276 HD
ENDBRANCH  12  13
BRANCH  12  17
HETATM   17  N10 UNL     1      12.298  11.237  29.460  1.00  0.00    -0.048 N 
ATOM     18 3H10 UNL     1      12.038  11.317  30.444  1.00  0.00     0.276 HD
ATOM     19 2H10 UNL     1      13.209  11.694  29.500  1.00  0.00     0.276 HD
ATOM     20 1H10 UNL     1      11.650  11.746  28.859  1.00  0.00     0.276 HD
ENDBRANCH  12  17
ENDBRANCH   8  12
ENDBRANCH   6   8
ENDBRANCH   4   6
ENDBRANCH   1   4
BRANCH   1  21
HETATM   21  O2  UNL     1      15.661  11.988  26.416  1.00  0.00    -0.331 OA
ATOM     22  H2  UNL     1      16.022  12.702  25.903  1.00  0.00     0.221 HD
ENDBRANCH   1  21
BRANCH   2  23
HETATM   23  C4  UNL     1      17.056   9.810  24.151  1.00  0.00     0.702 A 
HETATM   24  N5  UNL     1      17.541   8.569  23.970  1.00  0.00    -0.130 N 
HETATM   25  N6  UNL     1      17.470   8.237  22.674  1.00  0.00    -0.260 N 
ATOM     26  H5  UNL     1      17.909   7.969  24.709  1.00  0.00     0.205 HD
HETATM   27  C5  UNL     1      16.943   9.251  22.016  1.00  0.00     0.253 A 
ATOM     28  H6  UNL     1      17.771   7.352  22.266  1.00  0.00     0.190 HD
HETATM   29  N8  UNL     1      16.687  10.204  22.878  1.00  0.00    -0.162 N 
ATOM     30  H8  UNL     1      16.274  11.107  22.644  1.00  0.00     0.186 HD
BRANCH  27  31
HETATM   31  S1  UNL     1      16.599   9.400  20.287  1.00  0.00     0.290 S 
HETATM   32  O3  UNL     1      15.928  10.700  19.974  1.00  0.00    -0.198 OA
HETATM   33  O4  UNL     1      15.776   8.201  19.912  1.00  0.00    -0.198 OA
BRANCH  31  34
HETATM   34  N7  UNL     1      18.060   9.327  19.380  1.00  0.00    -0.322 N 
ATOM     35  H72 UNL     1      18.808  10.018  19.445  1.00  0.00     0.169 HD
ATOM     36  H71 UNL     1      18.062   8.502  18.780  1.00  0.00     0.169 HD
ENDBRANCH  31  34
ENDBRANCH  27  31
ENDBRANCH   2  23
TORSDOF 11
ENDMDL
MODEL 2
REMARK VINA RESULT: -7.486210906      0.832      1.074
REMARK  11 active torsions:
REMARK  status: ('A' for Active; 'I' for Inactive)
REMARK    1  A    between atoms: C1_2  and  C2_4 
REMARK    2  A    between atoms: C2_4  and  N2_5 
REMARK    3  A    between atoms: C2_4  and  C6_28 
REMARK    4  A    between atoms: N2_5  and  N3_7 
REMARK    5  A    between atoms: N3_7  and  C3_9 
REMARK    6  A    between atoms: C3_9  and  O2_10 
REMARK    7  A    between atoms: N4_12  and  C4_14 
REMARK    8  A    between atoms: C5_19  and  S1_20 
REMARK    9  A    between atoms: S1_20  and  N7_21 
REMARK   10  A    between atoms: C6_28  and  N9_29 
REMARK   11  A    between atoms: C6_28  and  N10_33 
ROOT
HETATM    1  C3  UNL     1      15.805  10.760  25.936  1.00  0.00     0.250 C 
HETATM    2  N4  UNL     1      16.848  10.534  25.095  1.00  0.00    -0.152 N 
ATOM      3  H4  UNL     1      17.675  11.091  25.311  1.00  0.00     0.188 HD
ENDROOT
BRANCH   1   4
HETATM    4  N3  UNL     1      14.956   9.746  26.418  1.00  0.00    -0.268 N 
ATOM      5  H3  UNL     1      15.127   8.773  26.166  1.00  0.00     0.190 HD
BRANCH   4   6
HETATM    6  N2  UNL     1      13.901  10.070  27.228  1.00  0.00    -0.316 N 
ATOM      7  H2  UNL     1      13.173  10.693  26.879  1.00  0.00     0.181 HD
BRANCH   6   8
HETATM    8  C2  UNL     1      13.804   9.560  28.525  1.00  0.00     0.246 C 
BRANCH   8   9
HETATM    9  C1  UNL     1      14.849  10.048  29.456  1.00  0.00     0.259 C 
HETATM   10  N1  UNL     1      15.109   9.260  30.620  1.00  0.00    -0.060 NA
HETATM   11  O1  UNL     1      15.500  11.122  29.249  1.00  0.00    -0.274 OA
ENDBRANCH   8   9
BRANCH   8  12
HETATM   12  C6  UNL     1      12.401   9.889  29.059  1.00  0.00     0.410 C 
BRANCH  12  13
HETATM   13  N9  UNL     1      12.090   9.042  30.198  1.00  0.00    -0.048 N 
ATOM     14  H93 UNL     1      11.086   8.982  30.368  1.00  0.00     0.276 HD
ATOM     15  H92 UNL     1      12.267   8.057  30.001  1.00  0.00     0.276 HD
ATOM     16  H91 UNL     1      12.599   9.364  31.022  1.00  0.00     0.276 HD
ENDBRANCH  12  13
BRANCH  12  17
HETATM   17  N10 UNL     1      12.308  11.252  29.462  1.00  0.00    -0.048 N 
ATOM     18 3H10 UNL     1      12.845  11.430  30.311  1.00  0.00     0.276 HD
ATOM     19 2H10 UNL     1      12.815  11.867  28.824  1.00  0.00     0.276 HD
ATOM     20 1H10 UNL     1      11.335  11.542  29.566  1.00  0.00     0.276 HD
ENDBRANCH  12  17
ENDBRANCH   8  12
ENDBRANCH   6   8
ENDBRANCH   4   6
ENDBRANCH   1   4
BRANCH   1  21
HETATM   21  O2  UNL     1      15.578  11.982  26.326  1.00  0.00    -0.331 OA
ATOM     22  H2  UNL     1      16.201  12.652  26.072  1.00  0.00     0.221 HD
ENDBRANCH   1  21
BRANCH   2  23
HETATM   23  C4  UNL     1      16.995   9.775  24.102  1.00  0.00     0.702 A 
HETATM   24  N5  UNL     1      17.559   8.567  23.928  1.00  0.00    -0.130 N 
HETATM   25  N6  UNL     1      17.454   8.196  22.644  1.00  0.00    -0.260 N 
ATOM     26  H5  UNL     1      18.001   8.015  24.663  1.00  0.00     0.205 HD
HETATM   27  C5  UNL     1      16.828   9.153  21.988  1.00  0.00     0.253 A 
ATOM     28  H6  UNL     1      17.800   7.325  22.244  1.00  0.00     0.190 HD
HETATM   29  N8  UNL     1      16.543  10.109  22.838  1.00  0.00    -0.162 N 
ATOM     30  H8  UNL     1      16.057  10.974  22.602  1.00  0.00     0.186 HD
BRANCH  27  31
HETATM   31  S1  UNL     1      16.398   9.231  20.274  1.00  0.00     0.290 S 
HETATM   32  O3  UNL     1      17.484   8.669  19.411  1.00  0.00    -0.198 OA
HETATM   33  O4  UNL     1      16.090  10.670  19.977  1.00  0.00    -0.198 OA
BRANCH  31  34
HETATM   34  N7  UNL     1      14.965   8.325  19.977  1.00  0.00    -0.322 N 
ATOM     35  H72 UNL     1      14.695   7.494  20.505  1.00  0.00     0.169 HD
ATOM     36  H71 UNL     1      14.439   8.738  19.207  1.00  0.00     0.169 HD
ENDBRANCH  31  34
ENDBRANCH  27  31
ENDBRANCH   2  23
TORSDOF 11
ENDMDL
MODEL 3
REMARK VINA RESULT: -7.210034962      2.885      8.135
REMARK  11 active torsions:
REMARK  status: ('A' for Active; 'I' for Inactive)
REMARK    1  A    between atoms: C1_2  and  C2_4 
REMARK    2  A    between atoms: C2_4  and  N2_5 
REMARK    3  A    between atoms: C2_4  and  C6_28 
REMARK    4  A    between atoms: N2_5  and  N3_7 
REMARK    5  A    between atoms: N3_7  and  C3_9 
REMARK    6  A    between atoms: C3_9  and  O2_10 
REMARK    7  A    between atoms: N4_12  and  C4_14 
REMARK    8  A    between atoms: C5_19  and  S1_20 
REMARK    9  A    between atoms: S1_20  and  N7_21 
REMARK   10  A    between atoms: C6_28  and  N9_29 
REMARK   11  A    between atoms: C6_28  and  N10_33 
ROOT
HETATM    1  C3  UNL     1      17.033   9.848  23.925  1.00  0.00     0.250 C 
HETATM    2  N4  UNL     1      16.884  10.726  24.951  1.00  0.00    -0.152 N 
ATOM      3  H4  UNL     1      17.679  11.355  25.069  1.00  0.00     0.188 HD
ENDROOT
BRANCH   1   4
HETATM    4  N3  UNL     1      15.991   9.480  23.054  1.00  0.00    -0.268 N 
ATOM      5  H3  UNL     1      15.188   8.960  23.408  1.00  0.00     0.190 HD
BRANCH   4   6
HETATM    6  N2  UNL     1      16.056   9.824  21.731  1.00  0.00    -0.316 N 
ATOM      7  H2  UNL     1      15.991  10.806  21.463  1.00  0.00     0.181 HD
BRANCH   6   8
HETATM    8  C2  UNL     1      16.212   8.851  20.740  1.00  0.00     0.246 C 
BRANCH   8   9
HETATM    9  C1  UNL     1      15.004   8.031  20.489  1.00  0.00     0.259 C 
HETATM   10  N1  UNL     1      15.174   6.827  19.737  1.00  0.00    -0.060 NA
HETATM   11  O1  UNL     1      13.852   8.364  20.916  1.00  0.00    -0.274 OA
ENDBRANCH   8   9
BRANCH   8  12
HETATM   12  C6  UNL     1      16.670   9.556  19.453  1.00  0.00     0.410 C 
BRANCH  12  13
HETATM   13  N9  UNL     1      17.730   8.793  18.817  1.00  0.00    -0.048 N 
ATOM     14  H93 UNL     1      18.655   9.098  19.118  1.00  0.00     0.276 HD
ATOM     15  H92 UNL     1      17.770   7.834  19.162  1.00  0.00     0.276 HD
ATOM     16  H91 UNL     1      17.626   8.829  17.802  1.00  0.00     0.276 HD
ENDBRANCH  12  13
BRANCH  12  17
HETATM   17  N10 UNL     1      15.593   9.701  18.532  1.00  0.00    -0.048 N 
ATOM     18 3H10 UNL     1      15.644   9.010  17.784  1.00  0.00     0.276 HD
ATOM     19 2H10 UNL     1      14.704   9.417  18.947  1.00  0.00     0.276 HD
ATOM     20 1H10 UNL     1      15.546  10.651  18.163  1.00  0.00     0.276 HD
ENDBRANCH  12  17
ENDBRANCH   8  12
ENDBRANCH   6   8
ENDBRANCH   4   6
ENDBRANCH   1   4
BRANCH   1  21
HETATM   21  O2  UNL     1      18.206   9.318  23.730  1.00  0.00    -0.331 OA
ATOM     22  H2  UNL     1      18.703   9.606  22.973  1.00  0.00     0.221 HD
ENDBRANCH   1  21
BRANCH   2  23
HETATM   23  C4  UNL     1      15.961  10.918  25.785  1.00  0.00     0.702 A 
HETATM   24  N5  UNL     1      14.762  11.523  25.725  1.00  0.00    -0.130 N 
HETATM   25  N6  UNL     1      14.158  11.456  26.919  1.00  0.00    -0.260 N 
ATOM     26  H5  UNL     1      14.370  11.967  24.894  1.00  0.00     0.205 HD
HETATM   27  C5  UNL     1      14.955  10.814  27.750  1.00  0.00     0.253 A 
ATOM     28  H6  UNL     1      13.240  11.838  27.147  1.00  0.00     0.190 HD
HETATM   29  N8  UNL     1      16.040  10.481  27.095  1.00  0.00    -0.162 N 
ATOM     30  H8  UNL     1      16.830   9.972  27.493  1.00  0.00     0.186 HD
BRANCH  27  31
HETATM   31  S1  UNL     1      14.701  10.416  29.455  1.00  0.00     0.290 S 
HETATM   32  O3  UNL     1      15.533  11.283  30.348  1.00  0.00    -0.198 OA
HETATM   33  O4  UNL     1      15.002   8.953  29.600  1.00  0.00    -0.198 OA
BRANCH  31  34
HETATM   34  N7  UNL     1      13.050  10.648  29.882  1.00  0.00    -0.322 N 
ATOM     35  H72 UNL     1      12.370   9.892  29.967  1.00  0.00     0.169 HD
ATOM     36  H71 UNL     1      12.860  11.639  30.033  1.00  0.00     0.169 HD
ENDBRANCH  31  34
ENDBRANCH  27  31
ENDBRANCH   2  23
TORSDOF 11
ENDMDL
MODEL 4
REMARK VINA RESULT: -7.176092056      7.609     10.032
REMARK  11 active torsions:
REMARK  status: ('A' for Active; 'I' for Inactive)
REMARK    1  A    between atoms: C1_2  and  C2_4 
REMARK    2  A    between atoms: C2_4  and  N2_5 
REMARK    3  A    between atoms: C2_4  and  C6_28 
REMARK    4  A    between atoms: N2_5  and  N3_7 
REMARK    5  A    between atoms: N3_7  and  C3_9 
REMARK    6  A    between atoms: C3_9  and  O2_10 
REMARK    7  A    between atoms: N4_12  and  C4_14 
REMARK    8  A    between atoms: C5_19  and  S1_20 
REMARK    9  A    between atoms: S1_20  and  N7_21 
REMARK   10  A    between atoms: C6_28  and  N9_29 
REMARK   11  A    between atoms: C6_28  and  N10_33 
ROOT
HETATM    1  C3  UNL     1       8.326   4.675  25.083  1.00  0.00     0.250 C 
HETATM    2  N4  UNL     1       9.244   4.749  26.082  1.00  0.00    -0.152 N 
ATOM      3  H4  UNL     1       9.657   3.848  26.324  1.00  0.00     0.188 HD
ENDROOT
BRANCH   1   4
HETATM    4  N3  UNL     1       8.204   5.635  24.061  1.00  0.00    -0.268 N 
ATOM      5  H3  UNL     1       8.407   6.616  24.254  1.00  0.00     0.190 HD
BRANCH   4   6
HETATM    6  N2  UNL     1       7.814   5.249  22.807  1.00  0.00    -0.316 N 
ATOM      7  H2  UNL     1       7.096   4.531  22.704  1.00  0.00     0.181 HD
BRANCH   6   8
HETATM    8  C2  UNL     1       8.382   5.821  21.666  1.00  0.00     0.246 C 
BRANCH   8   9
HETATM    9  C1  UNL     1       9.133   4.871  20.812  1.00  0.00     0.259 C 
HETATM   10  N1  UNL     1       8.523   3.605  20.549  1.00  0.00    -0.060 NA
HETATM   11  O1  UNL     1      10.274   5.149  20.322  1.00  0.00    -0.274 OA
ENDBRANCH   8   9
BRANCH   8  12
HETATM   12  C6  UNL     1       7.258   6.502  20.869  1.00  0.00     0.410 C 
BRANCH  12  13
HETATM   13  N9  UNL     1       7.627   6.589  19.466  1.00  0.00    -0.048 N 
ATOM     14  H93 UNL     1       6.852   6.916  18.887  1.00  0.00     0.276 HD
ATOM     15  H92 UNL     1       8.278   7.354  19.289  1.00  0.00     0.276 HD
ATOM     16  H91 UNL     1       7.993   5.693  19.145  1.00  0.00     0.276 HD
ENDBRANCH  12  13
BRANCH  12  17
HETATM   17  N10 UNL     1       6.036   5.778  20.978  1.00  0.00    -0.048 N 
ATOM     18 3H10 UNL     1       5.230   6.403  20.996  1.00  0.00     0.276 HD
ATOM     19 2H10 UNL     1       5.823   5.271  20.118  1.00  0.00     0.276 HD
ATOM     20 1H10 UNL     1       6.045   5.156  21.787  1.00  0.00     0.276 HD
ENDBRANCH  12  17
ENDBRANCH   8  12
ENDBRANCH   6   8
ENDBRANCH   4   6
ENDBRANCH   1   4
BRANCH   1  21
HETATM   21  O2  UNL     1       7.513   3.658  25.064  1.00  0.00    -0.331 OA
ATOM     22  H2  UNL     1       6.691   3.755  24.598  1.00  0.00     0.221 HD
ENDBRANCH   1  21
BRANCH   2  23
HETATM   23  C4  UNL     1       9.686   5.707  26.767  1.00  0.00     0.702 A 
HETATM   24  N5  UNL     1       9.134   6.547  27.661  1.00  0.00    -0.130 N 
HETATM   25  N6  UNL     1      10.057   7.412  28.104  1.00  0.00    -0.260 N 
ATOM     26  H5  UNL     1       8.158   6.529  27.956  1.00  0.00     0.205 HD
HETATM   27  C5  UNL     1      11.199   7.138  27.507  1.00  0.00     0.253 A 
ATOM     28  H6  UNL     1       9.901   8.153  28.786  1.00  0.00     0.190 HD
HETATM   29  N8  UNL     1      11.004   6.122  26.702  1.00  0.00    -0.162 N 
ATOM     30  H8  UNL     1      11.720   5.698  26.113  1.00  0.00     0.186 HD
BRANCH  27  31
HETATM   31  S1  UNL     1      12.770   7.932  27.688  1.00  0.00     0.290 S 
HETATM   32  O3  UNL     1      13.515   7.972  26.391  1.00  0.00    -0.198 OA
HETATM   33  O4  UNL     1      13.500   7.190  28.770  1.00  0.00    -0.198 OA
BRANCH  31  34
HETATM   34  N7  UNL     1      12.559   9.553  28.227  1.00  0.00    -0.322 N 
ATOM     35  H72 UNL     1      11.685   9.921  28.603  1.00  0.00     0.169 HD
ATOM     36  H71 UNL     1      13.426  10.078  28.113  1.00  0.00     0.169 HD
ENDBRANCH  31  34
ENDBRANCH  27  31
ENDBRANCH   2  23
TORSDOF 11
ENDMDL
MODEL 5
REMARK VINA RESULT: -7.173800006      1.335      1.701
REMARK  11 active torsions:
REMARK  status: ('A' for Active; 'I' for Inactive)
REMARK    1  A    between atoms: C1_2  and  C2_4 
REMARK    2  A    between atoms: C2_4  and  N2_5 
REMARK    3  A    between atoms: C2_4  and  C6_28 
REMARK    4  A    between atoms: N2_5  and  N3_7 
REMARK    5  A    between atoms: N3_7  and  C3_9 
REMARK    6  A    between atoms: C3_9  and  O2_10 
REMARK    7  A    between atoms: N4_12  and  C4_14 
REMARK    8  A    between atoms: C5_19  and  S1_20 
REMARK    9  A    between atoms: S1_20  and  N7_21 
REMARK   10  A    between atoms: C6_28  and  N9_29 
REMARK   11  A    between atoms: C6_28  and  N10_33 
ROOT
HETATM    1  C3  UNL     1      15.669  10.585  26.268  1.00  0.00     0.250 C 
HETATM    2  N4  UNL     1      16.827  10.473  25.567  1.00  0.00    -0.152 N 
ATOM      3  H4  UNL     1      17.635  10.871  26.046  1.00  0.00     0.188 HD
ENDROOT
BRANCH   1   4
HETATM    4  N3  UNL     1      14.691   9.574  26.329  1.00  0.00    -0.268 N 
ATOM      5  H3  UNL     1      14.884   8.652  25.936  1.00  0.00     0.190 HD
BRANCH   4   6
HETATM    6  N2  UNL     1      13.482   9.830  26.917  1.00  0.00    -0.316 N 
ATOM      7  H2  UNL     1      12.927  10.624  26.598  1.00  0.00     0.181 HD
BRANCH   6   8
HETATM    8  C2  UNL     1      12.995   9.021  27.947  1.00  0.00     0.246 C 
BRANCH   8   9
HETATM    9  C1  UNL     1      14.022   8.178  28.603  1.00  0.00     0.259 C 
HETATM   10  N1  UNL     1      13.801   6.765  28.611  1.00  0.00    -0.060 NA
HETATM   11  O1  UNL     1      15.065   8.667  29.142  1.00  0.00    -0.274 OA
ENDBRANCH   8   9
BRANCH   8  12
HETATM   12  C6  UNL     1      12.300   9.931  28.973  1.00  0.00     0.410 C 
BRANCH  12  13
HETATM   13  N9  UNL     1      12.248   9.272  30.268  1.00  0.00    -0.048 N 
ATOM     14  H93 UNL     1      11.427   8.674  30.359  1.00  0.00     0.276 HD
ATOM     15  H92 UNL     1      12.966   8.553  30.360  1.00  0.00     0.276 HD
ATOM     16  H91 UNL     1      12.303   9.965  31.014  1.00  0.00     0.276 HD
ENDBRANCH  12  13
BRANCH  12  17
HETATM   17  N10 UNL     1      12.989  11.169  29.116  1.00  0.00    -0.048 N 
ATOM     18 3H10 UNL     1      12.348  11.962  29.075  1.00  0.00     0.276 HD
ATOM     19 2H10 UNL     1      13.335  11.297  30.068  1.00  0.00     0.276 HD
ATOM     20 1H10 UNL     1      13.739  11.258  28.430  1.00  0.00     0.276 HD
ENDBRANCH  12  17
ENDBRANCH   8  12
ENDBRANCH   6   8
ENDBRANCH   4   6
ENDBRANCH   1   4
BRANCH   1  21
HETATM   21  O2  UNL     1      15.448  11.686  26.927  1.00  0.00    -0.331 OA
ATOM     22  H2  UNL     1      15.971  11.851  27.702  1.00  0.00     0.221 HD
ENDBRANCH   1  21
BRANCH   2  23
HETATM   23  C4  UNL     1      17.101   9.977  24.443  1.00  0.00     0.702 A 
HETATM   24  N5  UNL     1      18.175   9.342  23.941  1.00  0.00    -0.130 N 
HETATM   25  N6  UNL     1      17.954   9.017  22.660  1.00  0.00    -0.260 N 
ATOM     26  H5  UNL     1      19.030   9.139  24.458  1.00  0.00     0.205 HD
HETATM   27  C5  UNL     1      16.748   9.435  22.330  1.00  0.00     0.253 A 
ATOM     28  H6  UNL     1      18.608   8.531  22.046  1.00  0.00     0.190 HD
HETATM   29  N8  UNL     1      16.217  10.012  23.379  1.00  0.00    -0.162 N 
ATOM     30  H8  UNL     1      15.285  10.427  23.408  1.00  0.00     0.186 HD
BRANCH  27  31
HETATM   31  S1  UNL     1      15.904   9.290  20.782  1.00  0.00     0.290 S 
HETATM   32  O3  UNL     1      16.360   8.085  20.021  1.00  0.00    -0.198 OA
HETATM   33  O4  UNL     1      16.136  10.579  20.048  1.00  0.00    -0.198 OA
BRANCH  31  34
HETATM   34  N7  UNL     1      14.208   9.141  21.040  1.00  0.00    -0.322 N 
ATOM     35  H72 UNL     1      13.724   8.251  21.157  1.00  0.00     0.169 HD
ATOM     36  H71 UNL     1      13.772  10.063  21.058  1.00  0.00     0.169 HD
ENDBRANCH  31  34
ENDBRANCH  27  31
ENDBRANCH   2  23
TORSDOF 11
ENDMDL
