MODEL 1
REMARK VINA RESULT: -7.268314938      0.000      0.000
REMARK  6 active torsions:
REMARK  status: ('A' for Active; 'I' for Inactive)
REMARK    1  A    between atoms: C1_2  and  C2_4 
REMARK    2  A    between atoms: C2_4  and  O2_5 
REMARK    3  A    between atoms: C2_4  and  C3_7 
REMARK    4  A    between atoms: C3_7  and  O3_8 
REMARK    5  A    between atoms: C3_7  and  C4_10 
REMARK    6  A    between atoms: C4_10  and  N2_11 
REMARK       I    between atoms: N3_13  and  C6_15 
REMARK       I    between atoms: C6_15  and  N4_16 
REMARK       I    between atoms: C6_15  and  N5_20 
ROOT
HETATM    1  N2  UNL     1       9.627   4.765  24.341  1.00  0.00    -0.310 N 
HETATM    2  C5  UNL     1      10.832   4.175  24.633  1.00  0.00     0.177 A 
HETATM    3  N3  UNL     1      11.087   3.992  25.854  1.00  0.00    -0.322 N 
ATOM      4  H3  UNL     1      10.350   4.314  26.481  1.00  0.00     0.165 HD
HETATM    5  C6  UNL     1      12.192   3.431  26.521  1.00  0.00     0.481 C 
HETATM    6  N4  UNL     1      12.083   3.777  27.951  1.00  0.00    -0.033 N 
ATOM      7  H41 UNL     1      12.884   3.371  28.435  1.00  0.00     0.278 HD
ATOM      8  H42 UNL     1      11.192   3.497  28.360  1.00  0.00     0.278 HD
ATOM      9  H43 UNL     1      11.996   4.782  28.109  1.00  0.00     0.278 HD
HETATM   10  N5  UNL     1      12.284   1.983  26.449  1.00  0.00    -0.033 N 
ATOM     11  H51 UNL     1      13.085   1.576  26.933  1.00  0.00     0.278 HD
ATOM     12  H52 UNL     1      12.268   1.677  25.476  1.00  0.00     0.278 HD
ATOM     13  H53 UNL     1      11.419   1.559  26.784  1.00  0.00     0.278 HD
HETATM   14  C7  UNL     1      11.664   3.834  23.589  1.00  0.00     0.290 A 
HETATM   15  O4  UNL     1      12.779   3.291  23.802  1.00  0.00    -0.264 OA
HETATM   16  N6  UNL     1      11.261   4.094  22.326  1.00  0.00    -0.313 N 
ATOM     17  H6  UNL     1      11.876   3.841  21.553  1.00  0.00     0.169 HD
HETATM   18  C8  UNL     1      10.083   4.671  22.048  1.00  0.00     0.148 A 
HETATM   19  C9  UNL     1       9.664   4.941  20.760  1.00  0.00     0.277 A 
HETATM   20  O5  UNL     1      10.423   4.629  19.829  1.00  0.00    -0.266 OA
HETATM   21  N7  UNL     1       8.466   5.526  20.513  1.00  0.00    -0.318 N 
ATOM     22  H7  UNL     1       8.179   5.715  19.553  1.00  0.00     0.169 HD
HETATM   23  C10 UNL     1       7.658   5.856  21.533  1.00  0.00     0.185 A 
HETATM   24  N8  UNL     1       8.061   5.598  22.783  1.00  0.00    -0.336 N 
ATOM     25  H8  UNL     1       7.442   5.854  23.552  1.00  0.00     0.168 HD
HETATM   26  C11 UNL     1       9.239   5.018  23.081  1.00  0.00     0.143 A 
ENDROOT
BRANCH   1  27
HETATM   27  C4  UNL     1       8.693   5.149  25.383  1.00  0.00     0.167 C 
BRANCH  27  28
HETATM   28  C3  UNL     1       8.941   6.564  25.861  1.00  0.00     0.174 C 
BRANCH  28  29
HETATM   29  C2  UNL     1       9.407   6.587  27.300  1.00  0.00     0.237 C 
BRANCH  29  30
HETATM   30  C1  UNL     1      10.706   7.243  27.467  1.00  0.00     0.262 C 
HETATM   31  N1  UNL     1      10.912   8.293  28.397  1.00  0.00    -0.060 NA
HETATM   32  O1  UNL     1      11.681   6.876  26.773  1.00  0.00    -0.274 OA
ENDBRANCH  29  30
BRANCH  29  33
HETATM   33  O2  UNL     1       9.450   5.318  27.844  1.00  0.00    -0.384 OA
ATOM     34  H2  UNL     1       9.351   5.368  28.788  1.00  0.00     0.210 HD
ENDBRANCH  29  33
ENDBRANCH  28  29
BRANCH  28  35
HETATM   35  O3  UNL     1       7.864   7.412  25.682  1.00  0.00    -0.391 OA
ATOM     36  H3  UNL     1       8.080   8.104  25.067  1.00  0.00     0.210 HD
ENDBRANCH  28  35
ENDBRANCH  27  28
ENDBRANCH   1  27
TORSDOF 6
ENDMDL
MODEL 2
REMARK VINA RESULT: -7.249149827      2.138      5.241
REMARK  6 active torsions:
REMARK  status: ('A' for Active; 'I' for Inactive)
REMARK    1  A    between atoms: C1_2  and  C2_4 
REMARK    2  A    between atoms: C2_4  and  O2_5 
REMARK    3  A    between atoms: C2_4  and  C3_7 
REMARK    4  A    between atoms: C3_7  and  O3_8 
REMARK    5  A    between atoms: C3_7  and  C4_10 
REMARK    6  A    between atoms: C4_10  and  N2_11 
REMARK       I    between atoms: N3_13  and  C6_15 
REMARK       I    between atoms: C6_15  and  N4_16 
REMARK       I    between atoms: C6_15  and  N5_20 
ROOT
HETATM    1  N2  UNL     1      10.509   5.222  23.479  1.00  0.00    -0.310 N 
HETATM    2  C5  UNL     1       9.895   5.083  24.699  1.00  0.00     0.177 A 
HETATM    3  N3  UNL     1       8.976   5.905  24.963  1.00  0.00    -0.322 N 
ATOM      4  H3  UNL     1       8.803   6.582  24.219  1.00  0.00     0.165 HD
HETATM    5  C6  UNL     1       8.141   6.070  26.083  1.00  0.00     0.481 C 
HETATM    6  N4  UNL     1       7.484   7.387  25.971  1.00  0.00    -0.033 N 
ATOM      7  H41 UNL     1       6.879   7.507  26.783  1.00  0.00     0.278 HD
ATOM      8  H42 UNL     1       6.988   7.507  25.088  1.00  0.00     0.278 HD
ATOM      9  H43 UNL     1       8.150   8.152  25.858  1.00  0.00     0.278 HD
HETATM   10  N5  UNL     1       7.080   5.086  26.212  1.00  0.00    -0.033 N 
ATOM     11  H51 UNL     1       6.475   5.206  27.024  1.00  0.00     0.278 HD
ATOM     12  H52 UNL     1       7.471   4.144  26.201  1.00  0.00     0.278 HD
ATOM     13  H53 UNL     1       6.522   5.058  25.359  1.00  0.00     0.278 HD
HETATM   14  C7  UNL     1      10.323   4.076  25.536  1.00  0.00     0.290 A 
HETATM   15  O4  UNL     1       9.794   3.905  26.665  1.00  0.00    -0.264 OA
HETATM   16  N6  UNL     1      11.325   3.270  25.123  1.00  0.00    -0.313 N 
ATOM     17  H6  UNL     1      11.642   2.524  25.742  1.00  0.00     0.169 HD
HETATM   18  C8  UNL     1      11.920   3.412  23.930  1.00  0.00     0.148 A 
HETATM   19  C9  UNL     1      12.946   2.592  23.499  1.00  0.00     0.277 A 
HETATM   20  O5  UNL     1      13.322   1.690  24.263  1.00  0.00    -0.266 OA
HETATM   21  N7  UNL     1      13.527   2.763  22.287  1.00  0.00    -0.318 N 
ATOM     22  H7  UNL     1      14.283   2.145  21.992  1.00  0.00     0.169 HD
HETATM   23  C10 UNL     1      13.107   3.745  21.473  1.00  0.00     0.185 A 
HETATM   24  N8  UNL     1      12.114   4.542  21.887  1.00  0.00    -0.336 N 
ATOM     25  H8  UNL     1      11.803   5.287  21.264  1.00  0.00     0.168 HD
HETATM   26  C11 UNL     1      11.504   4.414  23.080  1.00  0.00     0.143 A 
ENDROOT
BRANCH   1  27
HETATM   27  C4  UNL     1      10.113   6.254  22.538  1.00  0.00     0.167 C 
BRANCH  27  28
HETATM   28  C3  UNL     1       8.638   6.173  22.210  1.00  0.00     0.174 C 
BRANCH  28  29
HETATM   29  C2  UNL     1       8.413   5.693  20.793  1.00  0.00     0.237 C 
BRANCH  29  30
HETATM   30  C1  UNL     1       8.371   4.232  20.688  1.00  0.00     0.262 C 
HETATM   31  N1  UNL     1       7.172   3.494  20.850  1.00  0.00    -0.060 NA
HETATM   32  O1  UNL     1       9.422   3.597  20.445  1.00  0.00    -0.274 OA
ENDBRANCH  29  30
BRANCH  29  33
HETATM   33  O2  UNL     1       9.361   6.198  19.925  1.00  0.00    -0.384 OA
ATOM     34  H2  UNL     1      10.131   5.642  19.929  1.00  0.00     0.210 HD
ENDBRANCH  29  33
ENDBRANCH  28  29
BRANCH  28  35
HETATM   35  O3  UNL     1       7.947   7.347  22.444  1.00  0.00    -0.391 OA
ATOM     36  H3  UNL     1       7.932   7.549  23.373  1.00  0.00     0.210 HD
ENDBRANCH  28  35
ENDBRANCH  27  28
ENDBRANCH   1  27
TORSDOF 6
ENDMDL
MODEL 3
REMARK VINA RESULT: -7.120859361      5.515      8.122
REMARK  6 active torsions:
REMARK  status: ('A' for Active; 'I' for Inactive)
REMARK    1  A    between atoms: C1_2  and  C2_4 
REMARK    2  A    between atoms: C2_4  and  O2_5 
REMARK    3  A    between atoms: C2_4  and  C3_7 
REMARK    4  A    between atoms: C3_7  and  O3_8 
REMARK    5  A    between atoms: C3_7  and  C4_10 
REMARK    6  A    between atoms: C4_10  and  N2_11 
REMARK       I    between atoms: N3_13  and  C6_15 
REMARK       I    between atoms: C6_15  and  N4_16 
REMARK       I    between atoms: C6_15  and  N5_20 
ROOT
HETATM    1  N2  UNL     1      15.123   8.999  26.873  1.00  0.00    -0.310 N 
HETATM    2  C5  UNL     1      14.925   7.722  26.409  1.00  0.00     0.177 A 
HETATM    3  N3  UNL     1      15.809   7.261  25.637  1.00  0.00    -0.322 N 
ATOM      4  H3  UNL     1      16.574   7.911  25.452  1.00  0.00     0.165 HD
HETATM    5  C6  UNL     1      15.946   6.025  24.979  1.00  0.00     0.481 C 
HETATM    6  N4  UNL     1      17.002   6.168  23.958  1.00  0.00    -0.033 N 
ATOM      7  H41 UNL     1      17.101   5.272  23.481  1.00  0.00     0.278 HD
ATOM      8  H42 UNL     1      17.882   6.509  24.345  1.00  0.00     0.278 HD
ATOM      9  H43 UNL     1      16.827   6.940  23.314  1.00  0.00     0.278 HD
HETATM   10  N5  UNL     1      16.338   4.915  25.830  1.00  0.00    -0.033 N 
ATOM     11  H51 UNL     1      16.437   4.019  25.353  1.00  0.00     0.278 HD
ATOM     12  H52 UNL     1      15.690   4.826  26.614  1.00  0.00     0.278 HD
ATOM     13  H53 UNL     1      17.196   5.142  26.332  1.00  0.00     0.278 HD
HETATM   14  C7  UNL     1      13.792   7.049  26.810  1.00  0.00     0.290 A 
HETATM   15  O4  UNL     1      13.563   5.876  26.413  1.00  0.00    -0.264 OA
HETATM   16  N6  UNL     1      12.926   7.670  27.639  1.00  0.00    -0.313 N 
ATOM     17  H6  UNL     1      12.088   7.171  27.936  1.00  0.00     0.169 HD
HETATM   18  C8  UNL     1      13.126   8.917  28.088  1.00  0.00     0.148 A 
HETATM   19  C9  UNL     1      12.245   9.560  28.937  1.00  0.00     0.277 A 
HETATM   20  O5  UNL     1      11.229   8.943  29.290  1.00  0.00    -0.266 OA
HETATM   21  N7  UNL     1      12.477  10.823  29.373  1.00  0.00    -0.318 N 
ATOM     22  H7  UNL     1      11.811  11.277  29.999  1.00  0.00     0.169 HD
HETATM   23  C10 UNL     1      13.582  11.477  28.981  1.00  0.00     0.185 A 
HETATM   24  N8  UNL     1      14.437  10.857  28.158  1.00  0.00    -0.336 N 
ATOM     25  H8  UNL     1      15.273  11.361  27.863  1.00  0.00     0.168 HD
HETATM   26  C11 UNL     1      14.254   9.605  27.698  1.00  0.00     0.143 A 
ENDROOT
BRANCH   1  27
HETATM   27  C4  UNL     1      16.293   9.774  26.502  1.00  0.00     0.167 C 
BRANCH  27  28
HETATM   28  C3  UNL     1      16.046  10.594  25.255  1.00  0.00     0.174 C 
BRANCH  28  29
HETATM   29  C2  UNL     1      17.226  10.530  24.309  1.00  0.00     0.237 C 
BRANCH  29  30
HETATM   30  C1  UNL     1      16.988   9.648  23.164  1.00  0.00     0.262 C 
HETATM   31  N1  UNL     1      15.766   8.954  22.981  1.00  0.00    -0.060 NA
HETATM   32  O1  UNL     1      17.886   9.490  22.305  1.00  0.00    -0.274 OA
ENDBRANCH  29  30
BRANCH  29  33
HETATM   33  O2  UNL     1      18.384  10.152  24.960  1.00  0.00    -0.384 OA
ATOM     34  H2  UNL     1      19.141  10.443  24.466  1.00  0.00     0.210 HD
ENDBRANCH  29  33
ENDBRANCH  28  29
BRANCH  28  35
HETATM   35  O3  UNL     1      15.694  11.906  25.509  1.00  0.00    -0.391 OA
ATOM     36  H3  UNL     1      15.359  12.323  24.724  1.00  0.00     0.210 HD
ENDBRANCH  28  35
ENDBRANCH  27  28
ENDBRANCH   1  27
TORSDOF 6
ENDMDL
MODEL 4
REMARK VINA RESULT: -7.110611886      2.506      5.688
REMARK  6 active torsions:
REMARK  status: ('A' for Active; 'I' for Inactive)
REMARK    1  A    between atoms: C1_2  and  C2_4 
REMARK    2  A    between atoms: C2_4  and  O2_5 
REMARK    3  A    between atoms: C2_4  and  C3_7 
REMARK    4  A    between atoms: C3_7  and  O3_8 
REMARK    5  A    between atoms: C3_7  and  C4_10 
REMARK    6  A    between atoms: C4_10  and  N2_11 
REMARK       I    between atoms: N3_13  and  C6_15 
REMARK       I    between atoms: C6_15  and  N4_16 
REMARK       I    between atoms: C6_15  and  N5_20 
ROOT
HETATM    1  N2  UNL     1      10.549   5.264  23.150  1.00  0.00    -0.310 N 
HETATM    2  C5  UNL     1      11.834   5.718  22.980  1.00  0.00     0.177 A 
HETATM    3  N3  UNL     1      12.354   5.523  21.848  1.00  0.00    -0.322 N 
ATOM      4  H3  UNL     1      11.739   5.043  21.190  1.00  0.00     0.165 HD
HETATM    5  C6  UNL     1      13.617   5.838  21.315  1.00  0.00     0.481 C 
HETATM    6  N4  UNL     1      13.781   5.083  20.058  1.00  0.00    -0.033 N 
ATOM      7  H41 UNL     1      14.697   5.312  19.671  1.00  0.00     0.278 HD
ATOM      8  H42 UNL     1      13.022   5.246  19.396  1.00  0.00     0.278 HD
ATOM      9  H43 UNL     1      13.644   4.079  20.179  1.00  0.00     0.278 HD
HETATM   10  N5  UNL     1      13.815   7.240  20.987  1.00  0.00    -0.033 N 
ATOM     11  H51 UNL     1      14.731   7.468  20.600  1.00  0.00     0.278 HD
ATOM     12  H52 UNL     1      13.622   7.822  21.802  1.00  0.00     0.278 HD
ATOM     13  H53 UNL     1      13.079   7.561  20.359  1.00  0.00     0.278 HD
HETATM   14  C7  UNL     1      12.455   6.339  24.042  1.00  0.00     0.290 A 
HETATM   15  O4  UNL     1      13.632   6.772  23.939  1.00  0.00    -0.264 OA
HETATM   16  N6  UNL     1      11.776   6.475  25.202  1.00  0.00    -0.313 N 
ATOM     17  H6  UNL     1      12.235   6.935  25.987  1.00  0.00     0.169 HD
HETATM   18  C8  UNL     1      10.522   6.030  25.361  1.00  0.00     0.148 A 
HETATM   19  C9  UNL     1       9.820   6.165  26.543  1.00  0.00     0.277 A 
HETATM   20  O5  UNL     1      10.391   6.726  27.492  1.00  0.00    -0.266 OA
HETATM   21  N7  UNL     1       8.552   5.703  26.671  1.00  0.00    -0.318 N 
ATOM     22  H7  UNL     1       8.055   5.815  27.555  1.00  0.00     0.169 HD
HETATM   23  C10 UNL     1       7.950   5.099  25.634  1.00  0.00     0.185 A 
HETATM   24  N8  UNL     1       8.627   4.965  24.487  1.00  0.00    -0.336 N 
ATOM     25  H8  UNL     1       8.163   4.503  23.705  1.00  0.00     0.168 HD
HETATM   26  C11 UNL     1       9.886   5.407  24.309  1.00  0.00     0.143 A 
ENDROOT
BRANCH   1  27
HETATM   27  C4  UNL     1       9.824   4.605  22.079  1.00  0.00     0.167 C 
BRANCH  27  28
HETATM   28  C3  UNL     1       9.028   5.593  21.255  1.00  0.00     0.174 C 
BRANCH  28  29
HETATM   29  C2  UNL     1       7.659   5.048  20.909  1.00  0.00     0.237 C 
BRANCH  29  30
HETATM   30  C1  UNL     1       6.679   6.102  20.639  1.00  0.00     0.262 C 
HETATM   31  N1  UNL     1       7.048   7.463  20.496  1.00  0.00    -0.060 NA
HETATM   32  O1  UNL     1       5.467   5.809  20.527  1.00  0.00    -0.274 OA
ENDBRANCH  29  30
BRANCH  29  33
HETATM   33  O2  UNL     1       7.182   4.204  21.893  1.00  0.00    -0.384 OA
ATOM     34  H2  UNL     1       6.625   3.539  21.505  1.00  0.00     0.210 HD
ENDBRANCH  29  33
ENDBRANCH  28  29
BRANCH  28  35
HETATM   35  O3  UNL     1       9.682   6.028  20.118  1.00  0.00    -0.391 OA
ATOM     36  H3  UNL     1      10.342   6.676  20.336  1.00  0.00     0.210 HD
ENDBRANCH  28  35
ENDBRANCH  27  28
ENDBRANCH   1  27
TORSDOF 6
ENDMDL
MODEL 5
REMARK VINA RESULT: -7.090766262      3.928      6.006
REMARK  6 active torsions:
REMARK  status: ('A' for Active; 'I' for Inactive)
REMARK    1  A    between atoms: C1_2  and  C2_4 
REMARK    2  A    between atoms: C2_4  and  O2_5 
REMARK    3  A    between atoms: C2_4  and  C3_7 
REMARK    4  A    between atoms: C3_7  and  O3_8 
REMARK    5  A    between atoms: C3_7  and  C4_10 
REMARK    6  A    between atoms: C4_10  and  N2_11 
REMARK       I    between atoms: N3_13  and  C6_15 
REMARK       I    between atoms: C6_15  and  N4_16 
REMARK       I    between atoms: C6_15  and  N5_20 
ROOT
HETATM    1  N2  UNL     1      11.875   5.565  21.562  1.00  0.00    -0.310 N 
HETATM    2  C5  UNL     1      12.169   4.816  20.449  1.00  0.00     0.177 A 
HETATM    3  N3  UNL     1      13.367   4.844  20.053  1.00  0.00    -0.322 N 
ATOM      4  H3  UNL     1      13.975   5.432  20.623  1.00  0.00     0.165 HD
HETATM    5  C6  UNL     1      14.026   4.223  18.977  1.00  0.00     0.481 C 
HETATM    6  N4  UNL     1      15.341   4.874  18.813  1.00  0.00    -0.033 N 
ATOM      7  H41 UNL     1      15.820   4.423  18.033  1.00  0.00     0.278 HD
ATOM      8  H42 UNL     1      15.894   4.870  19.670  1.00  0.00     0.278 HD
ATOM      9  H43 UNL     1      15.270   5.885  18.701  1.00  0.00     0.278 HD
HETATM   10  N5  UNL     1      14.284   2.803  19.149  1.00  0.00    -0.033 N 
ATOM     11  H51 UNL     1      14.763   2.353  18.369  1.00  0.00     0.278 HD
ATOM     12  H52 UNL     1      13.416   2.312  19.361  1.00  0.00     0.278 HD
ATOM     13  H53 UNL     1      14.796   2.642  20.016  1.00  0.00     0.278 HD
HETATM   14  C7  UNL     1      11.152   4.105  19.851  1.00  0.00     0.290 A 
HETATM   15  O4  UNL     1      11.369   3.404  18.828  1.00  0.00    -0.264 OA
HETATM   16  N6  UNL     1       9.913   4.173  20.383  1.00  0.00    -0.313 N 
ATOM     17  H6  UNL     1       9.160   3.646  19.940  1.00  0.00     0.169 HD
HETATM   18  C8  UNL     1       9.633   4.905  21.470  1.00  0.00     0.148 A 
HETATM   19  C9  UNL     1       8.368   4.980  22.021  1.00  0.00     0.277 A 
HETATM   20  O5  UNL     1       7.461   4.335  21.472  1.00  0.00    -0.266 OA
HETATM   21  N7  UNL     1       8.118   5.730  23.121  1.00  0.00    -0.318 N 
ATOM     22  H7  UNL     1       7.175   5.770  23.509  1.00  0.00     0.169 HD
HETATM   23  C10 UNL     1       9.112   6.422  23.702  1.00  0.00     0.185 A 
HETATM   24  N8  UNL     1      10.338   6.353  23.171  1.00  0.00    -0.336 N 
ATOM     25  H8  UNL     1      11.087   6.884  23.616  1.00  0.00     0.168 HD
HETATM   26  C11 UNL     1      10.639   5.623  22.081  1.00  0.00     0.143 A 
ENDROOT
BRANCH   1  27
HETATM   27  C4  UNL     1      12.891   6.338  22.253  1.00  0.00     0.167 C 
BRANCH  27  28
HETATM   28  C3  UNL     1      13.207   7.623  21.520  1.00  0.00     0.174 C 
BRANCH  28  29
HETATM   29  C2  UNL     1      14.700   7.828  21.382  1.00  0.00     0.237 C 
BRANCH  29  30
HETATM   30  C1  UNL     1      15.059   8.619  20.202  1.00  0.00     0.262 C 
HETATM   31  N1  UNL     1      15.428   8.021  18.971  1.00  0.00    -0.060 NA
HETATM   32  O1  UNL     1      15.043   9.869  20.264  1.00  0.00    -0.274 OA
ENDBRANCH  29  30
BRANCH  29  33
HETATM   33  O2  UNL     1      15.382   6.627  21.366  1.00  0.00    -0.384 OA
ATOM     34  H2  UNL     1      15.493   6.330  20.471  1.00  0.00     0.210 HD
ENDBRANCH  29  33
ENDBRANCH  28  29
BRANCH  28  35
HETATM   35  O3  UNL     1      12.609   8.742  22.069  1.00  0.00    -0.391 OA
ATOM     36  H3  UNL     1      11.907   8.492  22.659  1.00  0.00     0.210 HD
ENDBRANCH  28  35
ENDBRANCH  27  28
ENDBRANCH   1  27
TORSDOF 6
ENDMDL
