MODEL 1
REMARK VINA RESULT: -9.466192989      0.000      0.000
REMARK  16 active torsions:
REMARK  status: ('A' for Active; 'I' for Inactive)
REMARK    1  A    between atoms: C7_12  and  N3_13 
REMARK       I    between atoms: N3_13  and  C8_15 
REMARK    2  A    between atoms: C8_15  and  C9_17 
REMARK    3  A    between atoms: C9_17  and  C10_18 
REMARK    4  A    between atoms: C10_18  and  C11_19 
REMARK    5  A    between atoms: C11_19  and  C12_20 
REMARK    6  A    between atoms: C12_20  and  C13_21 
REMARK    7  A    between atoms: C13_21  and  C14_22 
REMARK    8  A    between atoms: C14_22  and  C15_23 
REMARK    9  A    between atoms: C15_23  and  C16_24 
REMARK   10  A    between atoms: C16_24  and  C17_25 
REMARK   11  A    between atoms: C17_25  and  C18_26 
REMARK   12  A    between atoms: C18_26  and  N4_27 
REMARK   13  A    between atoms: N4_27  and  C19_29 
REMARK   14  A    between atoms: C20_32  and  N6_33 
REMARK   15  A    between atoms: C22_41  and  N9_42 
REMARK   16  A    between atoms: C23_47  and  N11_48 
ROOT
HETATM    1  C17 UNL     1      -5.647  22.162 -14.028  1.00  0.00     0.044 C 
ENDROOT
BRANCH   1   2
HETATM    2  C16 UNL     1      -4.317  22.614 -14.464  1.00  0.00     0.005 C 
BRANCH   2   3
HETATM    3  C15 UNL     1      -3.193  22.626 -13.495  1.00  0.00     0.000 C 
BRANCH   3   4
HETATM    4  C14 UNL     1      -2.238  23.790 -13.744  1.00  0.00     0.000 C 
BRANCH   4   5
HETATM    5  C13 UNL     1      -2.502  24.871 -12.754  1.00  0.00     0.000 C 
BRANCH   5   6
HETATM    6  C12 UNL     1      -3.208  24.375 -11.544  1.00  0.00     0.000 C 
BRANCH   6   7
HETATM    7  C11 UNL     1      -4.573  24.991 -11.374  1.00  0.00     0.000 C 
BRANCH   7   8
HETATM    8  C10 UNL     1      -5.398  24.111 -10.487  1.00  0.00     0.009 C 
BRANCH   8   9
HETATM    9  C9  UNL     1      -5.776  24.789  -9.197  1.00  0.00     0.103 C 
BRANCH   9  10
HETATM   10  C8  UNL     1      -7.253  24.571  -8.978  1.00  0.00     0.222 C 
HETATM   11  N3  UNL     1      -8.193  25.153  -9.849  1.00  0.00    -0.327 N 
ATOM     12  H3  UNL     1      -7.812  25.716 -10.610  1.00  0.00     0.169 HD
HETATM   13  O3  UNL     1      -7.561  23.868  -8.007  1.00  0.00    -0.273 OA
BRANCH  11  14
HETATM   14  C7  UNL     1      -9.608  25.050  -9.792  1.00  0.00     0.037 A 
HETATM   15  C6  UNL     1     -10.443  25.917  -9.140  1.00  0.00     0.032 A 
HETATM   16  C5  UNL     1     -11.837  25.756  -9.139  1.00  0.00     0.034 A 
HETATM   17  C4  UNL     1     -12.430  24.709  -9.803  1.00  0.00     0.062 A 
HETATM   18  N2  UNL     1     -13.768  24.562  -9.801  1.00  0.00    -0.317 N 
HETATM   19  C26 UNL     1     -11.589  23.839 -10.459  1.00  0.00     0.066 A 
HETATM   20  C3  UNL     1     -14.335  23.536 -10.454  1.00  0.00     0.314 A 
ATOM     21  H2  UNL     1     -14.352  25.233  -9.302  1.00  0.00     0.169 HD
HETATM   22  C2  UNL     1     -13.513  22.653 -11.117  1.00  0.00     0.316 A 
HETATM   23  O2  UNL     1     -15.600  23.388 -10.456  1.00  0.00    -0.262 OA
HETATM   24  N1  UNL     1     -12.191  22.801 -11.118  1.00  0.00    -0.312 N 
HETATM   25  O1  UNL     1     -14.069  21.689 -11.728  1.00  0.00    -0.262 OA
HETATM   26  C1  UNL     1     -11.319  21.878 -11.811  1.00  0.00     0.160 C 
HETATM   27  C25 UNL     1     -10.226  23.980 -10.469  1.00  0.00     0.061 A 
ENDBRANCH  11  14
ENDBRANCH   9  10
ENDBRANCH   8   9
ENDBRANCH   7   8
ENDBRANCH   6   7
ENDBRANCH   5   6
ENDBRANCH   4   5
ENDBRANCH   3   4
ENDBRANCH   2   3
ENDBRANCH   1   2
BRANCH   1  28
HETATM   28  C18 UNL     1      -6.794  23.094 -14.019  1.00  0.00     0.062 C 
BRANCH  28  29
HETATM   29  N4  UNL     1      -7.779  22.942 -15.008  1.00  0.00    -0.355 N 
ATOM     30  H4  UNL     1      -8.586  22.383 -14.731  1.00  0.00     0.166 HD
BRANCH  29  31
HETATM   31  C19 UNL     1      -7.820  23.399 -16.208  1.00  0.00     0.138 A 
HETATM   32  N5  UNL     1      -6.791  23.303 -17.045  1.00  0.00    -0.176 N 
HETATM   33  C20 UNL     1      -6.905  23.805 -18.294  1.00  0.00     0.679 A 
ATOM     34  H5  UNL     1      -5.925  22.856 -16.747  1.00  0.00     0.186 HD
HETATM   35  N7  UNL     1      -8.025  24.399 -18.719  1.00  0.00    -0.175 N 
HETATM   36  C21 UNL     1      -9.084  24.513 -17.898  1.00  0.00     0.154 A 
ATOM     37  H7  UNL     1      -8.076  24.766 -19.669  1.00  0.00     0.186 HD
HETATM   38  N8  UNL     1     -10.224  25.119 -18.288  1.00  0.00    -0.175 N 
HETATM   39  C24 UNL     1      -8.984  24.009 -16.625  1.00  0.00     0.098 A 
HETATM   40  C22 UNL     1     -11.272  25.239 -17.447  1.00  0.00     0.679 A 
ATOM     41  H8  UNL     1     -10.295  25.492 -19.234  1.00  0.00     0.186 HD
HETATM   42  N10 UNL     1     -11.195  24.757 -16.202  1.00  0.00    -0.176 N 
HETATM   43  C23 UNL     1     -10.080  24.148 -15.773  1.00  0.00     0.132 A 
ATOM     44  H10 UNL     1     -11.992  24.855 -15.572  1.00  0.00     0.186 HD
BRANCH  33  45
HETATM   45  N6  UNL     1      -5.887  23.704 -19.105  1.00  0.00    -0.234 N 
ATOM     46  H62 UNL     1      -5.511  22.781 -19.322  1.00  0.00     0.174 HD
ATOM     47  H61 UNL     1      -5.492  24.556 -19.503  1.00  0.00     0.174 HD
ENDBRANCH  33  45
BRANCH  40  48
HETATM   48  N9  UNL     1     -12.380  25.817 -17.799  1.00  0.00    -0.234 N 
ATOM     49  H92 UNL     1     -13.101  25.235 -18.224  1.00  0.00     0.174 HD
ATOM     50  H91 UNL     1     -12.541  26.815 -17.662  1.00  0.00     0.174 HD
ENDBRANCH  40  48
BRANCH  43  51
HETATM   51  N11 UNL     1     -10.057  23.735 -14.573  1.00  0.00    -0.384 N 
ATOM     52 2H11 UNL     1     -10.274  24.346 -13.786  1.00  0.00     0.157 HD
ATOM     53 1H11 UNL     1      -9.833  22.753 -14.414  1.00  0.00     0.157 HD
ENDBRANCH  43  51
ENDBRANCH  29  31
ENDBRANCH  28  29
ENDBRANCH   1  28
TORSDOF 16
ENDMDL
MODEL 2
REMARK VINA RESULT: -9.430497989      1.868      2.666
REMARK  16 active torsions:
REMARK  status: ('A' for Active; 'I' for Inactive)
REMARK    1  A    between atoms: C7_12  and  N3_13 
REMARK       I    between atoms: N3_13  and  C8_15 
REMARK    2  A    between atoms: C8_15  and  C9_17 
REMARK    3  A    between atoms: C9_17  and  C10_18 
REMARK    4  A    between atoms: C10_18  and  C11_19 
REMARK    5  A    between atoms: C11_19  and  C12_20 
REMARK    6  A    between atoms: C12_20  and  C13_21 
REMARK    7  A    between atoms: C13_21  and  C14_22 
REMARK    8  A    between atoms: C14_22  and  C15_23 
REMARK    9  A    between atoms: C15_23  and  C16_24 
REMARK   10  A    between atoms: C16_24  and  C17_25 
REMARK   11  A    between atoms: C17_25  and  C18_26 
REMARK   12  A    between atoms: C18_26  and  N4_27 
REMARK   13  A    between atoms: N4_27  and  C19_29 
REMARK   14  A    between atoms: C20_32  and  N6_33 
REMARK   15  A    between atoms: C22_41  and  N9_42 
REMARK   16  A    between atoms: C23_47  and  N11_48 
ROOT
HETATM    1  C17 UNL     1      -3.989  22.531 -12.573  1.00  0.00     0.044 C 
ENDROOT
BRANCH   1   2
HETATM    2  C16 UNL     1      -5.020  22.580 -11.525  1.00  0.00     0.005 C 
BRANCH   2   3
HETATM    3  C15 UNL     1      -5.233  23.837 -10.765  1.00  0.00     0.000 C 
BRANCH   3   4
HETATM    4  C14 UNL     1      -3.916  24.530 -10.429  1.00  0.00     0.000 C 
BRANCH   4   5
HETATM    5  C13 UNL     1      -4.183  25.941 -10.032  1.00  0.00     0.000 C 
BRANCH   5   6
HETATM    6  C12 UNL     1      -5.342  26.064  -9.111  1.00  0.00     0.000 C 
BRANCH   6   7
HETATM    7  C11 UNL     1      -4.953  25.902  -7.664  1.00  0.00     0.000 C 
BRANCH   7   8
HETATM    8  C10 UNL     1      -6.018  26.506  -6.802  1.00  0.00     0.009 C 
BRANCH   8   9
HETATM    9  C9  UNL     1      -6.645  25.501  -5.873  1.00  0.00     0.103 C 
BRANCH   9  10
HETATM   10  C8  UNL     1      -7.765  24.819  -6.620  1.00  0.00     0.222 C 
HETATM   11  N3  UNL     1      -8.640  25.571  -7.427  1.00  0.00    -0.327 N 
ATOM     12  H3  UNL     1      -8.467  26.575  -7.463  1.00  0.00     0.169 HD
HETATM   13  O3  UNL     1      -7.852  23.594  -6.472  1.00  0.00    -0.273 OA
BRANCH  11  14
HETATM   14  C7  UNL     1      -9.736  25.095  -8.195  1.00  0.00     0.037 A 
HETATM   15  C6  UNL     1     -10.821  24.423  -7.700  1.00  0.00     0.032 A 
HETATM   16  C5  UNL     1     -11.875  23.994  -8.522  1.00  0.00     0.034 A 
HETATM   17  C4  UNL     1     -11.861  24.236  -9.875  1.00  0.00     0.062 A 
HETATM   18  N2  UNL     1     -12.876  23.824 -10.657  1.00  0.00    -0.317 N 
HETATM   19  C26 UNL     1     -10.769  24.912 -10.370  1.00  0.00     0.066 A 
HETATM   20  C3  UNL     1     -12.851  24.066 -11.977  1.00  0.00     0.314 A 
ATOM     21  H2  UNL     1     -13.666  23.327 -10.246  1.00  0.00     0.169 HD
HETATM   22  C2  UNL     1     -11.769  24.740 -12.494  1.00  0.00     0.316 A 
HETATM   23  O2  UNL     1     -13.807  23.679 -12.725  1.00  0.00    -0.262 OA
HETATM   24  N1  UNL     1     -10.768  25.146 -11.718  1.00  0.00    -0.312 N 
HETATM   25  O1  UNL     1     -11.765  24.959 -13.745  1.00  0.00    -0.262 OA
HETATM   26  C1  UNL     1      -9.625  25.856 -12.253  1.00  0.00     0.160 C 
HETATM   27  C25 UNL     1      -9.732  25.337  -9.583  1.00  0.00     0.061 A 
ENDBRANCH  11  14
ENDBRANCH   9  10
ENDBRANCH   8   9
ENDBRANCH   7   8
ENDBRANCH   6   7
ENDBRANCH   5   6
ENDBRANCH   4   5
ENDBRANCH   3   4
ENDBRANCH   2   3
ENDBRANCH   1   2
BRANCH   1  28
HETATM   28  C18 UNL     1      -4.277  23.023 -13.936  1.00  0.00     0.062 C 
BRANCH  28  29
HETATM   29  N4  UNL     1      -5.535  22.737 -14.492  1.00  0.00    -0.355 N 
ATOM     30  H4  UNL     1      -6.218  22.354 -13.838  1.00  0.00     0.166 HD
BRANCH  29  31
HETATM   31  C19 UNL     1      -5.958  22.885 -15.695  1.00  0.00     0.138 A 
HETATM   32  N5  UNL     1      -5.148  22.831 -16.749  1.00  0.00    -0.176 N 
HETATM   33  C20 UNL     1      -5.661  22.994 -17.988  1.00  0.00     0.679 A 
ATOM     34  H5  UNL     1      -4.149  22.668 -16.623  1.00  0.00     0.186 HD
HETATM   35  N7  UNL     1      -6.964  23.210 -18.191  1.00  0.00    -0.175 N 
HETATM   36  C21 UNL     1      -7.811  23.271 -17.147  1.00  0.00     0.154 A 
ATOM     37  H7  UNL     1      -7.319  23.329 -19.140  1.00  0.00     0.186 HD
HETATM   38  N8  UNL     1      -9.129  23.502 -17.314  1.00  0.00    -0.175 N 
HETATM   39  C24 UNL     1      -7.305  23.109 -15.882  1.00  0.00     0.098 A 
HETATM   40  C22 UNL     1      -9.963  23.576 -16.255  1.00  0.00     0.679 A 
ATOM     41  H8  UNL     1      -9.503  23.623 -18.255  1.00  0.00     0.186 HD
HETATM   42  N10 UNL     1      -9.490  23.423 -15.014  1.00  0.00    -0.176 N 
HETATM   43  C23 UNL     1      -8.186  23.192 -14.804  1.00  0.00     0.132 A 
ATOM     44  H10 UNL     1     -10.128  23.483 -14.220  1.00  0.00     0.186 HD
BRANCH  33  45
HETATM   45  N6  UNL     1      -4.854  22.939 -19.012  1.00  0.00    -0.234 N 
ATOM     46  H62 UNL     1      -4.836  23.713 -19.676  1.00  0.00     0.174 HD
ATOM     47  H61 UNL     1      -4.259  22.118 -19.122  1.00  0.00     0.174 HD
ENDBRANCH  33  45
BRANCH  40  48
HETATM   48  N9  UNL     1     -11.236  23.796 -16.390  1.00  0.00    -0.234 N 
ATOM     49  H92 UNL     1     -11.567  24.099 -17.306  1.00  0.00     0.174 HD
ATOM     50  H91 UNL     1     -11.894  23.674 -15.620  1.00  0.00     0.174 HD
ENDBRANCH  40  48
BRANCH  43  51
HETATM   51  N11 UNL     1      -7.793  23.082 -13.602  1.00  0.00    -0.384 N 
ATOM     52 2H11 UNL     1      -8.428  22.829 -12.845  1.00  0.00     0.157 HD
ATOM     53 1H11 UNL     1      -6.802  23.233 -13.412  1.00  0.00     0.157 HD
ENDBRANCH  43  51
ENDBRANCH  29  31
ENDBRANCH  28  29
ENDBRANCH   1  28
TORSDOF 16
ENDMDL
MODEL 3
REMARK VINA RESULT: -9.339232846      1.351      2.558
REMARK  16 active torsions:
REMARK  status: ('A' for Active; 'I' for Inactive)
REMARK    1  A    between atoms: C7_12  and  N3_13 
REMARK       I    between atoms: N3_13  and  C8_15 
REMARK    2  A    between atoms: C8_15  and  C9_17 
REMARK    3  A    between atoms: C9_17  and  C10_18 
REMARK    4  A    between atoms: C10_18  and  C11_19 
REMARK    5  A    between atoms: C11_19  and  C12_20 
REMARK    6  A    between atoms: C12_20  and  C13_21 
REMARK    7  A    between atoms: C13_21  and  C14_22 
REMARK    8  A    between atoms: C14_22  and  C15_23 
REMARK    9  A    between atoms: C15_23  and  C16_24 
REMARK   10  A    between atoms: C16_24  and  C17_25 
REMARK   11  A    between atoms: C17_25  and  C18_26 
REMARK   12  A    between atoms: C18_26  and  N4_27 
REMARK   13  A    between atoms: N4_27  and  C19_29 
REMARK   14  A    between atoms: C20_32  and  N6_33 
REMARK   15  A    between atoms: C22_41  and  N9_42 
REMARK   16  A    between atoms: C23_47  and  N11_48 
ROOT
HETATM    1  C17 UNL     1      -3.690  22.264 -13.185  1.00  0.00     0.044 C 
ENDROOT
BRANCH   1   2
HETATM    2  C16 UNL     1      -3.910  22.930 -11.892  1.00  0.00     0.005 C 
BRANCH   2   3
HETATM    3  C15 UNL     1      -5.294  23.121 -11.392  1.00  0.00     0.000 C 
BRANCH   3   4
HETATM    4  C14 UNL     1      -5.328  23.945 -10.109  1.00  0.00     0.000 C 
BRANCH   4   5
HETATM    5  C13 UNL     1      -4.532  25.191 -10.296  1.00  0.00     0.000 C 
BRANCH   5   6
HETATM    6  C12 UNL     1      -3.749  25.553  -9.086  1.00  0.00     0.000 C 
BRANCH   6   7
HETATM    7  C11 UNL     1      -4.330  26.733  -8.350  1.00  0.00     0.000 C 
BRANCH   7   8
HETATM    8  C10 UNL     1      -5.344  26.243  -7.364  1.00  0.00     0.009 C 
BRANCH   8   9
HETATM    9  C9  UNL     1      -6.693  26.883  -7.561  1.00  0.00     0.103 C 
BRANCH   9  10
HETATM   10  C8  UNL     1      -7.656  25.803  -7.992  1.00  0.00     0.222 C 
HETATM   11  N3  UNL     1      -8.285  25.875  -9.248  1.00  0.00    -0.327 N 
ATOM     12  H3  UNL     1      -8.051  26.684  -9.824  1.00  0.00     0.169 HD
HETATM   13  O3  UNL     1      -7.843  24.887  -7.182  1.00  0.00    -0.273 OA
BRANCH  11  14
HETATM   14  C7  UNL     1      -9.208  24.952  -9.810  1.00  0.00     0.037 A 
HETATM   15  C6  UNL     1      -8.878  23.844 -10.543  1.00  0.00     0.032 A 
HETATM   16  C5  UNL     1      -9.848  22.969 -11.056  1.00  0.00     0.034 A 
HETATM   17  C4  UNL     1     -11.187  23.191 -10.839  1.00  0.00     0.062 A 
HETATM   18  N2  UNL     1     -12.112  22.347 -11.331  1.00  0.00    -0.317 N 
HETATM   19  C26 UNL     1     -11.516  24.306 -10.101  1.00  0.00     0.066 A 
HETATM   20  C3  UNL     1     -13.417  22.574 -11.113  1.00  0.00     0.314 A 
ATOM     21  H2  UNL     1     -11.821  21.533 -11.872  1.00  0.00     0.169 HD
HETATM   22  C2  UNL     1     -13.770  23.683 -10.378  1.00  0.00     0.316 A 
HETATM   23  O2  UNL     1     -14.299  21.781 -11.576  1.00  0.00    -0.262 OA
HETATM   24  N1  UNL     1     -12.853  24.515  -9.892  1.00  0.00    -0.312 N 
HETATM   25  O1  UNL     1     -15.009  23.879 -10.183  1.00  0.00    -0.262 OA
HETATM   26  C1  UNL     1     -13.214  25.683  -9.118  1.00  0.00     0.160 C 
HETATM   27  C25 UNL     1     -10.583  25.170  -9.594  1.00  0.00     0.061 A 
ENDBRANCH  11  14
ENDBRANCH   9  10
ENDBRANCH   8   9
ENDBRANCH   7   8
ENDBRANCH   6   7
ENDBRANCH   5   6
ENDBRANCH   4   5
ENDBRANCH   3   4
ENDBRANCH   2   3
ENDBRANCH   1   2
BRANCH   1  28
HETATM   28  C18 UNL     1      -4.113  22.908 -14.445  1.00  0.00     0.062 C 
BRANCH  28  29
HETATM   29  N4  UNL     1      -5.378  22.583 -14.963  1.00  0.00    -0.355 N 
ATOM     30  H4  UNL     1      -5.932  21.953 -14.383  1.00  0.00     0.166 HD
BRANCH  29  31
HETATM   31  C19 UNL     1      -5.944  22.958 -16.053  1.00  0.00     0.138 A 
HETATM   32  N5  UNL     1      -5.261  23.183 -17.172  1.00  0.00    -0.176 N 
HETATM   33  C20 UNL     1      -5.922  23.573 -18.284  1.00  0.00     0.679 A 
ATOM     34  H5  UNL     1      -4.249  23.061 -17.191  1.00  0.00     0.186 HD
HETATM   35  N7  UNL     1      -7.248  23.743 -18.296  1.00  0.00    -0.175 N 
HETATM   36  C21 UNL     1      -7.968  23.525 -17.181  1.00  0.00     0.154 A 
ATOM     37  H7  UNL     1      -7.715  24.039 -19.153  1.00  0.00     0.186 HD
HETATM   38  N8  UNL     1      -9.305  23.700 -17.153  1.00  0.00    -0.175 N 
HETATM   39  C24 UNL     1      -7.312  23.129 -16.043  1.00  0.00     0.098 A 
HETATM   40  C22 UNL     1     -10.012  23.493 -16.023  1.00  0.00     0.679 A 
ATOM     41  H8  UNL     1      -9.791  23.995 -18.001  1.00  0.00     0.186 HD
HETATM   42  N10 UNL     1      -9.392  23.108 -14.902  1.00  0.00    -0.176 N 
HETATM   43  C23 UNL     1      -8.064  22.922 -14.886  1.00  0.00     0.132 A 
ATOM     44  H10 UNL     1      -9.934  22.956 -14.051  1.00  0.00     0.186 HD
BRANCH  33  45
HETATM   45  N6  UNL     1      -5.239  23.790 -19.374  1.00  0.00    -0.234 N 
ATOM     46  H62 UNL     1      -4.807  24.703 -19.520  1.00  0.00     0.174 HD
ATOM     47  H61 UNL     1      -5.154  23.036 -20.056  1.00  0.00     0.174 HD
ENDBRANCH  33  45
BRANCH  40  48
HETATM   48  N9  UNL     1     -11.299  23.654 -15.971  1.00  0.00    -0.234 N 
ATOM     49  H92 UNL     1     -11.836  22.993 -15.410  1.00  0.00     0.174 HD
ATOM     50  H91 UNL     1     -11.773  24.410 -16.466  1.00  0.00     0.174 HD
ENDBRANCH  40  48
BRANCH  43  51
HETATM   51  N11 UNL     1      -7.529  22.583 -13.787  1.00  0.00    -0.384 N 
ATOM     52 2H11 UNL     1      -7.649  23.130 -12.934  1.00  0.00     0.157 HD
ATOM     53 1H11 UNL     1      -6.982  21.722 -13.771  1.00  0.00     0.157 HD
ENDBRANCH  43  51
ENDBRANCH  29  31
ENDBRANCH  28  29
ENDBRANCH   1  28
TORSDOF 16
ENDMDL
MODEL 4
REMARK VINA RESULT: -9.270803344      2.969      7.146
REMARK  16 active torsions:
REMARK  status: ('A' for Active; 'I' for Inactive)
REMARK    1  A    between atoms: C7_12  and  N3_13 
REMARK       I    between atoms: N3_13  and  C8_15 
REMARK    2  A    between atoms: C8_15  and  C9_17 
REMARK    3  A    between atoms: C9_17  and  C10_18 
REMARK    4  A    between atoms: C10_18  and  C11_19 
REMARK    5  A    between atoms: C11_19  and  C12_20 
REMARK    6  A    between atoms: C12_20  and  C13_21 
REMARK    7  A    between atoms: C13_21  and  C14_22 
REMARK    8  A    between atoms: C14_22  and  C15_23 
REMARK    9  A    between atoms: C15_23  and  C16_24 
REMARK   10  A    between atoms: C16_24  and  C17_25 
REMARK   11  A    between atoms: C17_25  and  C18_26 
REMARK   12  A    between atoms: C18_26  and  N4_27 
REMARK   13  A    between atoms: N4_27  and  C19_29 
REMARK   14  A    between atoms: C20_32  and  N6_33 
REMARK   15  A    between atoms: C22_41  and  N9_42 
REMARK   16  A    between atoms: C23_47  and  N11_48 
ROOT
HETATM    1  C17 UNL     1      -8.895  27.009 -10.602  1.00  0.00     0.044 C 
ENDROOT
BRANCH   1   2
HETATM    2  C16 UNL     1      -9.120  26.030  -9.528  1.00  0.00     0.005 C 
BRANCH   2   3
HETATM    3  C15 UNL     1      -8.034  25.745  -8.558  1.00  0.00     0.000 C 
BRANCH   3   4
HETATM    4  C14 UNL     1      -7.828  24.246  -8.357  1.00  0.00     0.000 C 
BRANCH   4   5
HETATM    5  C13 UNL     1      -7.491  23.611  -9.661  1.00  0.00     0.000 C 
BRANCH   5   6
HETATM    6  C12 UNL     1      -6.067  23.805 -10.038  1.00  0.00     0.000 C 
BRANCH   6   7
HETATM    7  C11 UNL     1      -5.631  22.893 -11.156  1.00  0.00     0.000 C 
BRANCH   7   8
HETATM    8  C10 UNL     1      -4.352  23.410 -11.737  1.00  0.00     0.009 C 
BRANCH   8   9
HETATM    9  C9  UNL     1      -3.827  22.532 -12.842  1.00  0.00     0.103 C 
BRANCH   9  10
HETATM   10  C8  UNL     1      -4.807  22.600 -13.989  1.00  0.00     0.222 C 
HETATM   11  N3  UNL     1      -4.886  23.756 -14.786  1.00  0.00    -0.327 N 
ATOM     12  H3  UNL     1      -4.256  24.519 -14.537  1.00  0.00     0.169 HD
HETATM   13  O3  UNL     1      -5.510  21.597 -14.164  1.00  0.00    -0.273 OA
BRANCH  11  14
HETATM   14  C7  UNL     1      -5.741  23.987 -15.897  1.00  0.00     0.037 A 
HETATM   15  C6  UNL     1      -5.671  23.339 -17.101  1.00  0.00     0.032 A 
HETATM   16  C5  UNL     1      -6.562  23.613 -18.151  1.00  0.00     0.034 A 
HETATM   17  C4  UNL     1      -7.554  24.554 -18.011  1.00  0.00     0.062 A 
HETATM   18  N2  UNL     1      -8.407  24.809 -19.020  1.00  0.00    -0.317 N 
HETATM   19  C26 UNL     1      -7.622  25.203 -16.799  1.00  0.00     0.066 A 
HETATM   20  C3  UNL     1      -9.372  25.730 -18.872  1.00  0.00     0.314 A 
ATOM     21  H2  UNL     1      -8.319  24.302 -19.901  1.00  0.00     0.169 HD
HETATM   22  C2  UNL     1      -9.459  26.392 -17.668  1.00  0.00     0.316 A 
HETATM   23  O2  UNL     1     -10.182  25.979 -19.822  1.00  0.00    -0.262 OA
HETATM   24  N1  UNL     1      -8.615  26.137 -16.672  1.00  0.00    -0.312 N 
HETATM   25  O1  UNL     1     -10.379  27.259 -17.548  1.00  0.00    -0.262 OA
HETATM   26  C1  UNL     1      -8.698  26.828 -15.404  1.00  0.00     0.160 C 
HETATM   27  C25 UNL     1      -6.761  24.949 -15.765  1.00  0.00     0.061 A 
ENDBRANCH  11  14
ENDBRANCH   9  10
ENDBRANCH   8   9
ENDBRANCH   7   8
ENDBRANCH   6   7
ENDBRANCH   5   6
ENDBRANCH   4   5
ENDBRANCH   3   4
ENDBRANCH   2   3
ENDBRANCH   1   2
BRANCH   1  28
HETATM   28  C18 UNL     1      -9.690  26.957 -11.847  1.00  0.00     0.062 C 
BRANCH  28  29
HETATM   29  N4  UNL     1     -10.692  25.979 -11.953  1.00  0.00    -0.355 N 
ATOM     30  H4  UNL     1     -11.642  26.315 -11.792  1.00  0.00     0.166 HD
BRANCH  29  31
HETATM   31  C19 UNL     1     -10.597  24.727 -12.221  1.00  0.00     0.138 A 
HETATM   32  N5  UNL     1      -9.565  24.215 -12.886  1.00  0.00    -0.176 N 
HETATM   33  C20 UNL     1      -9.528  22.887 -13.133  1.00  0.00     0.679 A 
ATOM     34  H5  UNL     1      -8.808  24.819 -13.207  1.00  0.00     0.186 HD
HETATM   35  N7  UNL     1     -10.502  22.065 -12.728  1.00  0.00    -0.175 N 
HETATM   36  C21 UNL     1     -11.560  22.550 -12.054  1.00  0.00     0.154 A 
ATOM     37  H7  UNL     1     -10.443  21.068 -12.931  1.00  0.00     0.186 HD
HETATM   38  N8  UNL     1     -12.567  21.753 -11.644  1.00  0.00    -0.175 N 
HETATM   39  C24 UNL     1     -11.613  23.897 -11.797  1.00  0.00     0.098 A 
HETATM   40  C22 UNL     1     -13.630  22.257 -10.982  1.00  0.00     0.679 A 
ATOM     41  H8  UNL     1     -12.526  20.752 -11.837  1.00  0.00     0.186 HD
HETATM   42  N10 UNL     1     -13.702  23.567 -10.723  1.00  0.00    -0.176 N 
HETATM   43  C23 UNL     1     -12.722  24.395 -11.113  1.00  0.00     0.132 A 
ATOM     44  H10 UNL     1     -14.510  23.939 -10.224  1.00  0.00     0.186 HD
BRANCH  33  45
HETATM   45  N6  UNL     1      -8.510  22.399 -13.786  1.00  0.00    -0.234 N 
ATOM     46  H62 UNL     1      -7.781  23.031 -14.120  1.00  0.00     0.174 HD
ATOM     47  H61 UNL     1      -8.468  21.392 -13.946  1.00  0.00     0.174 HD
ENDBRANCH  33  45
BRANCH  40  48
HETATM   48  N9  UNL     1     -14.612  21.510 -10.576  1.00  0.00    -0.234 N 
ATOM     49  H92 UNL     1     -14.562  21.141  -9.627  1.00  0.00     0.174 HD
ATOM     50  H91 UNL     1     -15.411  21.291 -11.172  1.00  0.00     0.174 HD
ENDBRANCH  40  48
BRANCH  43  51
HETATM   51  N11 UNL     1     -12.859  25.631 -10.862  1.00  0.00    -0.384 N 
ATOM     52 2H11 UNL     1     -13.248  25.965  -9.979  1.00  0.00     0.157 HD
ATOM     53 1H11 UNL     1     -12.546  26.297 -11.569  1.00  0.00     0.157 HD
ENDBRANCH  43  51
ENDBRANCH  29  31
ENDBRANCH  28  29
ENDBRANCH   1  28
TORSDOF 16
ENDMDL
MODEL 5
REMARK VINA RESULT: -9.235533373      1.405      2.761
REMARK  16 active torsions:
REMARK  status: ('A' for Active; 'I' for Inactive)
REMARK    1  A    between atoms: C7_12  and  N3_13 
REMARK       I    between atoms: N3_13  and  C8_15 
REMARK    2  A    between atoms: C8_15  and  C9_17 
REMARK    3  A    between atoms: C9_17  and  C10_18 
REMARK    4  A    between atoms: C10_18  and  C11_19 
REMARK    5  A    between atoms: C11_19  and  C12_20 
REMARK    6  A    between atoms: C12_20  and  C13_21 
REMARK    7  A    between atoms: C13_21  and  C14_22 
REMARK    8  A    between atoms: C14_22  and  C15_23 
REMARK    9  A    between atoms: C15_23  and  C16_24 
REMARK   10  A    between atoms: C16_24  and  C17_25 
REMARK   11  A    between atoms: C17_25  and  C18_26 
REMARK   12  A    between atoms: C18_26  and  N4_27 
REMARK   13  A    between atoms: N4_27  and  C19_29 
REMARK   14  A    between atoms: C20_32  and  N6_33 
REMARK   15  A    between atoms: C22_41  and  N9_42 
REMARK   16  A    between atoms: C23_47  and  N11_48 
ROOT
HETATM    1  C17 UNL     1      -4.953  23.430 -16.335  1.00  0.00     0.044 C 
ENDROOT
BRANCH   1   2
HETATM    2  C16 UNL     1      -4.522  22.459 -15.317  1.00  0.00     0.005 C 
BRANCH   2   3
HETATM    3  C15 UNL     1      -3.663  22.908 -14.193  1.00  0.00     0.000 C 
BRANCH   3   4
HETATM    4  C14 UNL     1      -4.188  22.422 -12.845  1.00  0.00     0.000 C 
BRANCH   4   5
HETATM    5  C13 UNL     1      -4.967  23.511 -12.193  1.00  0.00     0.000 C 
BRANCH   5   6
HETATM    6  C12 UNL     1      -4.424  23.880 -10.860  1.00  0.00     0.000 C 
BRANCH   6   7
HETATM    7  C11 UNL     1      -4.312  25.371 -10.671  1.00  0.00     0.000 C 
BRANCH   7   8
HETATM    8  C10 UNL     1      -5.284  25.804  -9.617  1.00  0.00     0.009 C 
BRANCH   8   9
HETATM    9  C9  UNL     1      -6.299  26.785 -10.139  1.00  0.00     0.103 C 
BRANCH   9  10
HETATM   10  C8  UNL     1      -7.432  25.996 -10.748  1.00  0.00     0.222 C 
HETATM   11  N3  UNL     1      -8.230  25.163  -9.942  1.00  0.00    -0.327 N 
ATOM     12  H3  UNL     1      -7.990  25.133  -8.951  1.00  0.00     0.169 HD
HETATM   13  O3  UNL     1      -7.596  26.133 -11.967  1.00  0.00    -0.273 OA
BRANCH  11  14
HETATM   14  C7  UNL     1      -9.329  24.360 -10.347  1.00  0.00     0.037 A 
HETATM   15  C6  UNL     1      -9.243  23.204 -11.075  1.00  0.00     0.032 A 
HETATM   16  C5  UNL     1     -10.377  22.455 -11.427  1.00  0.00     0.034 A 
HETATM   17  C4  UNL     1     -11.636  22.856 -11.049  1.00  0.00     0.062 A 
HETATM   18  N2  UNL     1     -12.719  22.131 -11.387  1.00  0.00    -0.317 N 
HETATM   19  C26 UNL     1     -11.719  24.018 -10.316  1.00  0.00     0.066 A 
HETATM   20  C3  UNL     1     -13.943  22.532 -11.011  1.00  0.00     0.314 A 
ATOM     21  H2  UNL     1     -12.608  21.275 -11.931  1.00  0.00     0.169 HD
HETATM   22  C2  UNL     1     -14.050  23.692 -10.278  1.00  0.00     0.316 A 
HETATM   23  O2  UNL     1     -14.973  21.854 -11.328  1.00  0.00    -0.262 OA
HETATM   24  N1  UNL     1     -12.978  24.405  -9.944  1.00  0.00    -0.312 N 
HETATM   25  O1  UNL     1     -15.218  24.054  -9.933  1.00  0.00    -0.262 OA
HETATM   26  C1  UNL     1     -13.082  25.626  -9.174  1.00  0.00     0.160 C 
HETATM   27  C25 UNL     1     -10.624  24.761  -9.964  1.00  0.00     0.061 A 
ENDBRANCH  11  14
ENDBRANCH   9  10
ENDBRANCH   8   9
ENDBRANCH   7   8
ENDBRANCH   6   7
ENDBRANCH   5   6
ENDBRANCH   4   5
ENDBRANCH   3   4
ENDBRANCH   2   3
ENDBRANCH   1   2
BRANCH   1  28
HETATM   28  C18 UNL     1      -5.895  23.034 -17.402  1.00  0.00     0.062 C 
BRANCH  28  29
HETATM   29  N4  UNL     1      -7.168  23.627 -17.415  1.00  0.00    -0.355 N 
ATOM     30  H4  UNL     1      -7.272  24.410 -18.060  1.00  0.00     0.166 HD
BRANCH  29  31
HETATM   31  C19 UNL     1      -8.221  23.335 -16.740  1.00  0.00     0.138 A 
HETATM   32  N5  UNL     1      -8.231  22.387 -15.807  1.00  0.00    -0.176 N 
HETATM   33  C20 UNL     1      -9.374  22.134 -15.133  1.00  0.00     0.679 A 
ATOM     34  H5  UNL     1      -7.384  21.857 -15.602  1.00  0.00     0.186 HD
HETATM   35  N7  UNL     1     -10.503  22.807 -15.375  1.00  0.00    -0.175 N 
HETATM   36  C21 UNL     1     -10.527  23.772 -16.313  1.00  0.00     0.154 A 
ATOM     37  H7  UNL     1     -11.348  22.590 -14.848  1.00  0.00     0.186 HD
HETATM   38  N8  UNL     1     -11.651  24.462 -16.593  1.00  0.00    -0.175 N 
HETATM   39  C24 UNL     1      -9.374  24.041 -17.006  1.00  0.00     0.098 A 
HETATM   40  C22 UNL     1     -11.663  25.416 -17.548  1.00  0.00     0.679 A 
ATOM     41  H8  UNL     1     -12.507  24.260 -16.076  1.00  0.00     0.186 HD
HETATM   42  N10 UNL     1     -10.551  25.693 -18.237  1.00  0.00    -0.176 N 
HETATM   43  C23 UNL     1      -9.412  25.030 -17.990  1.00  0.00     0.132 A 
ATOM     44  H10 UNL     1     -10.570  26.414 -18.958  1.00  0.00     0.186 HD
BRANCH  33  45
HETATM   45  N6  UNL     1      -9.369  21.200 -14.221  1.00  0.00    -0.234 N 
ATOM     46  H62 UNL     1     -10.241  20.723 -13.989  1.00  0.00     0.174 HD
ATOM     47  H61 UNL     1      -8.488  20.970 -13.761  1.00  0.00     0.174 HD
ENDBRANCH  33  45
BRANCH  40  48
HETATM   48  N9  UNL     1     -12.732  26.094 -17.836  1.00  0.00    -0.234 N 
ATOM     49  H92 UNL     1     -13.623  25.597 -17.829  1.00  0.00     0.174 HD
ATOM     50  H91 UNL     1     -12.702  27.089 -18.061  1.00  0.00     0.174 HD
ENDBRANCH  40  48
BRANCH  43  51
HETATM   51  N11 UNL     1      -8.397  25.318 -18.695  1.00  0.00    -0.384 N 
ATOM     52 2H11 UNL     1      -8.252  26.252 -19.080  1.00  0.00     0.157 HD
ATOM     53 1H11 UNL     1      -7.705  24.585 -18.851  1.00  0.00     0.157 HD
ENDBRANCH  43  51
ENDBRANCH  29  31
ENDBRANCH  28  29
ENDBRANCH   1  28
TORSDOF 16
ENDMDL
