MODEL 1
REMARK VINA RESULT: -7.909610872      0.000      0.000
REMARK  6 active torsions:
REMARK  status: ('A' for Active; 'I' for Inactive)
REMARK       I    between atoms: C2_4  and  N3_6 
REMARK    1  A    between atoms: C5_9  and  N4_10 
REMARK    2  A    between atoms: N4_10  and  C6_12 
REMARK    3  A    between atoms: C7_15  and  N6_16 
REMARK    4  A    between atoms: N6_16  and  C8_18 
REMARK    5  A    between atoms: C11_23  and  N8_24 
REMARK    6  A    between atoms: N8_24  and  C12_26 
ROOT
HETATM    1  C6  UNL     1     -29.503   1.765  26.681  1.00  0.00     0.707 A 
HETATM    2  N5  UNL     1     -28.549   2.624  27.067  1.00  0.00    -0.021 N 
ATOM      3  H5  UNL     1     -28.710   3.623  26.945  1.00  0.00     0.203 HD
HETATM    4  C7  UNL     1     -27.382   2.214  27.610  1.00  0.00     0.707 A 
HETATM    5  N7  UNL     1     -27.199   0.890  27.756  1.00  0.00    -0.021 N 
ATOM      6  H7  UNL     1     -26.330   0.546  28.163  1.00  0.00     0.203 HD
HETATM    7  C11 UNL     1     -28.156   0.001  27.372  1.00  0.00     0.707 A 
HETATM    8  N10 UNL     1     -29.301   0.461  26.836  1.00  0.00    -0.021 N 
ATOM      9  H10 UNL     1     -30.022  -0.199  26.545  1.00  0.00     0.203 HD
ENDROOT
BRANCH   1  10
HETATM   10  N4  UNL     1     -30.611   2.162  26.168  1.00  0.00    -0.220 N 
ATOM     11  H4  UNL     1     -31.305   2.587  26.783  1.00  0.00     0.178 HD
BRANCH  10  12
HETATM   12  C5  UNL     1     -30.929   2.035  24.752  1.00  0.00     0.102 C 
HETATM   13  C4  UNL     1     -30.869   0.619  24.306  1.00  0.00     0.045 C 
HETATM   14  C3  UNL     1     -29.716   0.280  23.399  1.00  0.00     0.127 C 
HETATM   15  N3  UNL     1     -29.443   1.333  22.449  1.00  0.00    -0.356 N 
HETATM   16  C2  UNL     1     -28.560   1.050  21.376  1.00  0.00     0.185 C 
HETATM   17  C17 UNL     1     -30.028   2.641  22.558  1.00  0.00     0.127 C 
HETATM   18  N1  UNL     1     -29.026   0.870  20.203  1.00  0.00    -0.369 N 
HETATM   19  N2  UNL     1     -27.147   0.956  21.568  1.00  0.00    -0.064 NA
HETATM   20  C1  UNL     1     -30.420   0.936  19.880  1.00  0.00     0.148 C 
ATOM     21  H1  UNL     1     -28.368   0.668  19.451  1.00  0.00     0.161 HD
HETATM   22  C16 UNL     1     -30.046   2.992  24.024  1.00  0.00     0.045 C 
ENDBRANCH  10  12
ENDBRANCH   1  10
BRANCH   4  23
HETATM   23  N6  UNL     1     -26.439   2.997  27.992  1.00  0.00    -0.221 N 
ATOM     24  H6  UNL     1     -26.633   3.700  28.706  1.00  0.00     0.178 HD
BRANCH  23  25
HETATM   25  C8  UNL     1     -25.107   2.903  27.433  1.00  0.00     0.091 C 
HETATM   26  C9  UNL     1     -24.178   2.347  28.494  1.00  0.00     0.032 C 
HETATM   27  C10 UNL     1     -24.615   4.226  26.898  1.00  0.00     0.032 C 
ENDBRANCH  23  25
ENDBRANCH   4  23
BRANCH   7  28
HETATM   28  N8  UNL     1     -28.020  -1.259  27.496  1.00  0.00    -0.219 N 
ATOM     29  H8  UNL     1     -28.289  -1.672  28.389  1.00  0.00     0.178 HD
BRANCH  28  30
HETATM   30  C12 UNL     1     -27.518  -2.151  26.484  1.00  0.00     0.126 C 
HETATM   31  C13 UNL     1     -26.542  -3.132  27.084  1.00  0.00     0.055 C 
HETATM   32  C14 UNL     1     -25.196  -2.488  26.894  1.00  0.00     0.234 C 
HETATM   33  N9  UNL     1     -25.316  -1.531  25.837  1.00  0.00    -0.073 N 
HETATM   34  C15 UNL     1     -26.688  -1.363  25.504  1.00  0.00     0.257 C 
ATOM     35  H92 UNL     1     -24.863  -0.647  26.064  1.00  0.00     0.277 HD
ATOM     36  H91 UNL     1     -24.750  -1.780  25.025  1.00  0.00     0.277 HD
ENDBRANCH  28  30
ENDBRANCH   7  28
TORSDOF 6
ENDMDL
MODEL 2
REMARK VINA RESULT: -7.899751729      2.493      3.463
REMARK  6 active torsions:
REMARK  status: ('A' for Active; 'I' for Inactive)
REMARK       I    between atoms: C2_4  and  N3_6 
REMARK    1  A    between atoms: C5_9  and  N4_10 
REMARK    2  A    between atoms: N4_10  and  C6_12 
REMARK    3  A    between atoms: C7_15  and  N6_16 
REMARK    4  A    between atoms: N6_16  and  C8_18 
REMARK    5  A    between atoms: C11_23  and  N8_24 
REMARK    6  A    between atoms: N8_24  and  C12_26 
ROOT
HETATM    1  C6  UNL     1     -29.514   1.588  26.396  1.00  0.00     0.707 A 
HETATM    2  N5  UNL     1     -28.626   2.514  26.787  1.00  0.00    -0.021 N 
ATOM      3  H5  UNL     1     -28.829   3.496  26.606  1.00  0.00     0.203 HD
HETATM    4  C7  UNL     1     -27.472   2.192  27.410  1.00  0.00     0.707 A 
HETATM    5  N7  UNL     1     -27.232   0.888  27.634  1.00  0.00    -0.021 N 
ATOM      6  H7  UNL     1     -26.370   0.609  28.102  1.00  0.00     0.203 HD
HETATM    7  C11 UNL     1     -28.121  -0.067  27.246  1.00  0.00     0.707 A 
HETATM    8  N10 UNL     1     -29.256   0.306  26.628  1.00  0.00    -0.021 N 
ATOM      9  H10 UNL     1     -29.927  -0.404  26.334  1.00  0.00     0.203 HD
ENDROOT
BRANCH   1  10
HETATM   10  N4  UNL     1     -30.610   1.902  25.806  1.00  0.00    -0.220 N 
ATOM     11  H4  UNL     1     -31.296   1.166  25.636  1.00  0.00     0.178 HD
BRANCH  10  12
HETATM   12  C5  UNL     1     -30.925   3.255  25.366  1.00  0.00     0.102 C 
HETATM   13  C4  UNL     1     -32.108   3.797  26.082  1.00  0.00     0.045 C 
HETATM   14  C3  UNL     1     -33.352   3.947  25.245  1.00  0.00     0.127 C 
HETATM   15  N3  UNL     1     -33.056   4.413  23.910  1.00  0.00    -0.356 N 
HETATM   16  C2  UNL     1     -34.138   4.840  23.099  1.00  0.00     0.185 C 
HETATM   17  C17 UNL     1     -31.718   4.454  23.386  1.00  0.00     0.127 C 
HETATM   18  N1  UNL     1     -34.323   6.085  22.895  1.00  0.00    -0.369 N 
HETATM   19  N2  UNL     1     -35.040   3.911  22.496  1.00  0.00    -0.064 NA
HETATM   20  C1  UNL     1     -33.492   7.116  23.443  1.00  0.00     0.148 C 
ATOM     21  H1  UNL     1     -35.110   6.363  22.308  1.00  0.00     0.161 HD
HETATM   22  C16 UNL     1     -31.017   3.214  23.878  1.00  0.00     0.045 C 
ENDBRANCH  10  12
ENDBRANCH   1  10
BRANCH   4  23
HETATM   23  N6  UNL     1     -26.591   3.040  27.802  1.00  0.00    -0.221 N 
ATOM     24  H6  UNL     1     -26.868   3.794  28.431  1.00  0.00     0.178 HD
BRANCH  23  25
HETATM   25  C8  UNL     1     -25.212   2.950  27.369  1.00  0.00     0.091 C 
HETATM   26  C9  UNL     1     -24.389   2.366  28.501  1.00  0.00     0.032 C 
HETATM   27  C10 UNL     1     -24.666   4.281  26.912  1.00  0.00     0.032 C 
ENDBRANCH  23  25
ENDBRANCH   4  23
BRANCH   7  28
HETATM   28  N8  UNL     1     -27.930  -1.311  27.441  1.00  0.00    -0.219 N 
ATOM     29  H8  UNL     1     -28.241  -1.697  28.333  1.00  0.00     0.178 HD
BRANCH  28  30
HETATM   30  C12 UNL     1     -27.313  -2.220  26.511  1.00  0.00     0.126 C 
HETATM   31  C13 UNL     1     -26.150  -2.928  27.161  1.00  0.00     0.055 C 
HETATM   32  C14 UNL     1     -24.954  -2.084  26.816  1.00  0.00     0.234 C 
HETATM   33  N9  UNL     1     -25.288  -1.305  25.663  1.00  0.00    -0.073 N 
HETATM   34  C15 UNL     1     -26.680  -1.426  25.398  1.00  0.00     0.257 C 
ATOM     35  H92 UNL     1     -24.998  -0.332  25.758  1.00  0.00     0.277 HD
ATOM     36  H91 UNL     1     -24.719  -1.549  24.853  1.00  0.00     0.277 HD
ENDBRANCH  28  30
ENDBRANCH   7  28
TORSDOF 6
ENDMDL
MODEL 3
REMARK VINA RESULT: -7.846341987      2.441      3.769
REMARK  6 active torsions:
REMARK  status: ('A' for Active; 'I' for Inactive)
REMARK       I    between atoms: C2_4  and  N3_6 
REMARK    1  A    between atoms: C5_9  and  N4_10 
REMARK    2  A    between atoms: N4_10  and  C6_12 
REMARK    3  A    between atoms: C7_15  and  N6_16 
REMARK    4  A    between atoms: N6_16  and  C8_18 
REMARK    5  A    between atoms: C11_23  and  N8_24 
REMARK    6  A    between atoms: N8_24  and  C12_26 
ROOT
HETATM    1  C6  UNL     1     -29.064   1.395  26.164  1.00  0.00     0.707 A 
HETATM    2  N5  UNL     1     -28.190   2.253  26.709  1.00  0.00    -0.021 N 
ATOM      3  H5  UNL     1     -28.252   3.241  26.462  1.00  0.00     0.203 HD
HETATM    4  C7  UNL     1     -27.230   1.858  27.573  1.00  0.00     0.707 A 
HETATM    5  N7  UNL     1     -27.173   0.550  27.879  1.00  0.00    -0.021 N 
ATOM      6  H7  UNL     1     -26.461   0.217  28.528  1.00  0.00     0.203 HD
HETATM    7  C11 UNL     1     -28.052  -0.338  27.337  1.00  0.00     0.707 A 
HETATM    8  N10 UNL     1     -28.990   0.108  26.481  1.00  0.00    -0.021 N 
ATOM      9  H10 UNL     1     -29.651  -0.551  26.071  1.00  0.00     0.203 HD
ENDROOT
BRANCH   1  10
HETATM   10  N4  UNL     1     -29.976   1.779  25.346  1.00  0.00    -0.220 N 
ATOM     11  H4  UNL     1     -29.767   1.766  24.347  1.00  0.00     0.178 HD
BRANCH  10  12
HETATM   12  C5  UNL     1     -31.295   2.231  25.770  1.00  0.00     0.102 C 
HETATM   13  C4  UNL     1     -32.304   2.049  24.694  1.00  0.00     0.045 C 
HETATM   14  C3  UNL     1     -32.801   3.321  24.059  1.00  0.00     0.127 C 
HETATM   15  N3  UNL     1     -32.980   4.378  25.027  1.00  0.00    -0.356 N 
HETATM   16  C2  UNL     1     -33.679   5.543  24.619  1.00  0.00     0.185 C 
HETATM   17  C17 UNL     1     -32.477   4.288  26.370  1.00  0.00     0.127 C 
HETATM   18  N1  UNL     1     -34.876   5.733  25.013  1.00  0.00    -0.369 N 
HETATM   19  N2  UNL     1     -33.079   6.522  23.768  1.00  0.00    -0.064 NA
HETATM   20  C1  UNL     1     -35.589   4.828  25.865  1.00  0.00     0.148 C 
ATOM     21  H1  UNL     1     -35.354   6.579  24.704  1.00  0.00     0.161 HD
HETATM   22  C16 UNL     1     -31.128   3.619  26.288  1.00  0.00     0.045 C 
ENDBRANCH  10  12
ENDBRANCH   1  10
BRANCH   4  23
HETATM   23  N6  UNL     1     -26.371   2.640  28.119  1.00  0.00    -0.221 N 
ATOM     24  H6  UNL     1     -26.646   3.198  28.928  1.00  0.00     0.178 HD
BRANCH  23  25
HETATM   25  C8  UNL     1     -25.019   2.749  27.612  1.00  0.00     0.091 C 
HETATM   26  C9  UNL     1     -24.061   2.280  28.688  1.00  0.00     0.032 C 
HETATM   27  C10 UNL     1     -24.693   4.146  27.144  1.00  0.00     0.032 C 
ENDBRANCH  23  25
ENDBRANCH   4  23
BRANCH   7  28
HETATM   28  N8  UNL     1     -28.030  -1.583  27.603  1.00  0.00    -0.219 N 
ATOM     29  H8  UNL     1     -28.250  -1.860  28.560  1.00  0.00     0.178 HD
BRANCH  28  30
HETATM   30  C12 UNL     1     -27.723  -2.633  26.669  1.00  0.00     0.126 C 
HETATM   31  C13 UNL     1     -27.528  -3.942  27.394  1.00  0.00     0.055 C 
HETATM   32  C14 UNL     1     -26.047  -4.014  27.648  1.00  0.00     0.234 C 
HETATM   33  N9  UNL     1     -25.401  -3.144  26.714  1.00  0.00    -0.073 N 
HETATM   34  C15 UNL     1     -26.379  -2.358  26.045  1.00  0.00     0.257 C 
ATOM     35  H92 UNL     1     -24.682  -2.571  27.154  1.00  0.00     0.277 HD
ATOM     36  H91 UNL     1     -24.804  -3.652  26.062  1.00  0.00     0.277 HD
ENDBRANCH  28  30
ENDBRANCH   7  28
TORSDOF 6
ENDMDL
MODEL 4
REMARK VINA RESULT: -7.795764157      2.142      2.812
REMARK  6 active torsions:
REMARK  status: ('A' for Active; 'I' for Inactive)
REMARK       I    between atoms: C2_4  and  N3_6 
REMARK    1  A    between atoms: C5_9  and  N4_10 
REMARK    2  A    between atoms: N4_10  and  C6_12 
REMARK    3  A    between atoms: C7_15  and  N6_16 
REMARK    4  A    between atoms: N6_16  and  C8_18 
REMARK    5  A    between atoms: C11_23  and  N8_24 
REMARK    6  A    between atoms: N8_24  and  C12_26 
ROOT
HETATM    1  C6  UNL     1     -29.332   1.465  26.530  1.00  0.00     0.707 A 
HETATM    2  N5  UNL     1     -28.518   2.410  27.023  1.00  0.00    -0.021 N 
ATOM      3  H5  UNL     1     -28.902   3.334  27.220  1.00  0.00     0.203 HD
HETATM    4  C7  UNL     1     -27.210   2.183  27.268  1.00  0.00     0.707 A 
HETATM    5  N7  UNL     1     -26.733   0.955  26.997  1.00  0.00    -0.021 N 
ATOM      6  H7  UNL     1     -25.750   0.749  27.169  1.00  0.00     0.203 HD
HETATM    7  C11 UNL     1     -27.543  -0.019  26.497  1.00  0.00     0.707 A 
HETATM    8  N10 UNL     1     -28.840   0.259  26.271  1.00  0.00    -0.021 N 
ATOM      9  H10 UNL     1     -29.452  -0.465  25.896  1.00  0.00     0.203 HD
ENDROOT
BRANCH   1  10
HETATM   10  N4  UNL     1     -30.576   1.687  26.303  1.00  0.00    -0.220 N 
ATOM     11  H4  UNL     1     -31.198   1.817  27.100  1.00  0.00     0.178 HD
BRANCH  10  12
HETATM   12  C5  UNL     1     -31.144   1.763  24.963  1.00  0.00     0.102 C 
HETATM   13  C4  UNL     1     -30.187   2.366  24.000  1.00  0.00     0.045 C 
HETATM   14  C3  UNL     1     -30.548   3.745  23.514  1.00  0.00     0.127 C 
HETATM   15  N3  UNL     1     -31.968   3.885  23.284  1.00  0.00    -0.356 N 
HETATM   16  C2  UNL     1     -32.418   5.036  22.588  1.00  0.00     0.185 C 
HETATM   17  C17 UNL     1     -32.922   2.910  23.734  1.00  0.00     0.127 C 
HETATM   18  N1  UNL     1     -32.793   4.935  21.374  1.00  0.00    -0.369 N 
HETATM   19  N2  UNL     1     -32.465   6.322  23.209  1.00  0.00    -0.064 NA
HETATM   20  C1  UNL     1     -32.793   3.706  20.638  1.00  0.00     0.148 C 
ATOM     21  H1  UNL     1     -33.112   5.779  20.898  1.00  0.00     0.161 HD
HETATM   22  C16 UNL     1     -32.464   2.444  25.093  1.00  0.00     0.045 C 
ENDBRANCH  10  12
ENDBRANCH   1  10
BRANCH   4  23
HETATM   23  N6  UNL     1     -26.391   3.055  27.737  1.00  0.00    -0.221 N 
ATOM     24  H6  UNL     1     -26.732   3.754  28.397  1.00  0.00     0.178 HD
BRANCH  23  25
HETATM   25  C8  UNL     1     -24.997   3.067  27.349  1.00  0.00     0.091 C 
HETATM   26  C9  UNL     1     -24.169   2.552  28.510  1.00  0.00     0.032 C 
HETATM   27  C10 UNL     1     -24.538   4.432  26.898  1.00  0.00     0.032 C 
ENDBRANCH  23  25
ENDBRANCH   4  23
BRANCH   7  28
HETATM   28  N8  UNL     1     -27.129  -1.193  26.230  1.00  0.00    -0.219 N 
ATOM     29  H8  UNL     1     -26.135  -1.303  26.028  1.00  0.00     0.178 HD
BRANCH  28  30
HETATM   30  C12 UNL     1     -27.944  -2.378  26.189  1.00  0.00     0.126 C 
HETATM   31  C13 UNL     1     -28.019  -3.012  27.555  1.00  0.00     0.055 C 
HETATM   32  C14 UNL     1     -26.907  -4.026  27.561  1.00  0.00     0.234 C 
HETATM   33  N9  UNL     1     -26.587  -4.331  26.201  1.00  0.00    -0.073 N 
HETATM   34  C15 UNL     1     -27.257  -3.417  25.341  1.00  0.00     0.257 C 
ATOM     35  H92 UNL     1     -25.581  -4.348  26.035  1.00  0.00     0.277 HD
ATOM     36  H91 UNL     1     -26.791  -5.302  25.965  1.00  0.00     0.277 HD
ENDBRANCH  28  30
ENDBRANCH   7  28
TORSDOF 6
ENDMDL
MODEL 5
REMARK VINA RESULT: -7.783885109      2.016      2.626
REMARK  6 active torsions:
REMARK  status: ('A' for Active; 'I' for Inactive)
REMARK       I    between atoms: C2_4  and  N3_6 
REMARK    1  A    between atoms: C5_9  and  N4_10 
REMARK    2  A    between atoms: N4_10  and  C6_12 
REMARK    3  A    between atoms: C7_15  and  N6_16 
REMARK    4  A    between atoms: N6_16  and  C8_18 
REMARK    5  A    between atoms: C11_23  and  N8_24 
REMARK    6  A    between atoms: N8_24  and  C12_26 
ROOT
HETATM    1  C6  UNL     1     -29.264   2.183  26.704  1.00  0.00     0.707 A 
HETATM    2  N5  UNL     1     -28.249   2.903  27.202  1.00  0.00    -0.021 N 
ATOM      3  H5  UNL     1     -28.306   3.921  27.166  1.00  0.00     0.203 HD
HETATM    4  C7  UNL     1     -27.155   2.331  27.749  1.00  0.00     0.707 A 
HETATM    5  N7  UNL     1     -27.109   0.988  27.781  1.00  0.00    -0.021 N 
ATOM      6  H7  UNL     1     -26.297   0.524  28.186  1.00  0.00     0.203 HD
HETATM    7  C11 UNL     1     -28.130   0.238  27.281  1.00  0.00     0.707 A 
HETATM    8  N10 UNL     1     -29.198   0.857  26.747  1.00  0.00    -0.021 N 
ATOM      9  H10 UNL     1     -29.966   0.301  26.371  1.00  0.00     0.203 HD
ENDROOT
BRANCH   1  10
HETATM   10  N4  UNL     1     -30.303   2.733  26.188  1.00  0.00    -0.220 N 
ATOM     11  H4  UNL     1     -30.742   3.505  26.690  1.00  0.00     0.178 HD
BRANCH  10  12
HETATM   12  C5  UNL     1     -30.888   2.311  24.922  1.00  0.00     0.102 C 
HETATM   13  C4  UNL     1     -30.148   2.879  23.766  1.00  0.00     0.045 C 
HETATM   14  C3  UNL     1     -30.884   3.942  22.992  1.00  0.00     0.127 C 
HETATM   15  N3  UNL     1     -32.290   3.638  22.854  1.00  0.00    -0.356 N 
HETATM   16  C2  UNL     1     -33.051   4.412  21.941  1.00  0.00     0.185 C 
HETATM   17  C17 UNL     1     -32.931   2.594  23.604  1.00  0.00     0.127 C 
HETATM   18  N1  UNL     1     -33.400   3.908  20.822  1.00  0.00    -0.369 N 
HETATM   19  N2  UNL     1     -33.444   5.754  22.235  1.00  0.00    -0.064 NA
HETATM   20  C1  UNL     1     -33.068   2.577  20.408  1.00  0.00     0.148 C 
ATOM     21  H1  UNL     1     -33.947   4.488  20.185  1.00  0.00     0.161 HD
HETATM   22  C16 UNL     1     -32.344   2.628  24.992  1.00  0.00     0.045 C 
ENDBRANCH  10  12
ENDBRANCH   1  10
BRANCH   4  23
HETATM   23  N6  UNL     1     -26.158   2.978  28.236  1.00  0.00    -0.221 N 
ATOM     24  H6  UNL     1     -26.281   3.507  29.100  1.00  0.00     0.178 HD
BRANCH  23  25
HETATM   25  C8  UNL     1     -24.865   2.974  27.586  1.00  0.00     0.091 C 
HETATM   26  C9  UNL     1     -23.832   2.466  28.572  1.00  0.00     0.032 C 
HETATM   27  C10 UNL     1     -24.494   4.330  27.038  1.00  0.00     0.032 C 
ENDBRANCH  23  25
ENDBRANCH   4  23
BRANCH   7  28
HETATM   28  N8  UNL     1     -28.123  -1.036  27.295  1.00  0.00    -0.219 N 
ATOM     29  H8  UNL     1     -28.547  -1.496  28.101  1.00  0.00     0.178 HD
BRANCH  28  30
HETATM   30  C12 UNL     1     -27.569  -1.881  26.271  1.00  0.00     0.126 C 
HETATM   31  C13 UNL     1     -26.689  -2.942  26.885  1.00  0.00     0.055 C 
HETATM   32  C14 UNL     1     -25.307  -2.348  26.855  1.00  0.00     0.234 C 
HETATM   33  N9  UNL     1     -25.295  -1.320  25.860  1.00  0.00    -0.073 N 
HETATM   34  C15 UNL     1     -26.625  -1.069  25.423  1.00  0.00     0.257 C 
ATOM     35  H92 UNL     1     -24.831  -0.473  26.186  1.00  0.00     0.277 HD
ATOM     36  H91 UNL     1     -24.670  -1.541  25.085  1.00  0.00     0.277 HD
ENDBRANCH  28  30
ENDBRANCH   7  28
TORSDOF 6
ENDMDL
