MODEL 1
REMARK VINA RESULT: -6.370900023      0.000      0.000
REMARK  7 active torsions:
REMARK  status: ('A' for Active; 'I' for Inactive)
REMARK    1  A    between atoms: N1_1  and  N2_4 
REMARK    2  A    between atoms: N2_4  and  C1_6 
REMARK    3  A    between atoms: N5_10  and  O1_11 
REMARK    4  A    between atoms: C2_13  and  C3_14 
REMARK    5  A    between atoms: C4_15  and  C5_16 
REMARK    6  A    between atoms: C5_16  and  S1_17 
REMARK    7  A    between atoms: S1_17  and  N6_18 
ROOT
HETATM    1  C1  UNL     1       2.459 -31.612  34.901  1.00  0.00     0.172 A 
HETATM    2  N3  UNL     1       2.465 -32.814  35.502  1.00  0.00    -0.264 N 
ATOM      3  H3  UNL     1       3.138 -33.560  35.324  1.00  0.00     0.186 HD
HETATM    4  N4  UNL     1       1.461 -32.877  36.359  1.00  0.00     0.009 NA
HETATM    5  N5  UNL     1       0.779 -31.737  36.346  1.00  0.00    -0.135 N 
HETATM    6  C2  UNL     1       1.386 -30.938  35.444  1.00  0.00     0.178 A 
ENDROOT
BRANCH   6   7
HETATM    7  C3  UNL     1       1.020 -29.601  35.072  1.00  0.00    -0.040 C 
HETATM    8  C4  UNL     1       0.715 -28.475  34.778  1.00  0.00    -0.083 C 
BRANCH   8   9
HETATM    9  C5  UNL     1       0.357 -27.101  34.439  1.00  0.00     0.256 C 
BRANCH   9  10
HETATM   10  S1  UNL     1       0.488 -26.093  35.884  1.00  0.00     0.234 S 
HETATM   11  O2  UNL     1      -0.526 -26.578  36.883  1.00  0.00    -0.205 OA
HETATM   12  O3  UNL     1       0.171 -24.667  35.469  1.00  0.00    -0.205 OA
BRANCH  10  13
HETATM   13  N6  UNL     1       2.056 -26.097  36.560  1.00  0.00    -0.328 N 
ATOM     14  H62 UNL     1       2.519 -26.951  36.872  1.00  0.00     0.168 HD
ATOM     15  H61 UNL     1       2.468 -25.165  36.615  1.00  0.00     0.168 HD
ENDBRANCH  10  13
ENDBRANCH   9  10
ENDBRANCH   8   9
ENDBRANCH   6   7
BRANCH   1  16
HETATM   16  N2  UNL     1       3.294 -31.170  33.991  1.00  0.00    -0.289 N 
ATOM     17  H2  UNL     1       4.245 -30.919  34.264  1.00  0.00     0.188 HD
BRANCH  16  18
HETATM   18  N1  UNL     1       2.911 -31.037  32.676  1.00  0.00    -0.344 N 
ATOM     19  H12 UNL     1       2.006 -30.611  32.475  1.00  0.00     0.176 HD
ATOM     20  H11 UNL     1       3.513 -31.355  31.916  1.00  0.00     0.176 HD
ENDBRANCH  16  18
ENDBRANCH   1  16
BRANCH   5  21
HETATM   21  O1  UNL     1      -0.333 -31.412  37.096  1.00  0.00    -0.268 OA
ATOM     22  H1  UNL     1      -0.366 -31.193  38.020  1.00  0.00     0.246 HD
ENDBRANCH   5  21
TORSDOF 7
ENDMDL
MODEL 2
REMARK VINA RESULT: -6.293488135      2.962      5.957
REMARK  7 active torsions:
REMARK  status: ('A' for Active; 'I' for Inactive)
REMARK    1  A    between atoms: N1_1  and  N2_4 
REMARK    2  A    between atoms: N2_4  and  C1_6 
REMARK    3  A    between atoms: N5_10  and  O1_11 
REMARK    4  A    between atoms: C2_13  and  C3_14 
REMARK    5  A    between atoms: C4_15  and  C5_16 
REMARK    6  A    between atoms: C5_16  and  S1_17 
REMARK    7  A    between atoms: S1_17  and  N6_18 
ROOT
HETATM    1  C1  UNL     1       0.716 -27.108  37.815  1.00  0.00     0.172 A 
HETATM    2  N3  UNL     1       0.483 -25.784  37.818  1.00  0.00    -0.264 N 
ATOM      3  H3  UNL     1       0.543 -25.175  38.634  1.00  0.00     0.186 HD
HETATM    4  N4  UNL     1       0.164 -25.396  36.596  1.00  0.00     0.009 NA
HETATM    5  N5  UNL     1       0.177 -26.436  35.770  1.00  0.00    -0.135 N 
HETATM    6  C2  UNL     1       0.519 -27.510  36.511  1.00  0.00     0.178 A 
ENDROOT
BRANCH   6   7
HETATM    7  C3  UNL     1       0.667 -28.868  36.071  1.00  0.00    -0.040 C 
HETATM    8  C4  UNL     1       0.781 -30.003  35.687  1.00  0.00    -0.083 C 
BRANCH   8   9
HETATM    9  C5  UNL     1       0.914 -31.372  35.200  1.00  0.00     0.256 C 
BRANCH   9  10
HETATM   10  S1  UNL     1       0.986 -31.356  33.434  1.00  0.00     0.234 S 
HETATM   11  O2  UNL     1      -0.053 -30.392  32.934  1.00  0.00    -0.205 OA
HETATM   12  O3  UNL     1       0.666 -32.762  32.958  1.00  0.00    -0.205 OA
BRANCH  10  13
HETATM   13  N6  UNL     1       2.532 -30.949  32.834  1.00  0.00    -0.328 N 
ATOM     14  H62 UNL     1       3.110 -30.220  33.252  1.00  0.00     0.168 HD
ATOM     15  H61 UNL     1       2.805 -31.508  32.025  1.00  0.00     0.168 HD
ENDBRANCH  10  13
ENDBRANCH   9  10
ENDBRANCH   8   9
ENDBRANCH   6   7
BRANCH   1  16
HETATM   16  N2  UNL     1       1.057 -27.860  38.834  1.00  0.00    -0.289 N 
ATOM     17  H2  UNL     1       1.302 -28.838  38.674  1.00  0.00     0.188 HD
BRANCH  16  18
HETATM   18  N1  UNL     1       1.090 -27.356  40.114  1.00  0.00    -0.344 N 
ATOM     19  H12 UNL     1       0.837 -26.378  40.257  1.00  0.00     0.176 HD
ATOM     20  H11 UNL     1       1.360 -27.940  40.905  1.00  0.00     0.176 HD
ENDBRANCH  16  18
ENDBRANCH   1  16
BRANCH   5  21
HETATM   21  O1  UNL     1      -0.099 -26.442  34.417  1.00  0.00    -0.268 OA
ATOM     22  H1  UNL     1      -0.679 -27.030  33.946  1.00  0.00     0.246 HD
ENDBRANCH   5  21
TORSDOF 7
ENDMDL
MODEL 3
REMARK VINA RESULT: -6.152686286      1.574      2.501
REMARK  7 active torsions:
REMARK  status: ('A' for Active; 'I' for Inactive)
REMARK    1  A    between atoms: N1_1  and  N2_4 
REMARK    2  A    between atoms: N2_4  and  C1_6 
REMARK    3  A    between atoms: N5_10  and  O1_11 
REMARK    4  A    between atoms: C2_13  and  C3_14 
REMARK    5  A    between atoms: C4_15  and  C5_16 
REMARK    6  A    between atoms: C5_16  and  S1_17 
REMARK    7  A    between atoms: S1_17  and  N6_18 
ROOT
HETATM    1  C1  UNL     1       1.553 -31.673  35.877  1.00  0.00     0.172 A 
HETATM    2  N3  UNL     1       2.249 -32.786  35.586  1.00  0.00    -0.264 N 
ATOM      3  H3  UNL     1       2.324 -33.609  36.184  1.00  0.00     0.186 HD
HETATM    4  N4  UNL     1       2.819 -32.645  34.403  1.00  0.00     0.009 NA
HETATM    5  N5  UNL     1       2.521 -31.456  33.892  1.00  0.00    -0.135 N 
HETATM    6  C2  UNL     1       1.734 -30.837  34.796  1.00  0.00     0.178 A 
ENDROOT
BRANCH   6   7
HETATM    7  C3  UNL     1       1.152 -29.528  34.702  1.00  0.00    -0.040 C 
HETATM    8  C4  UNL     1       0.682 -28.423  34.627  1.00  0.00    -0.083 C 
BRANCH   8   9
HETATM    9  C5  UNL     1       0.131 -27.075  34.532  1.00  0.00     0.256 C 
BRANCH   9  10
HETATM   10  S1  UNL     1       0.313 -26.262  36.090  1.00  0.00     0.234 S 
HETATM   11  O2  UNL     1      -0.761 -26.772  37.010  1.00  0.00    -0.205 OA
HETATM   12  O3  UNL     1       0.128 -24.774  35.847  1.00  0.00    -0.205 OA
BRANCH  10  13
HETATM   13  N6  UNL     1       1.860 -26.482  36.781  1.00  0.00    -0.328 N 
ATOM     14  H62 UNL     1       2.278 -27.404  36.910  1.00  0.00     0.168 HD
ATOM     15  H61 UNL     1       2.307 -25.604  37.043  1.00  0.00     0.168 HD
ENDBRANCH  10  13
ENDBRANCH   9  10
ENDBRANCH   8   9
ENDBRANCH   6   7
BRANCH   1  16
HETATM   16  N2  UNL     1       0.852 -31.430  36.959  1.00  0.00    -0.289 N 
ATOM     17  H2  UNL     1       1.328 -31.105  37.801  1.00  0.00     0.188 HD
BRANCH  16  18
HETATM   18  N1  UNL     1      -0.513 -31.605  36.979  1.00  0.00    -0.344 N 
ATOM     19  H12 UNL     1      -0.879 -32.557  37.020  1.00  0.00     0.176 HD
ATOM     20  H11 UNL     1      -1.149 -30.808  36.953  1.00  0.00     0.176 HD
ENDBRANCH  16  18
ENDBRANCH   1  16
BRANCH   5  21
HETATM   21  O1  UNL     1       2.924 -30.933  32.679  1.00  0.00    -0.268 OA
ATOM     22  H1  UNL     1       3.713 -31.140  32.192  1.00  0.00     0.246 HD
ENDBRANCH   5  21
TORSDOF 7
ENDMDL
MODEL 4
REMARK VINA RESULT: -6.145225965      3.069      5.451
REMARK  7 active torsions:
REMARK  status: ('A' for Active; 'I' for Inactive)
REMARK    1  A    between atoms: N1_1  and  N2_4 
REMARK    2  A    between atoms: N2_4  and  C1_6 
REMARK    3  A    between atoms: N5_10  and  O1_11 
REMARK    4  A    between atoms: C2_13  and  C3_14 
REMARK    5  A    between atoms: C4_15  and  C5_16 
REMARK    6  A    between atoms: C5_16  and  S1_17 
REMARK    7  A    between atoms: S1_17  and  N6_18 
ROOT
HETATM    1  C1  UNL     1       0.554 -26.502  35.894  1.00  0.00     0.172 A 
HETATM    2  N3  UNL     1       0.576 -25.438  36.717  1.00  0.00    -0.264 N 
ATOM      3  H3  UNL     1       0.465 -24.466  36.429  1.00  0.00     0.186 HD
HETATM    4  N4  UNL     1       0.766 -25.853  37.957  1.00  0.00     0.009 NA
HETATM    5  N5  UNL     1       0.872 -27.176  37.984  1.00  0.00    -0.135 N 
HETATM    6  C2  UNL     1       0.743 -27.598  36.709  1.00  0.00     0.178 A 
ENDROOT
BRANCH   6   7
HETATM    7  C3  UNL     1       0.786 -28.947  36.223  1.00  0.00    -0.040 C 
HETATM    8  C4  UNL     1       0.822 -30.073  35.798  1.00  0.00    -0.083 C 
BRANCH   8   9
HETATM    9  C5  UNL     1       0.875 -31.429  35.263  1.00  0.00     0.256 C 
BRANCH   9  10
HETATM   10  S1  UNL     1       0.965 -31.355  33.499  1.00  0.00     0.234 S 
HETATM   11  O2  UNL     1      -0.064 -30.369  33.021  1.00  0.00    -0.205 OA
HETATM   12  O3  UNL     1       0.643 -32.743  32.973  1.00  0.00    -0.205 OA
BRANCH  10  13
HETATM   13  N6  UNL     1       2.519 -30.936  32.928  1.00  0.00    -0.328 N 
ATOM     14  H62 UNL     1       2.677 -30.168  32.275  1.00  0.00     0.168 HD
ATOM     15  H61 UNL     1       3.256 -31.530  33.309  1.00  0.00     0.168 HD
ENDBRANCH  10  13
ENDBRANCH   9  10
ENDBRANCH   8   9
ENDBRANCH   6   7
BRANCH   1  16
HETATM   16  N2  UNL     1       0.390 -26.501  34.593  1.00  0.00    -0.289 N 
ATOM     17  H2  UNL     1      -0.533 -26.301  34.206  1.00  0.00     0.188 HD
BRANCH  16  18
HETATM   18  N1  UNL     1       1.438 -26.765  33.741  1.00  0.00    -0.344 N 
ATOM     19  H12 UNL     1       2.343 -26.339  33.939  1.00  0.00     0.176 HD
ATOM     20  H11 UNL     1       1.319 -27.371  32.929  1.00  0.00     0.176 HD
ENDBRANCH  16  18
ENDBRANCH   1  16
BRANCH   5  21
HETATM   21  O1  UNL     1       1.075 -27.984  39.086  1.00  0.00    -0.268 OA
ATOM     22  H1  UNL     1       0.657 -28.815  39.281  1.00  0.00     0.246 HD
ENDBRANCH   5  21
TORSDOF 7
ENDMDL
MODEL 5
REMARK VINA RESULT: -6.114807211      1.782      2.638
REMARK  7 active torsions:
REMARK  status: ('A' for Active; 'I' for Inactive)
REMARK    1  A    between atoms: N1_1  and  N2_4 
REMARK    2  A    between atoms: N2_4  and  C1_6 
REMARK    3  A    between atoms: N5_10  and  O1_11 
REMARK    4  A    between atoms: C2_13  and  C3_14 
REMARK    5  A    between atoms: C4_15  and  C5_16 
REMARK    6  A    between atoms: C5_16  and  S1_17 
REMARK    7  A    between atoms: S1_17  and  N6_18 
ROOT
HETATM    1  C1  UNL     1       1.569 -31.701  35.896  1.00  0.00     0.172 A 
HETATM    2  N3  UNL     1       2.316 -32.784  35.621  1.00  0.00    -0.264 N 
ATOM      3  H3  UNL     1       2.427 -33.596  36.229  1.00  0.00     0.186 HD
HETATM    4  N4  UNL     1       2.884 -32.631  34.438  1.00  0.00     0.009 NA
HETATM    5  N5  UNL     1       2.533 -31.463  33.912  1.00  0.00    -0.135 N 
HETATM    6  C2  UNL     1       1.715 -30.870  34.805  1.00  0.00     0.178 A 
ENDROOT
BRANCH   6   7
HETATM    7  C3  UNL     1       1.074 -29.591  34.693  1.00  0.00    -0.040 C 
HETATM    8  C4  UNL     1       0.550 -28.511  34.610  1.00  0.00    -0.083 C 
BRANCH   8   9
HETATM    9  C5  UNL     1      -0.064 -27.191  34.512  1.00  0.00     0.256 C 
BRANCH   9  10
HETATM   10  S1  UNL     1       1.044 -25.983  35.172  1.00  0.00     0.234 S 
HETATM   11  O2  UNL     1       1.492 -26.453  36.528  1.00  0.00    -0.205 OA
HETATM   12  O3  UNL     1       0.270 -24.683  35.299  1.00  0.00    -0.205 OA
BRANCH  10  13
HETATM   13  N6  UNL     1       2.387 -25.686  34.159  1.00  0.00    -0.328 N 
ATOM     14  H62 UNL     1       2.288 -25.364  33.196  1.00  0.00     0.168 HD
ATOM     15  H61 UNL     1       3.280 -25.864  34.619  1.00  0.00     0.168 HD
ENDBRANCH  10  13
ENDBRANCH   9  10
ENDBRANCH   8   9
ENDBRANCH   6   7
BRANCH   1  16
HETATM   16  N2  UNL     1       0.853 -31.478  36.972  1.00  0.00    -0.289 N 
ATOM     17  H2  UNL     1       1.316 -31.157  37.823  1.00  0.00     0.188 HD
BRANCH  16  18
HETATM   18  N1  UNL     1      -0.510 -31.668  36.975  1.00  0.00    -0.344 N 
ATOM     19  H12 UNL     1      -0.978 -31.834  36.083  1.00  0.00     0.176 HD
ATOM     20  H11 UNL     1      -1.045 -31.646  37.843  1.00  0.00     0.176 HD
ENDBRANCH  16  18
ENDBRANCH   1  16
BRANCH   5  21
HETATM   21  O1  UNL     1       2.917 -30.937  32.694  1.00  0.00    -0.268 OA
ATOM     22  H1  UNL     1       3.256 -30.068  32.518  1.00  0.00     0.246 HD
ENDBRANCH   5  21
TORSDOF 7
ENDMDL
