MODEL 1
REMARK VINA RESULT: -6.765857249      0.000      0.000
REMARK  3 active torsions:
REMARK  status: ('A' for Active; 'I' for Inactive)
REMARK    1  A    between atoms: C5_5  and  C6_6 
REMARK    2  A    between atoms: C6_6  and  C9_10 
REMARK    3  A    between atoms: C10_13  and  C11_14 
ROOT
HETATM    1  C6  UNL     1      15.339  -2.959   6.009  1.00  0.00     0.033 C 
HETATM    2  C7  UNL     1      14.833  -2.936   4.811  1.00  0.00     0.108 C 
HETATM    3  C8  UNL     1      15.373  -2.177   3.700  1.00  0.00     0.088 C 
HETATM    4  N1  UNL     1      15.789  -1.572   2.783  1.00  0.00    -0.192 NA
ENDROOT
BRANCH   1   5
HETATM    5  C5  UNL     1      14.715  -3.769   7.083  1.00  0.00     0.030 C 
HETATM    6  C4  UNL     1      14.686  -5.177   6.544  1.00  0.00     0.010 C 
HETATM    7  C3  UNL     1      15.831  -6.055   6.896  1.00  0.00     0.005 C 
HETATM    8  C2  UNL     1      16.424  -5.922   8.238  1.00  0.00    -0.018 C 
HETATM    9  C1  UNL     1      17.886  -6.385   8.126  1.00  0.00     0.010 C 
HETATM   10  C18 UNL     1      16.430  -4.556   8.806  1.00  0.00     0.010 C 
HETATM   11  C10 UNL     1      15.342  -3.652   8.410  1.00  0.00    -0.001 C 
BRANCH  11  12
HETATM   12  C11 UNL     1      14.200  -3.617   9.440  1.00  0.00     0.001 C 
HETATM   13  C12 UNL     1      13.977  -4.889  10.158  1.00  0.00     0.083 C 
HETATM   14  C13 UNL     1      13.248  -4.668  11.468  1.00  0.00     0.127 C 
HETATM   15  O3  UNL     1      13.403  -5.391  12.424  1.00  0.00    -0.298 OA
HETATM   16  C14 UNL     1      12.331  -3.521  11.522  1.00  0.00     0.079 C 
HETATM   17  C15 UNL     1      12.953  -2.264  11.034  1.00  0.00     0.012 C 
HETATM   18  C16 UNL     1      14.332  -2.486  10.399  1.00  0.00    -0.013 C 
HETATM   19  C17 UNL     1      14.664  -1.174   9.720  1.00  0.00     0.010 C 
ENDBRANCH  11  12
ENDBRANCH   1   5
BRANCH   1  20
HETATM   20  C9  UNL     1      16.565  -2.231   6.283  1.00  0.00     0.206 C 
HETATM   21  O1  UNL     1      16.532  -1.091   6.803  1.00  0.00    -0.644 OA
HETATM   22  O2  UNL     1      17.787  -2.780   5.966  1.00  0.00    -0.644 OA
ENDBRANCH   1  20
TORSDOF 3
ENDMDL
MODEL 2
REMARK VINA RESULT: -6.564273345      1.965      2.398
REMARK  3 active torsions:
REMARK  status: ('A' for Active; 'I' for Inactive)
REMARK    1  A    between atoms: C5_5  and  C6_6 
REMARK    2  A    between atoms: C6_6  and  C9_10 
REMARK    3  A    between atoms: C10_13  and  C11_14 
ROOT
HETATM    1  C6  UNL     1      14.640  -4.145   4.339  1.00  0.00     0.033 C 
HETATM    2  C7  UNL     1      14.225  -4.706   3.242  1.00  0.00     0.108 C 
HETATM    3  C8  UNL     1      14.074  -4.025   1.972  1.00  0.00     0.088 C 
HETATM    4  N1  UNL     1      13.942  -3.496   0.930  1.00  0.00    -0.192 NA
ENDROOT
BRANCH   1   5
HETATM    5  C5  UNL     1      14.764  -4.928   5.593  1.00  0.00     0.030 C 
HETATM    6  C4  UNL     1      15.178  -6.309   5.153  1.00  0.00     0.010 C 
HETATM    7  C3  UNL     1      16.636  -6.597   5.128  1.00  0.00     0.005 C 
HETATM    8  C2  UNL     1      17.480  -6.008   6.180  1.00  0.00    -0.018 C 
HETATM    9  C1  UNL     1      18.897  -5.881   5.594  1.00  0.00     0.010 C 
HETATM   10  C18 UNL     1      17.072  -4.668   6.658  1.00  0.00     0.010 C 
HETATM   11  C10 UNL     1      15.641  -4.342   6.621  1.00  0.00    -0.001 C 
BRANCH  11  12
HETATM   12  C11 UNL     1      14.950  -4.568   7.976  1.00  0.00     0.001 C 
HETATM   13  C12 UNL     1      15.082  -5.937   8.516  1.00  0.00     0.083 C 
HETATM   14  C13 UNL     1      14.864  -5.968  10.016  1.00  0.00     0.127 C 
HETATM   15  O3  UNL     1      15.399  -6.783  10.729  1.00  0.00    -0.298 OA
HETATM   16  C14 UNL     1      13.960  -4.950  10.568  1.00  0.00     0.079 C 
HETATM   17  C15 UNL     1      14.284  -3.578  10.099  1.00  0.00     0.012 C 
HETATM   18  C16 UNL     1      15.350  -3.559   8.996  1.00  0.00    -0.013 C 
HETATM   19  C17 UNL     1      15.331  -2.143   8.461  1.00  0.00     0.010 C 
ENDBRANCH  11  12
ENDBRANCH   1   5
BRANCH   1  20
HETATM   20  C9  UNL     1      15.043  -2.751   4.323  1.00  0.00     0.206 C 
HETATM   21  O1  UNL     1      14.245  -1.847   4.665  1.00  0.00    -0.644 OA
HETATM   22  O2  UNL     1      16.312  -2.397   3.923  1.00  0.00    -0.644 OA
ENDBRANCH   1  20
TORSDOF 3
ENDMDL
MODEL 3
REMARK VINA RESULT: -6.398884744      2.299      2.763
REMARK  3 active torsions:
REMARK  status: ('A' for Active; 'I' for Inactive)
REMARK    1  A    between atoms: C5_5  and  C6_6 
REMARK    2  A    between atoms: C6_6  and  C9_10 
REMARK    3  A    between atoms: C10_13  and  C11_14 
ROOT
HETATM    1  C6  UNL     1      14.727  -3.994   4.360  1.00  0.00     0.033 C 
HETATM    2  C7  UNL     1      15.377  -2.871   4.267  1.00  0.00     0.108 C 
HETATM    3  C8  UNL     1      15.363  -2.003   3.106  1.00  0.00     0.088 C 
HETATM    4  N1  UNL     1      15.370  -1.280   2.179  1.00  0.00    -0.192 NA
ENDROOT
BRANCH   1   5
HETATM    5  C5  UNL     1      14.802  -4.816   5.592  1.00  0.00     0.030 C 
HETATM    6  C4  UNL     1      15.159  -6.202   5.116  1.00  0.00     0.010 C 
HETATM    7  C3  UNL     1      16.602  -6.555   5.096  1.00  0.00     0.005 C 
HETATM    8  C2  UNL     1      17.461  -6.034   6.172  1.00  0.00    -0.018 C 
HETATM    9  C1  UNL     1      18.888  -5.955   5.603  1.00  0.00     0.010 C 
HETATM   10  C18 UNL     1      17.109  -4.692   6.684  1.00  0.00     0.010 C 
HETATM   11  C10 UNL     1      15.694  -4.300   6.644  1.00  0.00    -0.001 C 
BRANCH  11  12
HETATM   12  C11 UNL     1      14.980  -4.532   7.986  1.00  0.00     0.001 C 
HETATM   13  C12 UNL     1      15.094  -5.907   8.516  1.00  0.00     0.083 C 
HETATM   14  C13 UNL     1      14.852  -5.948  10.012  1.00  0.00     0.127 C 
HETATM   15  O3  UNL     1      15.371  -6.772  10.727  1.00  0.00    -0.298 OA
HETATM   16  C14 UNL     1      13.946  -4.929  10.557  1.00  0.00     0.079 C 
HETATM   17  C15 UNL     1      14.285  -3.556  10.105  1.00  0.00     0.012 C 
HETATM   18  C16 UNL     1      15.370  -3.534   9.020  1.00  0.00    -0.013 C 
HETATM   19  C17 UNL     1      15.368  -2.114   8.496  1.00  0.00     0.010 C 
ENDBRANCH  11  12
ENDBRANCH   1   5
BRANCH   1  20
HETATM   20  C9  UNL     1      13.871  -4.419   3.267  1.00  0.00     0.206 C 
HETATM   21  O1  UNL     1      12.627  -4.284   3.335  1.00  0.00    -0.644 OA
HETATM   22  O2  UNL     1      14.415  -4.987   2.136  1.00  0.00    -0.644 OA
ENDBRANCH   1  20
TORSDOF 3
ENDMDL
MODEL 4
REMARK VINA RESULT: -6.387399457      2.254      2.614
REMARK  3 active torsions:
REMARK  status: ('A' for Active; 'I' for Inactive)
REMARK    1  A    between atoms: C5_5  and  C6_6 
REMARK    2  A    between atoms: C6_6  and  C9_10 
REMARK    3  A    between atoms: C10_13  and  C11_14 
ROOT
HETATM    1  C6  UNL     1      14.814  -2.283   5.134  1.00  0.00     0.033 C 
HETATM    2  C7  UNL     1      15.119  -1.131   5.658  1.00  0.00     0.108 C 
HETATM    3  C8  UNL     1      15.135   0.126   4.936  1.00  0.00     0.088 C 
HETATM    4  N1  UNL     1      15.156   1.159   4.376  1.00  0.00    -0.192 NA
ENDROOT
BRANCH   1   5
HETATM    5  C5  UNL     1      14.825  -3.518   5.955  1.00  0.00     0.030 C 
HETATM    6  C4  UNL     1      15.075  -4.636   4.976  1.00  0.00     0.010 C 
HETATM    7  C3  UNL     1      16.487  -5.056   4.781  1.00  0.00     0.005 C 
HETATM    8  C2  UNL     1      17.382  -5.052   5.950  1.00  0.00    -0.018 C 
HETATM    9  C1  UNL     1      18.812  -4.862   5.413  1.00  0.00     0.010 C 
HETATM   10  C18 UNL     1      17.134  -3.987   6.946  1.00  0.00     0.010 C 
HETATM   11  C10 UNL     1      15.753  -3.510   7.099  1.00  0.00    -0.001 C 
BRANCH  11  12
HETATM   12  C11 UNL     1      15.022  -4.188   8.270  1.00  0.00     0.001 C 
HETATM   13  C12 UNL     1      15.331  -5.623   8.443  1.00  0.00     0.083 C 
HETATM   14  C13 UNL     1      15.026  -6.091   9.852  1.00  0.00     0.127 C 
HETATM   15  O3  UNL     1      15.636  -6.992  10.378  1.00  0.00    -0.298 OA
HETATM   16  C14 UNL     1      13.942  -5.393  10.555  1.00  0.00     0.079 C 
HETATM   17  C15 UNL     1      14.077  -3.915  10.497  1.00  0.00     0.012 C 
HETATM   18  C16 UNL     1      15.194  -3.453   9.553  1.00  0.00    -0.013 C 
HETATM   19  C17 UNL     1      14.989  -1.960   9.408  1.00  0.00     0.010 C 
ENDBRANCH  11  12
ENDBRANCH   1   5
BRANCH   1  20
HETATM   20  C9  UNL     1      14.403  -2.351   3.744  1.00  0.00     0.206 C 
HETATM   21  O1  UNL     1      13.189  -2.401   3.435  1.00  0.00    -0.644 OA
HETATM   22  O2  UNL     1      15.344  -2.369   2.739  1.00  0.00    -0.644 OA
ENDBRANCH   1  20
TORSDOF 3
ENDMDL
MODEL 5
REMARK VINA RESULT: -6.283595596      3.600      6.901
REMARK  3 active torsions:
REMARK  status: ('A' for Active; 'I' for Inactive)
REMARK    1  A    between atoms: C5_5  and  C6_6 
REMARK    2  A    between atoms: C6_6  and  C9_10 
REMARK    3  A    between atoms: C10_13  and  C11_14 
ROOT
HETATM    1  C6  UNL     1      15.952  -4.879   7.365  1.00  0.00     0.033 C 
HETATM    2  C7  UNL     1      15.726  -3.601   7.283  1.00  0.00     0.108 C 
HETATM    3  C8  UNL     1      15.453  -2.736   8.414  1.00  0.00     0.088 C 
HETATM    4  N1  UNL     1      15.229  -2.012   9.313  1.00  0.00    -0.192 NA
ENDROOT
BRANCH   1   5
HETATM    5  C5  UNL     1      16.223  -5.682   6.148  1.00  0.00     0.030 C 
HETATM    6  C4  UNL     1      14.882  -6.236   5.738  1.00  0.00     0.010 C 
HETATM    7  C3  UNL     1      14.108  -5.453   4.740  1.00  0.00     0.005 C 
HETATM    8  C2  UNL     1      14.848  -4.772   3.664  1.00  0.00    -0.018 C 
HETATM    9  C1  UNL     1      13.988  -3.575   3.223  1.00  0.00     0.010 C 
HETATM   10  C18 UNL     1      16.183  -4.253   4.030  1.00  0.00     0.010 C 
HETATM   11  C10 UNL     1      16.931  -4.975   5.068  1.00  0.00    -0.001 C 
BRANCH  11  12
HETATM   12  C11 UNL     1      17.948  -5.967   4.478  1.00  0.00     0.001 C 
HETATM   13  C12 UNL     1      17.511  -6.631   3.232  1.00  0.00     0.083 C 
HETATM   14  C13 UNL     1      18.691  -7.159   2.440  1.00  0.00     0.127 C 
HETATM   15  O3  UNL     1      18.670  -7.252   1.235  1.00  0.00    -0.298 OA
HETATM   16  C14 UNL     1      19.873  -7.559   3.214  1.00  0.00     0.079 C 
HETATM   17  C15 UNL     1      20.300  -6.524   4.189  1.00  0.00     0.012 C 
HETATM   18  C16 UNL     1      19.300  -5.367   4.310  1.00  0.00    -0.013 C 
HETATM   19  C17 UNL     1      19.752  -4.586   5.526  1.00  0.00     0.010 C 
ENDBRANCH  11  12
ENDBRANCH   1   5
BRANCH   1  20
HETATM   20  C9  UNL     1      15.996  -5.517   8.668  1.00  0.00     0.206 C 
HETATM   21  O1  UNL     1      17.084  -5.686   9.265  1.00  0.00    -0.644 OA
HETATM   22  O2  UNL     1      14.836  -5.953   9.269  1.00  0.00    -0.644 OA
ENDBRANCH   1  20
TORSDOF 3
ENDMDL
