MODEL 1
REMARK VINA RESULT: -7.286720872      0.000      0.000
REMARK  3 active torsions:
REMARK  status: ('A' for Active; 'I' for Inactive)
REMARK    1  A    between atoms: C2_2  and  C3_3 
REMARK    2  A    between atoms: C12_13  and  O2_14 
REMARK    3  A    between atoms: C15_18  and  O3_19 
ROOT
HETATM    1  C3  UNL     1       1.141  -0.236  -4.281  1.00  0.00     0.078 C 
HETATM    2  C4  UNL     1       0.459   0.329  -3.024  1.00  0.00     0.051 C 
HETATM    3  O1  UNL     1       2.431   0.185  -4.244  1.00  0.00    -0.376 OA
HETATM    4  C5  UNL     1       2.779   0.834  -5.379  1.00  0.00     0.174 C 
HETATM    5  C6  UNL     1       1.660   0.795  -6.350  1.00  0.00     0.022 C 
HETATM    6  C7  UNL     1       0.489   0.268  -5.542  1.00  0.00     0.030 C 
HETATM    7  C8  UNL     1      -0.447  -0.635  -6.185  1.00  0.00     0.009 C 
HETATM    8  C9  UNL     1      -0.221  -1.120  -7.589  1.00  0.00     0.011 C 
HETATM    9  C10 UNL     1       0.662  -0.168  -8.292  1.00  0.00    -0.027 C 
HETATM   10  C11 UNL     1      -0.069   1.107  -8.457  1.00  0.00     0.046 C 
HETATM   11  C12 UNL     1      -0.961   1.016  -9.670  1.00  0.00     0.149 C 
HETATM   12  C13 UNL     1      -0.893  -0.206 -10.463  1.00  0.00    -0.032 C 
HETATM   13  C14 UNL     1      -1.903  -0.472 -11.268  1.00  0.00     0.019 C 
HETATM   14  C15 UNL     1       0.243  -1.189 -10.435  1.00  0.00     0.153 C 
HETATM   15  C16 UNL     1       1.236  -0.517  -9.608  1.00  0.00     0.028 C 
HETATM   16  C17 UNL     1       2.588  -1.096  -9.374  1.00  0.00     0.009 C 
HETATM   17  C18 UNL     1       3.053  -0.012  -8.354  1.00  0.00     0.006 C 
HETATM   18  C19 UNL     1       1.897  -0.143  -7.424  1.00  0.00     0.001 C 
ENDROOT
BRANCH   1  19
HETATM   19  C2  UNL     1       1.108  -1.699  -4.135  1.00  0.00     0.001 C 
HETATM   20  C1  UNL     1       1.668  -2.355  -3.123  1.00  0.00     0.010 C 
ENDBRANCH   1  19
BRANCH  11  21
HETATM   21  O2  UNL     1      -2.316   1.197  -9.297  1.00  0.00    -0.391 OA
ATOM     22  H2  UNL     1      -2.755   0.357  -9.230  1.00  0.00     0.210 HD
ENDBRANCH  11  21
BRANCH  14  23
HETATM   23  O3  UNL     1      -0.155  -2.445 -10.036  1.00  0.00    -0.391 OA
ATOM     24  H3  UNL     1      -0.398  -2.477  -9.118  1.00  0.00     0.210 HD
ENDBRANCH  14  23
TORSDOF 3
ENDMDL
MODEL 2
REMARK VINA RESULT: -7.100905235      1.810      5.766
REMARK  3 active torsions:
REMARK  status: ('A' for Active; 'I' for Inactive)
REMARK    1  A    between atoms: C2_2  and  C3_3 
REMARK    2  A    between atoms: C12_13  and  O2_14 
REMARK    3  A    between atoms: C15_18  and  O3_19 
ROOT
HETATM    1  C3  UNL     1      -1.199   0.678 -11.874  1.00  0.00     0.078 C 
HETATM    2  C4  UNL     1      -2.509   0.656 -12.677  1.00  0.00     0.051 C 
HETATM    3  O1  UNL     1      -0.238   0.169 -12.686  1.00  0.00    -0.376 OA
HETATM    4  C5  UNL     1       0.413  -0.866 -12.106  1.00  0.00     0.174 C 
HETATM    5  C6  UNL     1      -0.070  -1.055 -10.716  1.00  0.00     0.022 C 
HETATM    6  C7  UNL     1      -1.296  -0.165 -10.629  1.00  0.00     0.030 C 
HETATM    7  C8  UNL     1      -1.548   0.547  -9.390  1.00  0.00     0.009 C 
HETATM    8  C9  UNL     1      -0.576   0.488  -8.247  1.00  0.00     0.011 C 
HETATM    9  C10 UNL     1       0.246  -0.732  -8.374  1.00  0.00    -0.027 C 
HETATM   10  C11 UNL     1      -0.632  -1.905  -8.170  1.00  0.00     0.046 C 
HETATM   11  C12 UNL     1      -0.797  -2.152  -6.691  1.00  0.00     0.149 C 
HETATM   12  C13 UNL     1      -0.047  -1.296  -5.780  1.00  0.00    -0.032 C 
HETATM   13  C14 UNL     1      -0.456  -1.226  -4.527  1.00  0.00     0.019 C 
HETATM   14  C15 UNL     1       1.159  -0.483  -6.157  1.00  0.00     0.153 C 
HETATM   15  C16 UNL     1       1.435  -0.922  -7.518  1.00  0.00     0.028 C 
HETATM   16  C17 UNL     1       2.622  -0.436  -8.276  1.00  0.00     0.009 C 
HETATM   17  C18 UNL     1       2.253  -1.139  -9.619  1.00  0.00     0.006 C 
HETATM   18  C19 UNL     1       0.878  -0.578  -9.735  1.00  0.00     0.001 C 
ENDROOT
BRANCH   1  19
HETATM   19  C2  UNL     1      -0.907   2.096 -11.614  1.00  0.00     0.001 C 
HETATM   20  C1  UNL     1       0.273   2.662 -11.845  1.00  0.00     0.010 C 
ENDBRANCH   1  19
BRANCH  11  21
HETATM   21  O2  UNL     1      -2.163  -2.056  -6.327  1.00  0.00    -0.391 OA
ATOM     22  H2  UNL     1      -2.441  -1.147  -6.328  1.00  0.00     0.210 HD
ENDBRANCH  11  21
BRANCH  14  23
HETATM   23  O3  UNL     1       0.969   0.867  -5.962  1.00  0.00    -0.391 OA
ATOM     24  H3  UNL     1       0.334   1.051  -5.280  1.00  0.00     0.210 HD
ENDBRANCH  14  23
TORSDOF 3
ENDMDL
MODEL 3
REMARK VINA RESULT: -6.923736470      2.200      4.103
REMARK  3 active torsions:
REMARK  status: ('A' for Active; 'I' for Inactive)
REMARK    1  A    between atoms: C2_2  and  C3_3 
REMARK    2  A    between atoms: C12_13  and  O2_14 
REMARK    3  A    between atoms: C15_18  and  O3_19 
ROOT
HETATM    1  C3  UNL     1       4.297   3.052  -6.574  1.00  0.00     0.078 C 
HETATM    2  C4  UNL     1       5.561   3.690  -7.173  1.00  0.00     0.051 C 
HETATM    3  O1  UNL     1       4.662   2.520  -5.379  1.00  0.00    -0.376 OA
HETATM    4  C5  UNL     1       4.337   1.209  -5.294  1.00  0.00     0.174 C 
HETATM    5  C6  UNL     1       3.594   0.790  -6.507  1.00  0.00     0.022 C 
HETATM    6  C7  UNL     1       3.751   1.962  -7.458  1.00  0.00     0.030 C 
HETATM    7  C8  UNL     1       2.629   2.324  -8.303  1.00  0.00     0.009 C 
HETATM    8  C9  UNL     1       1.305   1.624  -8.182  1.00  0.00     0.011 C 
HETATM    9  C10 UNL     1       1.515   0.297  -7.570  1.00  0.00    -0.027 C 
HETATM   10  C11 UNL     1       2.284  -0.535  -8.520  1.00  0.00     0.046 C 
HETATM   11  C12 UNL     1       1.341  -1.135  -9.534  1.00  0.00     0.149 C 
HETATM   12  C13 UNL     1      -0.082  -0.871  -9.363  1.00  0.00    -0.032 C 
HETATM   13  C14 UNL     1      -0.867  -1.041 -10.410  1.00  0.00     0.019 C 
HETATM   14  C15 UNL     1      -0.728  -0.419  -8.084  1.00  0.00     0.153 C 
HETATM   15  C16 UNL     1       0.360  -0.507  -7.120  1.00  0.00     0.028 C 
HETATM   16  C17 UNL     1       0.153  -0.232  -5.671  1.00  0.00     0.009 C 
HETATM   17  C18 UNL     1       1.654  -0.355  -5.267  1.00  0.00     0.006 C 
HETATM   18  C19 UNL     1       2.179   0.628  -6.256  1.00  0.00     0.001 C 
ENDROOT
BRANCH   1  19
HETATM   19  C2  UNL     1       3.358   4.159  -6.340  1.00  0.00     0.001 C 
HETATM   20  C1  UNL     1       3.651   5.239  -5.623  1.00  0.00     0.010 C 
ENDBRANCH   1  19
BRANCH  11  21
HETATM   21  O2  UNL     1       1.692  -0.713 -10.840  1.00  0.00    -0.391 OA
ATOM     22  H2  UNL     1       0.986  -0.205 -11.223  1.00  0.00     0.210 HD
ENDBRANCH  11  21
BRANCH  14  23
HETATM   23  O3  UNL     1      -1.354   0.801  -8.210  1.00  0.00    -0.391 OA
ATOM     24  H3  UNL     1      -0.822   1.438  -8.673  1.00  0.00     0.210 HD
ENDBRANCH  14  23
TORSDOF 3
ENDMDL
MODEL 4
REMARK VINA RESULT: -6.716095735      2.480      6.160
REMARK  3 active torsions:
REMARK  status: ('A' for Active; 'I' for Inactive)
REMARK    1  A    between atoms: C2_2  and  C3_3 
REMARK    2  A    between atoms: C12_13  and  O2_14 
REMARK    3  A    between atoms: C15_18  and  O3_19 
ROOT
HETATM    1  C3  UNL     1      -0.228  -2.045 -13.022  1.00  0.00     0.078 C 
HETATM    2  C4  UNL     1      -0.950  -3.005 -13.981  1.00  0.00     0.051 C 
HETATM    3  O1  UNL     1       1.102  -2.195 -13.251  1.00  0.00    -0.376 OA
HETATM    4  C5  UNL     1       1.776  -2.487 -12.115  1.00  0.00     0.174 C 
HETATM    5  C6  UNL     1       0.855  -2.455 -10.954  1.00  0.00     0.022 C 
HETATM    6  C7  UNL     1      -0.525  -2.371 -11.581  1.00  0.00     0.030 C 
HETATM    7  C8  UNL     1      -1.532  -1.553 -10.932  1.00  0.00     0.009 C 
HETATM    8  C9  UNL     1      -1.203  -0.728  -9.720  1.00  0.00     0.011 C 
HETATM    9  C10 UNL     1      -0.014  -1.299  -9.056  1.00  0.00    -0.027 C 
HETATM   10  C11 UNL     1      -0.379  -2.623  -8.510  1.00  0.00     0.046 C 
HETATM   11  C12 UNL     1      -1.057  -2.442  -7.174  1.00  0.00     0.149 C 
HETATM   12  C13 UNL     1      -1.155  -1.085  -6.652  1.00  0.00    -0.032 C 
HETATM   13  C14 UNL     1      -2.055  -0.852  -5.715  1.00  0.00     0.019 C 
HETATM   14  C15 UNL     1      -0.310   0.074  -7.098  1.00  0.00     0.153 C 
HETATM   15  C16 UNL     1       0.666  -0.553  -7.977  1.00  0.00     0.028 C 
HETATM   16  C17 UNL     1       1.782   0.219  -8.593  1.00  0.00     0.009 C 
HETATM   17  C18 UNL     1       2.322  -0.952  -9.471  1.00  0.00     0.006 C 
HETATM   18  C19 UNL     1       1.032  -1.270 -10.145  1.00  0.00     0.001 C 
ENDROOT
BRANCH   1  19
HETATM   19  C2  UNL     1      -0.635  -0.690 -13.423  1.00  0.00     0.001 C 
HETATM   20  C1  UNL     1       0.213   0.243 -13.844  1.00  0.00     0.010 C 
ENDBRANCH   1  19
BRANCH  11  21
HETATM   21  O2  UNL     1      -2.370  -2.972  -7.215  1.00  0.00    -0.391 OA
ATOM     22  H2  UNL     1      -3.008  -2.269  -7.256  1.00  0.00     0.210 HD
ENDBRANCH  11  21
BRANCH  14  23
HETATM   23  O3  UNL     1      -1.059   1.102  -7.628  1.00  0.00    -0.391 OA
ATOM     24  H3  UNL     1      -1.940   0.830  -7.858  1.00  0.00     0.210 HD
ENDBRANCH  14  23
TORSDOF 3
ENDMDL
MODEL 5
REMARK VINA RESULT: -6.502156554      2.279      4.386
REMARK  3 active torsions:
REMARK  status: ('A' for Active; 'I' for Inactive)
REMARK    1  A    between atoms: C2_2  and  C3_3 
REMARK    2  A    between atoms: C12_13  and  O2_14 
REMARK    3  A    between atoms: C15_18  and  O3_19 
ROOT
HETATM    1  C3  UNL     1       1.004  -0.031  -7.474  1.00  0.00     0.078 C 
HETATM    2  C4  UNL     1       1.495  -0.733  -6.197  1.00  0.00     0.051 C 
HETATM    3  O1  UNL     1      -0.123   0.646  -7.135  1.00  0.00    -0.376 OA
HETATM    4  C5  UNL     1      -1.165   0.315  -7.932  1.00  0.00     0.174 C 
HETATM    5  C6  UNL     1      -0.717  -0.619  -8.993  1.00  0.00     0.022 C 
HETATM    6  C7  UNL     1       0.682  -1.020  -8.564  1.00  0.00     0.030 C 
HETATM    7  C8  UNL     1       1.696  -1.200  -9.585  1.00  0.00     0.009 C 
HETATM    8  C9  UNL     1       1.405  -0.908 -11.030  1.00  0.00     0.011 C 
HETATM    9  C10 UNL     1      -0.052  -0.985 -11.255  1.00  0.00    -0.027 C 
HETATM   10  C11 UNL     1      -0.475  -2.390 -11.073  1.00  0.00     0.046 C 
HETATM   11  C12 UNL     1      -0.222  -3.156 -12.349  1.00  0.00     0.149 C 
HETATM   12  C13 UNL     1       0.288  -2.406 -13.490  1.00  0.00    -0.032 C 
HETATM   13  C14 UNL     1       0.872  -3.086 -14.459  1.00  0.00     0.019 C 
HETATM   14  C15 UNL     1       0.201  -0.915 -13.651  1.00  0.00     0.153 C 
HETATM   15  C16 UNL     1      -0.635  -0.514 -12.528  1.00  0.00     0.028 C 
HETATM   16  C17 UNL     1      -1.068   0.898 -12.334  1.00  0.00     0.009 C 
HETATM   17  C18 UNL     1      -1.766   0.664 -10.959  1.00  0.00     0.006 C 
HETATM   18  C19 UNL     1      -0.602   0.028 -10.281  1.00  0.00     0.001 C 
ENDROOT
BRANCH   1  19
HETATM   19  C2  UNL     1       2.054   0.934  -7.834  1.00  0.00     0.001 C 
HETATM   20  C1  UNL     1       3.165   1.116  -7.127  1.00  0.00     0.010 C 
ENDBRANCH   1  19
BRANCH  11  21
HETATM   21  O2  UNL     1       0.680  -4.222 -12.110  1.00  0.00    -0.391 OA
ATOM     22  H2  UNL     1       0.647  -4.847 -12.825  1.00  0.00     0.210 HD
ENDBRANCH  11  21
BRANCH  14  23
HETATM   23  O3  UNL     1       1.440  -0.321 -13.751  1.00  0.00    -0.391 OA
ATOM     24  H3  UNL     1       1.458   0.381 -14.390  1.00  0.00     0.210 HD
ENDBRANCH  14  23
TORSDOF 3
ENDMDL
