MODEL 1
REMARK VINA RESULT: -7.848680557      0.000      0.000
REMARK  10 active torsions:
REMARK  status: ('A' for Active; 'I' for Inactive)
REMARK    1  A    between atoms: N1_1  and  C1_5 
REMARK    2  A    between atoms: C1_5  and  C2_6 
REMARK    3  A    between atoms: C2_6  and  N2_7 
REMARK    4  A    between atoms: C10_15  and  C11_16 
REMARK    5  A    between atoms: C11_16  and  C12_17 
REMARK    6  A    between atoms: C13_18  and  O1_19 
REMARK    7  A    between atoms: C14_23  and  O2_24 
REMARK    8  A    between atoms: C15_26  and  C16_27 
REMARK    9  A    between atoms: C19_30  and  O3_31 
REMARK   10  A    between atoms: C20_33  and  O4_34 
ROOT
HETATM    1  C12 UNL     1     -48.635  16.073  -6.035  1.00  0.00     0.009 A 
HETATM    2  C13 UNL     1     -49.090  15.765  -4.782  1.00  0.00     0.149 A 
HETATM    3  N3  UNL     1     -49.401  14.444  -4.719  1.00  0.00    -0.317 N 
ATOM      4  H3  UNL     1     -49.763  13.949  -3.904  1.00  0.00     0.170 HD
HETATM    5  C14 UNL     1     -49.155  13.919  -5.895  1.00  0.00     0.153 A 
HETATM    6  C15 UNL     1     -48.679  14.867  -6.757  1.00  0.00     0.036 A 
ENDROOT
BRANCH   1   7
HETATM    7  C11 UNL     1     -48.201  17.335  -6.596  1.00  0.00     0.059 C 
BRANCH   7   8
HETATM    8  C10 UNL     1     -46.895  17.926  -6.176  1.00  0.00    -0.000 C 
HETATM    9  C5  UNL     1     -46.648  19.155  -7.049  1.00  0.00     0.004 C 
HETATM   10  C4  UNL     1     -45.408  19.906  -6.670  1.00  0.00     0.050 C 
HETATM   11  C6  UNL     1     -46.454  18.749  -8.498  1.00  0.00     0.006 C 
HETATM   12  C3  UNL     1     -45.072  19.905  -5.222  1.00  0.00     0.063 C 
HETATM   13  N2  UNL     1     -46.156  19.550  -4.424  1.00  0.00    -0.371 N 
HETATM   14  C22 UNL     1     -47.006  18.483  -4.763  1.00  0.00     0.073 C 
HETATM   15  C7  UNL     1     -45.357  17.765  -8.670  1.00  0.00     0.000 C 
HETATM   16  C8  UNL     1     -44.931  16.983  -7.493  1.00  0.00     0.001 C 
HETATM   17  C9  UNL     1     -45.744  17.012  -6.267  1.00  0.00     0.015 C 
BRANCH  13  18
HETATM   18  C2  UNL     1     -46.779  20.614  -3.682  1.00  0.00     0.154 C 
BRANCH  18  19
HETATM   19  C1  UNL     1     -47.152  20.099  -2.315  1.00  0.00     0.249 C 
BRANCH  19  20
HETATM   20  N1  UNL     1     -45.969  19.947  -1.477  1.00  0.00    -0.078 N 
ATOM     21  H13 UNL     1     -45.110  20.040  -2.018  1.00  0.00     0.274 HD
ATOM     22  H12 UNL     1     -45.845  20.743  -0.852  1.00  0.00     0.274 HD
ATOM     23  H11 UNL     1     -45.999  19.066  -0.965  1.00  0.00     0.274 HD
ENDBRANCH  19  20
ENDBRANCH  18  19
ENDBRANCH  13  18
ENDBRANCH   7   8
ENDBRANCH   1   7
BRANCH   2  24
HETATM   24  O1  UNL     1     -49.269  16.555  -3.649  1.00  0.00    -0.346 OA
ATOM     25  H1  UNL     1     -49.227  16.343  -2.724  1.00  0.00     0.219 HD
ENDBRANCH   2  24
BRANCH   6  26
HETATM   26  C16 UNL     1     -48.295  14.663  -8.172  1.00  0.00    -0.018 A 
HETATM   27  C17 UNL     1     -49.238  14.402  -9.143  1.00  0.00     0.015 A 
HETATM   28  C18 UNL     1     -48.882  14.184 -10.461  1.00  0.00     0.040 A 
HETATM   29  C19 UNL     1     -47.554  14.218 -10.861  1.00  0.00     0.098 A 
HETATM   30  C20 UNL     1     -46.612  14.477  -9.893  1.00  0.00     0.099 A 
HETATM   31  C21 UNL     1     -46.978  14.697  -8.567  1.00  0.00     0.051 A 
BRANCH  29  32
HETATM   32  O3  UNL     1     -47.212  13.995 -12.193  1.00  0.00    -0.358 OA
ATOM     33  H3  UNL     1     -46.860  14.700 -12.724  1.00  0.00     0.217 HD
ENDBRANCH  29  32
BRANCH  30  34
HETATM   34  O4  UNL     1     -45.281  14.514 -10.275  1.00  0.00    -0.358 OA
ATOM     35  H4  UNL     1     -44.843  13.688 -10.443  1.00  0.00     0.217 HD
ENDBRANCH  30  34
ENDBRANCH   6  26
BRANCH   5  36
HETATM   36  O2  UNL     1     -49.350  12.567  -6.228  1.00  0.00    -0.345 OA
ATOM     37  H2  UNL     1     -49.319  12.215  -7.110  1.00  0.00     0.219 HD
ENDBRANCH   5  36
TORSDOF 10
ENDMDL
MODEL 2
REMARK VINA RESULT: -7.328634209      3.229      7.470
REMARK  10 active torsions:
REMARK  status: ('A' for Active; 'I' for Inactive)
REMARK    1  A    between atoms: N1_1  and  C1_5 
REMARK    2  A    between atoms: C1_5  and  C2_6 
REMARK    3  A    between atoms: C2_6  and  N2_7 
REMARK    4  A    between atoms: C10_15  and  C11_16 
REMARK    5  A    between atoms: C11_16  and  C12_17 
REMARK    6  A    between atoms: C13_18  and  O1_19 
REMARK    7  A    between atoms: C14_23  and  O2_24 
REMARK    8  A    between atoms: C15_26  and  C16_27 
REMARK    9  A    between atoms: C19_30  and  O3_31 
REMARK   10  A    between atoms: C20_33  and  O4_34 
ROOT
HETATM    1  C12 UNL     1     -45.958  19.559  -5.512  1.00  0.00     0.009 A 
HETATM    2  C13 UNL     1     -44.816  20.172  -5.950  1.00  0.00     0.149 A 
HETATM    3  N3  UNL     1     -44.246  20.865  -4.929  1.00  0.00    -0.317 N 
ATOM      4  H3  UNL     1     -43.388  21.413  -4.980  1.00  0.00     0.170 HD
HETATM    5  C14 UNL     1     -44.999  20.703  -3.868  1.00  0.00     0.153 A 
HETATM    6  C15 UNL     1     -46.073  19.908  -4.154  1.00  0.00     0.036 A 
ENDROOT
BRANCH   1   7
HETATM    7  C11 UNL     1     -46.914  18.732  -6.217  1.00  0.00     0.059 C 
BRANCH   7   8
HETATM    8  C10 UNL     1     -46.479  17.431  -6.808  1.00  0.00    -0.000 C 
HETATM    9  C5  UNL     1     -47.722  16.749  -7.374  1.00  0.00     0.004 C 
HETATM   10  C4  UNL     1     -47.416  15.466  -8.087  1.00  0.00     0.050 C 
HETATM   11  C6  UNL     1     -48.681  16.378  -6.259  1.00  0.00     0.006 C 
HETATM   12  C3  UNL     1     -46.115  15.423  -8.804  1.00  0.00     0.063 C 
HETATM   13  N2  UNL     1     -45.585  16.692  -9.023  1.00  0.00    -0.371 N 
HETATM   14  C22 UNL     1     -45.598  17.681  -8.026  1.00  0.00     0.073 C 
HETATM   15  C7  UNL     1     -48.047  15.522  -5.225  1.00  0.00     0.000 C 
HETATM   16  C8  UNL     1     -46.575  15.519  -5.130  1.00  0.00     0.001 C 
HETATM   17  C9  UNL     1     -45.795  16.523  -5.872  1.00  0.00     0.015 C 
BRANCH  13  18
HETATM   18  C2  UNL     1     -45.649  17.185 -10.373  1.00  0.00     0.154 C 
BRANCH  18  19
HETATM   19  C1  UNL     1     -45.105  16.130 -11.303  1.00  0.00     0.249 C 
BRANCH  19  20
HETATM   20  N1  UNL     1     -43.648  16.147 -11.310  1.00  0.00    -0.078 N 
ATOM     21  H13 UNL     1     -43.279  17.011 -10.914  1.00  0.00     0.274 HD
ATOM     22  H12 UNL     1     -43.260  15.489 -10.635  1.00  0.00     0.274 HD
ATOM     23  H11 UNL     1     -43.288  15.979 -12.250  1.00  0.00     0.274 HD
ENDBRANCH  19  20
ENDBRANCH  18  19
ENDBRANCH  13  18
ENDBRANCH   7   8
ENDBRANCH   1   7
BRANCH   2  24
HETATM   24  O1  UNL     1     -44.203  20.188  -7.201  1.00  0.00    -0.346 OA
ATOM     25  H1  UNL     1     -43.780  20.889  -7.683  1.00  0.00     0.219 HD
ENDBRANCH   2  24
BRANCH   6  26
HETATM   26  C16 UNL     1     -47.148  19.503  -3.220  1.00  0.00    -0.018 A 
HETATM   27  C17 UNL     1     -47.909  18.377  -3.444  1.00  0.00     0.015 A 
HETATM   28  C18 UNL     1     -48.932  18.010  -2.588  1.00  0.00     0.040 A 
HETATM   29  C19 UNL     1     -49.234  18.767  -1.465  1.00  0.00     0.098 A 
HETATM   30  C20 UNL     1     -48.476  19.891  -1.240  1.00  0.00     0.099 A 
HETATM   31  C21 UNL     1     -47.446  20.255  -2.106  1.00  0.00     0.051 A 
BRANCH  29  32
HETATM   32  O3  UNL     1     -50.269  18.383  -0.613  1.00  0.00    -0.358 OA
ATOM     33  H3  UNL     1     -50.315  17.494  -0.283  1.00  0.00     0.217 HD
ENDBRANCH  29  32
BRANCH  30  34
HETATM   34  O4  UNL     1     -48.765  20.658  -0.124  1.00  0.00    -0.358 OA
ATOM     35  H4  UNL     1     -49.615  21.080  -0.081  1.00  0.00     0.217 HD
ENDBRANCH  30  34
ENDBRANCH   6  26
BRANCH   5  36
HETATM   36  O2  UNL     1     -44.739  21.267  -2.606  1.00  0.00    -0.345 OA
ATOM     37  H2  UNL     1     -45.251  21.959  -2.205  1.00  0.00     0.219 HD
ENDBRANCH   5  36
TORSDOF 10
ENDMDL
MODEL 3
REMARK VINA RESULT: -7.292729577      3.011      7.479
REMARK  10 active torsions:
REMARK  status: ('A' for Active; 'I' for Inactive)
REMARK    1  A    between atoms: N1_1  and  C1_5 
REMARK    2  A    between atoms: C1_5  and  C2_6 
REMARK    3  A    between atoms: C2_6  and  N2_7 
REMARK    4  A    between atoms: C10_15  and  C11_16 
REMARK    5  A    between atoms: C11_16  and  C12_17 
REMARK    6  A    between atoms: C13_18  and  O1_19 
REMARK    7  A    between atoms: C14_23  and  O2_24 
REMARK    8  A    between atoms: C15_26  and  C16_27 
REMARK    9  A    between atoms: C19_30  and  O3_31 
REMARK   10  A    between atoms: C20_33  and  O4_34 
ROOT
HETATM    1  C12 UNL     1     -45.687  19.698  -5.773  1.00  0.00     0.009 A 
HETATM    2  C13 UNL     1     -44.555  20.218  -6.337  1.00  0.00     0.149 A 
HETATM    3  N3  UNL     1     -43.887  20.964  -5.419  1.00  0.00    -0.317 N 
ATOM      4  H3  UNL     1     -43.012  21.465  -5.572  1.00  0.00     0.170 HD
HETATM    5  C14 UNL     1     -44.568  20.924  -4.300  1.00  0.00     0.153 A 
HETATM    6  C15 UNL     1     -45.692  20.160  -4.446  1.00  0.00     0.036 A 
ENDROOT
BRANCH   1   7
HETATM    7  C11 UNL     1     -46.724  18.862  -6.341  1.00  0.00     0.059 C 
BRANCH   7   8
HETATM    8  C10 UNL     1     -46.378  17.518  -6.893  1.00  0.00    -0.000 C 
HETATM    9  C5  UNL     1     -47.677  16.870  -7.367  1.00  0.00     0.004 C 
HETATM   10  C4  UNL     1     -47.464  15.546  -8.036  1.00  0.00     0.050 C 
HETATM   11  C6  UNL     1     -48.594  16.592  -6.192  1.00  0.00     0.006 C 
HETATM   12  C3  UNL     1     -46.204  15.411  -8.813  1.00  0.00     0.063 C 
HETATM   13  N2  UNL     1     -45.630  16.644  -9.114  1.00  0.00    -0.371 N 
HETATM   14  C22 UNL     1     -45.549  17.674  -8.162  1.00  0.00     0.073 C 
HETATM   15  C7  UNL     1     -47.948  15.753  -5.153  1.00  0.00     0.000 C 
HETATM   16  C8  UNL     1     -46.474  15.686  -5.129  1.00  0.00     0.001 C 
HETATM   17  C9  UNL     1     -45.689  16.620  -5.951  1.00  0.00     0.015 C 
BRANCH  13  18
HETATM   18  C2  UNL     1     -45.740  17.082 -10.480  1.00  0.00     0.154 C 
BRANCH  18  19
HETATM   19  C1  UNL     1     -45.077  16.062 -11.372  1.00  0.00     0.249 C 
BRANCH  19  20
HETATM   20  N1  UNL     1     -43.633  16.064 -11.177  1.00  0.00    -0.078 N 
ATOM     21  H13 UNL     1     -43.294  16.977 -10.876  1.00  0.00     0.274 HD
ATOM     22  H12 UNL     1     -43.362  15.521 -10.357  1.00  0.00     0.274 HD
ATOM     23  H11 UNL     1     -43.154  15.742 -12.018  1.00  0.00     0.274 HD
ENDBRANCH  19  20
ENDBRANCH  18  19
ENDBRANCH  13  18
ENDBRANCH   7   8
ENDBRANCH   1   7
BRANCH   2  24
HETATM   24  O1  UNL     1     -44.032  20.104  -7.623  1.00  0.00    -0.346 OA
ATOM     25  H1  UNL     1     -44.137  20.650  -8.393  1.00  0.00     0.219 HD
ENDBRANCH   2  24
BRANCH   6  26
HETATM   26  C16 UNL     1     -46.714  19.883  -3.410  1.00  0.00    -0.018 A 
HETATM   27  C17 UNL     1     -46.911  20.738  -2.348  1.00  0.00     0.015 A 
HETATM   28  C18 UNL     1     -47.846  20.470  -1.364  1.00  0.00     0.040 A 
HETATM   29  C19 UNL     1     -48.625  19.324  -1.408  1.00  0.00     0.098 A 
HETATM   30  C20 UNL     1     -48.429  18.469  -2.468  1.00  0.00     0.099 A 
HETATM   31  C21 UNL     1     -47.486  18.746  -3.456  1.00  0.00     0.051 A 
BRANCH  29  32
HETATM   32  O3  UNL     1     -49.562  19.068  -0.408  1.00  0.00    -0.358 OA
ATOM     33  H3  UNL     1     -49.985  18.220  -0.350  1.00  0.00     0.217 HD
ENDBRANCH  29  32
BRANCH  30  34
HETATM   34  O4  UNL     1     -49.199  17.320  -2.526  1.00  0.00    -0.358 OA
ATOM     35  H4  UNL     1     -50.069  17.346  -2.147  1.00  0.00     0.217 HD
ENDBRANCH  30  34
ENDBRANCH   6  26
BRANCH   5  36
HETATM   36  O2  UNL     1     -44.197  21.575  -3.109  1.00  0.00    -0.345 OA
ATOM     37  H2  UNL     1     -44.679  22.290  -2.709  1.00  0.00     0.219 HD
ENDBRANCH   5  36
TORSDOF 10
ENDMDL
MODEL 4
REMARK VINA RESULT: -7.018145894      2.567      4.375
REMARK  10 active torsions:
REMARK  status: ('A' for Active; 'I' for Inactive)
REMARK    1  A    between atoms: N1_1  and  C1_5 
REMARK    2  A    between atoms: C1_5  and  C2_6 
REMARK    3  A    between atoms: C2_6  and  N2_7 
REMARK    4  A    between atoms: C10_15  and  C11_16 
REMARK    5  A    between atoms: C11_16  and  C12_17 
REMARK    6  A    between atoms: C13_18  and  O1_19 
REMARK    7  A    between atoms: C14_23  and  O2_24 
REMARK    8  A    between atoms: C15_26  and  C16_27 
REMARK    9  A    between atoms: C19_30  and  O3_31 
REMARK   10  A    between atoms: C20_33  and  O4_34 
ROOT
HETATM    1  C12 UNL     1     -46.998  14.862  -8.922  1.00  0.00     0.009 A 
HETATM    2  C13 UNL     1     -48.146  14.157  -8.682  1.00  0.00     0.149 A 
HETATM    3  N3  UNL     1     -48.634  13.663  -9.850  1.00  0.00    -0.317 N 
ATOM      4  H3  UNL     1     -49.478  13.102  -9.959  1.00  0.00     0.170 HD
HETATM    5  C14 UNL     1     -47.825  14.039 -10.811  1.00  0.00     0.153 A 
HETATM    6  C15 UNL     1     -46.793  14.781 -10.311  1.00  0.00     0.036 A 
ENDROOT
BRANCH   1   7
HETATM    7  C11 UNL     1     -46.128  15.582  -8.017  1.00  0.00     0.059 C 
BRANCH   7   8
HETATM    8  C10 UNL     1     -46.590  16.863  -7.402  1.00  0.00    -0.000 C 
HETATM    9  C5  UNL     1     -45.880  17.006  -6.058  1.00  0.00     0.004 C 
HETATM   10  C4  UNL     1     -46.180  18.303  -5.369  1.00  0.00     0.050 C 
HETATM   11  C6  UNL     1     -46.330  15.920  -5.099  1.00  0.00     0.006 C 
HETATM   12  C3  UNL     1     -46.390  19.473  -6.262  1.00  0.00     0.063 C 
HETATM   13  N2  UNL     1     -45.891  19.260  -7.544  1.00  0.00    -0.371 N 
HETATM   14  C22 UNL     1     -46.087  18.045  -8.222  1.00  0.00     0.073 C 
HETATM   15  C7  UNL     1     -47.802  15.905  -4.908  1.00  0.00     0.000 C 
HETATM   16  C8  UNL     1     -48.644  16.553  -5.932  1.00  0.00     0.001 C 
HETATM   17  C9  UNL     1     -48.046  16.969  -7.210  1.00  0.00     0.015 C 
BRANCH  13  18
HETATM   18  C2  UNL     1     -44.679  19.958  -7.882  1.00  0.00     0.154 C 
BRANCH  18  19
HETATM   19  C1  UNL     1     -44.243  20.777  -6.692  1.00  0.00     0.249 C 
BRANCH  19  20
HETATM   20  N1  UNL     1     -42.841  21.156  -6.810  1.00  0.00    -0.078 N 
ATOM     21  H13 UNL     1     -42.347  20.568  -7.480  1.00  0.00     0.274 HD
ATOM     22  H12 UNL     1     -42.731  22.053  -7.281  1.00  0.00     0.274 HD
ATOM     23  H11 UNL     1     -42.387  21.151  -5.896  1.00  0.00     0.274 HD
ENDBRANCH  19  20
ENDBRANCH  18  19
ENDBRANCH  13  18
ENDBRANCH   7   8
ENDBRANCH   1   7
BRANCH   2  24
HETATM   24  O1  UNL     1     -48.835  13.898  -7.500  1.00  0.00    -0.346 OA
ATOM     25  H1  UNL     1     -49.644  13.428  -7.336  1.00  0.00     0.219 HD
ENDBRANCH   2  24
BRANCH   6  26
HETATM   26  C16 UNL     1     -45.684  15.387 -11.083  1.00  0.00    -0.018 A 
HETATM   27  C17 UNL     1     -44.461  14.762 -11.197  1.00  0.00     0.015 A 
HETATM   28  C18 UNL     1     -43.414  15.337 -11.895  1.00  0.00     0.040 A 
HETATM   29  C19 UNL     1     -43.554  16.573 -12.508  1.00  0.00     0.098 A 
HETATM   30  C20 UNL     1     -44.773  17.199 -12.394  1.00  0.00     0.099 A 
HETATM   31  C21 UNL     1     -45.824  16.614 -11.691  1.00  0.00     0.051 A 
BRANCH  29  32
HETATM   32  O3  UNL     1     -42.488  17.139 -13.206  1.00  0.00    -0.358 OA
ATOM     33  H3  UNL     1     -42.499  18.061 -13.436  1.00  0.00     0.217 HD
ENDBRANCH  29  32
BRANCH  30  34
HETATM   34  O4  UNL     1     -44.929  18.434 -13.000  1.00  0.00    -0.358 OA
ATOM     35  H4  UNL     1     -45.795  18.823 -13.003  1.00  0.00     0.217 HD
ENDBRANCH  30  34
ENDBRANCH   6  26
BRANCH   5  36
HETATM   36  O2  UNL     1     -47.991  13.721 -12.171  1.00  0.00    -0.345 OA
ATOM     37  H2  UNL     1     -48.428  14.274 -12.808  1.00  0.00     0.219 HD
ENDBRANCH   5  36
TORSDOF 10
ENDMDL
MODEL 5
REMARK VINA RESULT: -6.937993950      2.797      7.520
REMARK  10 active torsions:
REMARK  status: ('A' for Active; 'I' for Inactive)
REMARK    1  A    between atoms: N1_1  and  C1_5 
REMARK    2  A    between atoms: C1_5  and  C2_6 
REMARK    3  A    between atoms: C2_6  and  N2_7 
REMARK    4  A    between atoms: C10_15  and  C11_16 
REMARK    5  A    between atoms: C11_16  and  C12_17 
REMARK    6  A    between atoms: C13_18  and  O1_19 
REMARK    7  A    between atoms: C14_23  and  O2_24 
REMARK    8  A    between atoms: C15_26  and  C16_27 
REMARK    9  A    between atoms: C19_30  and  O3_31 
REMARK   10  A    between atoms: C20_33  and  O4_34 
ROOT
HETATM    1  C12 UNL     1     -46.229  18.819  -7.128  1.00  0.00     0.009 A 
HETATM    2  C13 UNL     1     -45.334  19.162  -8.105  1.00  0.00     0.149 A 
HETATM    3  N3  UNL     1     -44.435  20.053  -7.609  1.00  0.00    -0.317 N 
ATOM      4  H3  UNL     1     -43.660  20.473  -8.122  1.00  0.00     0.170 HD
HETATM    5  C14 UNL     1     -44.742  20.275  -6.355  1.00  0.00     0.153 A 
HETATM    6  C15 UNL     1     -45.839  19.545  -5.990  1.00  0.00     0.036 A 
ENDROOT
BRANCH   1   7
HETATM    7  C11 UNL     1     -47.370  17.928  -7.167  1.00  0.00     0.059 C 
BRANCH   7   8
HETATM    8  C10 UNL     1     -47.166  16.465  -7.390  1.00  0.00    -0.000 C 
HETATM    9  C5  UNL     1     -48.546  15.828  -7.530  1.00  0.00     0.004 C 
HETATM   10  C4  UNL     1     -48.489  14.366  -7.855  1.00  0.00     0.050 C 
HETATM   11  C6  UNL     1     -49.313  15.927  -6.225  1.00  0.00     0.006 C 
HETATM   12  C3  UNL     1     -47.350  13.941  -8.710  1.00  0.00     0.063 C 
HETATM   13  N2  UNL     1     -46.761  15.009  -9.382  1.00  0.00    -0.371 N 
HETATM   14  C22 UNL     1     -46.505  16.233  -8.744  1.00  0.00     0.073 C 
HETATM   15  C7  UNL     1     -48.578  15.324  -5.086  1.00  0.00     0.000 C 
HETATM   16  C8  UNL     1     -47.119  15.145  -5.215  1.00  0.00     0.001 C 
HETATM   17  C9  UNL     1     -46.404  15.778  -6.335  1.00  0.00     0.015 C 
BRANCH  13  18
HETATM   18  C2  UNL     1     -47.028  15.100 -10.793  1.00  0.00     0.154 C 
BRANCH  18  19
HETATM   19  C1  UNL     1     -47.461  13.745 -11.294  1.00  0.00     0.249 C 
BRANCH  19  20
HETATM   20  N1  UNL     1     -46.548  13.256 -12.320  1.00  0.00    -0.078 N 
ATOM     21  H13 UNL     1     -45.952  12.508 -11.968  1.00  0.00     0.274 HD
ATOM     22  H12 UNL     1     -47.040  12.734 -13.045  1.00  0.00     0.274 HD
ATOM     23  H11 UNL     1     -46.000  14.022 -12.713  1.00  0.00     0.274 HD
ENDBRANCH  19  20
ENDBRANCH  18  19
ENDBRANCH  13  18
ENDBRANCH   7   8
ENDBRANCH   1   7
BRANCH   2  24
HETATM   24  O1  UNL     1     -45.226  18.762  -9.434  1.00  0.00    -0.346 OA
ATOM     25  H1  UNL     1     -45.626  19.102 -10.226  1.00  0.00     0.219 HD
ENDBRANCH   2  24
BRANCH   6  26
HETATM   26  C16 UNL     1     -46.490  19.533  -4.660  1.00  0.00    -0.018 A 
HETATM   27  C17 UNL     1     -46.176  20.467  -3.696  1.00  0.00     0.015 A 
HETATM   28  C18 UNL     1     -46.762  20.443  -2.444  1.00  0.00     0.040 A 
HETATM   29  C19 UNL     1     -47.693  19.472  -2.105  1.00  0.00     0.098 A 
HETATM   30  C20 UNL     1     -48.007  18.539  -3.066  1.00  0.00     0.099 A 
HETATM   31  C21 UNL     1     -47.414  18.569  -4.326  1.00  0.00     0.051 A 
BRANCH  29  32
HETATM   32  O3  UNL     1     -48.274  19.462  -0.838  1.00  0.00    -0.358 OA
ATOM     33  H3  UNL     1     -48.707  18.681  -0.514  1.00  0.00     0.217 HD
ENDBRANCH  29  32
BRANCH  30  34
HETATM   34  O4  UNL     1     -48.934  17.562  -2.744  1.00  0.00    -0.358 OA
ATOM     35  H4  UNL     1     -49.296  17.041  -3.451  1.00  0.00     0.217 HD
ENDBRANCH  30  34
ENDBRANCH   6  26
BRANCH   5  36
HETATM   36  O2  UNL     1     -44.041  21.141  -5.497  1.00  0.00    -0.345 OA
ATOM     37  H2  UNL     1     -44.009  21.060  -4.551  1.00  0.00     0.219 HD
ENDBRANCH   5  36
TORSDOF 10
ENDMDL
