MODEL 1
REMARK VINA RESULT: -8.817556375      0.000      0.000
REMARK  9 active torsions:
REMARK  status: ('A' for Active; 'I' for Inactive)
REMARK    1  A    between atoms: O1_2  and  C2_3 
REMARK    2  A    between atoms: C4_5  and  C5_6 
REMARK    3  A    between atoms: C5_6  and  O2_7 
REMARK    4  A    between atoms: C5_6  and  C6_9 
REMARK    5  A    between atoms: C6_9  and  C7_10 
REMARK    6  A    between atoms: C7_10  and  C8_11 
REMARK    7  A    between atoms: C14_20  and  C15_21 
REMARK    8  A    between atoms: C20_28  and  N3_29 
REMARK    9  A    between atoms: C21_34  and  N5_35 
ROOT
HETATM    1  C2  UNL     1     -45.732  14.289 -13.583  1.00  0.00     0.085 A 
HETATM    2  C3  UNL     1     -46.401  13.887 -12.477  1.00  0.00     0.052 A 
HETATM    3  C4  UNL     1     -47.367  12.857 -12.434  1.00  0.00     0.005 A 
HETATM    4  C14 UNL     1     -47.633  12.213 -13.658  1.00  0.00    -0.009 A 
HETATM    5  C19 UNL     1     -46.948  12.628 -14.818  1.00  0.00     0.073 A 
HETATM    6  N2  UNL     1     -47.188  12.103 -16.017  1.00  0.00    -0.190 N 
ATOM      7  H2  UNL     1     -47.877  11.355 -16.085  1.00  0.00     0.184 HD
HETATM    8  C20 UNL     1     -46.564  12.509 -17.158  1.00  0.00     0.677 A 
HETATM    9  N4  UNL     1     -45.664  13.487 -17.085  1.00  0.00    -0.176 N 
ATOM     10  H4  UNL     1     -45.191  13.797 -17.934  1.00  0.00     0.186 HD
HETATM   11  C21 UNL     1     -45.373  14.070 -15.920  1.00  0.00     0.130 A 
HETATM   12  C22 UNL     1     -46.007  13.657 -14.772  1.00  0.00     0.069 A 
ENDROOT
BRANCH   3  13
HETATM   13  C5  UNL     1     -48.012  12.751 -11.206  1.00  0.00     0.054 C 
BRANCH  13  14
HETATM   14  O2  UNL     1     -47.868  12.112 -10.080  1.00  0.00    -0.364 OA
ATOM     15  H2  UNL     1     -48.409  11.664  -9.441  1.00  0.00     0.217 HD
ENDBRANCH  13  14
BRANCH  13  16
HETATM   16  C6  UNL     1     -48.524  14.144 -10.671  1.00  0.00     0.065 C 
BRANCH  16  17
HETATM   17  C7  UNL     1     -48.676  14.142  -9.201  1.00  0.00     0.011 C 
BRANCH  17  18
HETATM   18  C8  UNL     1     -47.917  15.222  -8.494  1.00  0.00    -0.013 C 
HETATM   19  C9  UNL     1     -46.470  15.288  -8.920  1.00  0.00     0.006 C 
HETATM   20  C10 UNL     1     -45.976  16.723  -8.964  1.00  0.00     0.028 C 
HETATM   21  C11 UNL     1     -45.614  17.212  -7.578  1.00  0.00     0.232 C 
HETATM   22  N1  UNL     1     -46.884  17.254  -6.836  1.00  0.00    -0.075 N 
HETATM   23  C12 UNL     1     -47.089  15.965  -6.252  1.00  0.00     0.232 C 
ATOM     24  H12 UNL     1     -46.919  18.010  -6.152  1.00  0.00     0.277 HD
ATOM     25  H11 UNL     1     -47.669  17.559  -7.412  1.00  0.00     0.277 HD
HETATM   26  C13 UNL     1     -48.102  15.123  -7.022  1.00  0.00     0.032 C 
ENDBRANCH  17  18
ENDBRANCH  16  17
ENDBRANCH  13  16
ENDBRANCH   3  13
BRANCH   4  27
HETATM   27  C15 UNL     1     -48.506  11.098 -13.614  1.00  0.00    -0.021 C 
HETATM   28  C16 UNL     1     -47.887   9.714 -13.469  1.00  0.00     0.019 C 
HETATM   29  C17 UNL     1     -49.288  11.040 -15.014  1.00  0.00     0.019 C 
HETATM   30  C18 UNL     1     -49.735  11.002 -12.762  1.00  0.00     0.019 C 
ENDBRANCH   4  27
BRANCH   1  31
HETATM   31  O1  UNL     1     -44.784  15.301 -13.603  1.00  0.00    -0.355 OA
HETATM   32  C1  UNL     1     -44.584  16.144 -12.486  1.00  0.00     0.210 C 
ENDBRANCH   1  31
BRANCH  11  33
HETATM   33  N5  UNL     1     -44.512  15.006 -15.850  1.00  0.00    -0.384 N 
ATOM     34  H52 UNL     1     -44.042  15.183 -14.962  1.00  0.00     0.157 HD
ATOM     35  H51 UNL     1     -44.288  15.578 -16.664  1.00  0.00     0.157 HD
ENDBRANCH  11  33
BRANCH   8  36
HETATM   36  N3  UNL     1     -46.880  11.911 -18.246  1.00  0.00    -0.234 N 
ATOM     37  H32 UNL     1     -47.806  11.527 -18.434  1.00  0.00     0.174 HD
ATOM     38  H31 UNL     1     -46.157  11.825 -18.961  1.00  0.00     0.174 HD
ENDBRANCH   8  36
TORSDOF 9
ENDMDL
MODEL 2
REMARK VINA RESULT: -8.324338492      3.085      7.886
REMARK  9 active torsions:
REMARK  status: ('A' for Active; 'I' for Inactive)
REMARK    1  A    between atoms: O1_2  and  C2_3 
REMARK    2  A    between atoms: C4_5  and  C5_6 
REMARK    3  A    between atoms: C5_6  and  O2_7 
REMARK    4  A    between atoms: C5_6  and  C6_9 
REMARK    5  A    between atoms: C6_9  and  C7_10 
REMARK    6  A    between atoms: C7_10  and  C8_11 
REMARK    7  A    between atoms: C14_20  and  C15_21 
REMARK    8  A    between atoms: C20_28  and  N3_29 
REMARK    9  A    between atoms: C21_34  and  N5_35 
ROOT
HETATM    1  C2  UNL     1     -46.061  17.075  -7.418  1.00  0.00     0.085 A 
HETATM    2  C3  UNL     1     -45.776  17.047  -8.741  1.00  0.00     0.052 A 
HETATM    3  C4  UNL     1     -46.323  16.140  -9.676  1.00  0.00     0.005 A 
HETATM    4  C14 UNL     1     -47.238  15.202  -9.161  1.00  0.00    -0.009 A 
HETATM    5  C19 UNL     1     -47.537  15.217  -7.783  1.00  0.00     0.073 A 
HETATM    6  N2  UNL     1     -48.349  14.328  -7.217  1.00  0.00    -0.190 N 
ATOM      7  H2  UNL     1     -48.787  13.628  -7.816  1.00  0.00     0.184 HD
HETATM    8  C20 UNL     1     -48.628  14.300  -5.884  1.00  0.00     0.677 A 
HETATM    9  N4  UNL     1     -48.061  15.206  -5.090  1.00  0.00    -0.176 N 
ATOM     10  H4  UNL     1     -48.264  15.194  -4.091  1.00  0.00     0.186 HD
HETATM   11  C21 UNL     1     -47.229  16.127  -5.581  1.00  0.00     0.130 A 
HETATM   12  C22 UNL     1     -46.950  16.149  -6.927  1.00  0.00     0.069 A 
ENDROOT
BRANCH   3  13
HETATM   13  C5  UNL     1     -45.746  16.230 -10.939  1.00  0.00     0.054 C 
BRANCH  13  14
HETATM   14  O2  UNL     1     -45.750  17.039 -11.959  1.00  0.00    -0.364 OA
ATOM     15  H2  UNL     1     -45.561  17.013 -12.890  1.00  0.00     0.217 HD
ENDBRANCH  13  14
BRANCH  13  16
HETATM   16  C6  UNL     1     -44.231  15.785 -10.943  1.00  0.00     0.065 C 
BRANCH  16  17
HETATM   17  C7  UNL     1     -43.994  14.664 -11.876  1.00  0.00     0.011 C 
BRANCH  17  18
HETATM   18  C8  UNL     1     -43.429  15.067 -13.203  1.00  0.00    -0.013 C 
HETATM   19  C9  UNL     1     -42.781  16.431 -13.167  1.00  0.00     0.006 C 
HETATM   20  C10 UNL     1     -41.552  16.478 -14.057  1.00  0.00     0.028 C 
HETATM   21  C11 UNL     1     -41.941  16.675 -15.506  1.00  0.00     0.232 C 
HETATM   22  N1  UNL     1     -42.657  15.448 -15.887  1.00  0.00    -0.075 N 
HETATM   23  C12 UNL     1     -44.038  15.633 -15.563  1.00  0.00     0.232 C 
ATOM     24  H12 UNL     1     -42.509  15.190 -16.862  1.00  0.00     0.277 HD
ATOM     25  H11 UNL     1     -42.259  14.609 -15.465  1.00  0.00     0.277 HD
HETATM   26  C13 UNL     1     -44.443  14.917 -14.280  1.00  0.00     0.032 C 
ENDBRANCH  17  18
ENDBRANCH  16  17
ENDBRANCH  13  16
ENDBRANCH   3  13
BRANCH   4  27
HETATM   27  C15 UNL     1     -47.890  14.366 -10.100  1.00  0.00    -0.021 C 
HETATM   28  C16 UNL     1     -49.412  14.318 -10.075  1.00  0.00     0.019 C 
HETATM   29  C17 UNL     1     -47.439  12.856  -9.797  1.00  0.00     0.019 C 
HETATM   30  C18 UNL     1     -47.581  14.315 -11.565  1.00  0.00     0.019 C 
ENDBRANCH   4  27
BRANCH   1  31
HETATM   31  O1  UNL     1     -45.515  17.976  -6.516  1.00  0.00    -0.355 OA
HETATM   32  C1  UNL     1     -45.180  19.293  -6.904  1.00  0.00     0.210 C 
ENDBRANCH   1  31
BRANCH  11  33
HETATM   33  N5  UNL     1     -46.686  16.994  -4.821  1.00  0.00    -0.384 N 
ATOM     34  H52 UNL     1     -45.669  17.072  -4.804  1.00  0.00     0.157 HD
ATOM     35  H51 UNL     1     -47.251  17.608  -4.234  1.00  0.00     0.157 HD
ENDBRANCH  11  33
BRANCH   8  36
HETATM   36  N3  UNL     1     -49.437  13.397  -5.470  1.00  0.00    -0.234 N 
ATOM     37  H32 UNL     1     -49.188  12.412  -5.380  1.00  0.00     0.174 HD
ATOM     38  H31 UNL     1     -50.378  13.692  -5.213  1.00  0.00     0.174 HD
ENDBRANCH   8  36
TORSDOF 9
ENDMDL
MODEL 3
REMARK VINA RESULT: -8.320597303      0.760      1.455
REMARK  9 active torsions:
REMARK  status: ('A' for Active; 'I' for Inactive)
REMARK    1  A    between atoms: O1_2  and  C2_3 
REMARK    2  A    between atoms: C4_5  and  C5_6 
REMARK    3  A    between atoms: C5_6  and  O2_7 
REMARK    4  A    between atoms: C5_6  and  C6_9 
REMARK    5  A    between atoms: C6_9  and  C7_10 
REMARK    6  A    between atoms: C7_10  and  C8_11 
REMARK    7  A    between atoms: C14_20  and  C15_21 
REMARK    8  A    between atoms: C20_28  and  N3_29 
REMARK    9  A    between atoms: C21_34  and  N5_35 
ROOT
HETATM    1  C2  UNL     1     -45.569  14.329 -13.639  1.00  0.00     0.085 A 
HETATM    2  C3  UNL     1     -46.245  13.931 -12.537  1.00  0.00     0.052 A 
HETATM    3  C4  UNL     1     -47.252  12.940 -12.508  1.00  0.00     0.005 A 
HETATM    4  C14 UNL     1     -47.552  12.333 -13.742  1.00  0.00    -0.009 A 
HETATM    5  C19 UNL     1     -46.860  12.745 -14.899  1.00  0.00     0.073 A 
HETATM    6  N2  UNL     1     -47.129  12.256 -16.107  1.00  0.00    -0.190 N 
ATOM      7  H2  UNL     1     -47.848  11.537 -16.185  1.00  0.00     0.184 HD
HETATM    8  C20 UNL     1     -46.498  12.660 -17.244  1.00  0.00     0.677 A 
HETATM    9  N4  UNL     1     -45.559  13.601 -17.158  1.00  0.00    -0.176 N 
ATOM     10  H4  UNL     1     -45.079  13.909 -18.004  1.00  0.00     0.186 HD
HETATM   11  C21 UNL     1     -45.235  14.145 -15.983  1.00  0.00     0.130 A 
HETATM   12  C22 UNL     1     -45.878  13.734 -14.839  1.00  0.00     0.069 A 
ENDROOT
BRANCH   3  13
HETATM   13  C5  UNL     1     -47.891  12.833 -11.277  1.00  0.00     0.054 C 
BRANCH  13  14
HETATM   14  O2  UNL     1     -47.840  12.085 -10.212  1.00  0.00    -0.364 OA
ATOM     15  H2  UNL     1     -48.297  11.991  -9.384  1.00  0.00     0.217 HD
ENDBRANCH  13  14
BRANCH  13  16
HETATM   16  C6  UNL     1     -48.164  14.240 -10.615  1.00  0.00     0.065 C 
BRANCH  16  17
HETATM   17  C7  UNL     1     -47.020  14.687  -9.793  1.00  0.00     0.011 C 
BRANCH  17  18
HETATM   18  C8  UNL     1     -47.342  14.916  -8.348  1.00  0.00    -0.013 C 
HETATM   19  C9  UNL     1     -48.776  14.582  -8.014  1.00  0.00     0.006 C 
HETATM   20  C10 UNL     1     -48.889  13.967  -6.631  1.00  0.00     0.028 C 
HETATM   21  C11 UNL     1     -48.864  15.037  -5.561  1.00  0.00     0.232 C 
HETATM   22  N1  UNL     1     -47.515  15.621  -5.625  1.00  0.00    -0.075 N 
HETATM   23  C12 UNL     1     -47.546  16.680  -6.586  1.00  0.00     0.232 C 
ATOM     24  H12 UNL     1     -47.170  15.921  -4.714  1.00  0.00     0.277 HD
ATOM     25  H11 UNL     1     -46.792  14.928  -5.821  1.00  0.00     0.277 HD
HETATM   26  C13 UNL     1     -46.932  16.281  -7.923  1.00  0.00     0.032 C 
ENDBRANCH  17  18
ENDBRANCH  16  17
ENDBRANCH  13  16
ENDBRANCH   3  13
BRANCH   4  27
HETATM   27  C15 UNL     1     -48.469  11.254 -13.714  1.00  0.00    -0.021 C 
HETATM   28  C16 UNL     1     -47.911   9.850 -13.523  1.00  0.00     0.019 C 
HETATM   29  C17 UNL     1     -49.197  11.201 -15.144  1.00  0.00     0.019 C 
HETATM   30  C18 UNL     1     -49.733  11.220 -12.911  1.00  0.00     0.019 C 
ENDBRANCH   4  27
BRANCH   1  31
HETATM   31  O1  UNL     1     -44.581  15.302 -13.646  1.00  0.00    -0.355 OA
HETATM   32  C1  UNL     1     -44.095  15.865 -12.444  1.00  0.00     0.210 C 
ENDBRANCH   1  31
BRANCH  11  33
HETATM   33  N5  UNL     1     -44.337  15.045 -15.900  1.00  0.00    -0.384 N 
ATOM     34  H52 UNL     1     -44.260  15.740 -16.642  1.00  0.00     0.157 HD
ATOM     35  H51 UNL     1     -43.698  15.079 -15.105  1.00  0.00     0.157 HD
ENDBRANCH  11  33
BRANCH   8  36
HETATM   36  N3  UNL     1     -46.845  12.100 -18.342  1.00  0.00    -0.234 N 
ATOM     37  H32 UNL     1     -46.882  12.584 -19.239  1.00  0.00     0.174 HD
ATOM     38  H31 UNL     1     -47.091  11.111 -18.307  1.00  0.00     0.174 HD
ENDBRANCH   8  36
TORSDOF 9
ENDMDL
MODEL 4
REMARK VINA RESULT: -8.153980764      2.405      7.963
REMARK  9 active torsions:
REMARK  status: ('A' for Active; 'I' for Inactive)
REMARK    1  A    between atoms: O1_2  and  C2_3 
REMARK    2  A    between atoms: C4_5  and  C5_6 
REMARK    3  A    between atoms: C5_6  and  O2_7 
REMARK    4  A    between atoms: C5_6  and  C6_9 
REMARK    5  A    between atoms: C6_9  and  C7_10 
REMARK    6  A    between atoms: C7_10  and  C8_11 
REMARK    7  A    between atoms: C14_20  and  C15_21 
REMARK    8  A    between atoms: C20_28  and  N3_29 
REMARK    9  A    between atoms: C21_34  and  N5_35 
ROOT
HETATM    1  C2  UNL     1     -47.648  15.943  -7.235  1.00  0.00     0.085 A 
HETATM    2  C3  UNL     1     -47.640  14.871  -8.061  1.00  0.00     0.052 A 
HETATM    3  C4  UNL     1     -46.878  14.756  -9.245  1.00  0.00     0.005 A 
HETATM    4  C14 UNL     1     -46.068  15.863  -9.564  1.00  0.00    -0.009 A 
HETATM    5  C19 UNL     1     -46.074  16.988  -8.715  1.00  0.00     0.073 A 
HETATM    6  N2  UNL     1     -45.376  18.090  -8.982  1.00  0.00    -0.190 N 
ATOM      7  H2  UNL     1     -44.799  18.102  -9.822  1.00  0.00     0.184 HD
HETATM    8  C20 UNL     1     -45.390  19.202  -8.195  1.00  0.00     0.677 A 
HETATM    9  N4  UNL     1     -46.142  19.203  -7.096  1.00  0.00    -0.176 N 
ATOM     10  H4  UNL     1     -46.159  20.030  -6.500  1.00  0.00     0.186 HD
HETATM   11  C21 UNL     1     -46.875  18.138  -6.763  1.00  0.00     0.130 A 
HETATM   12  C22 UNL     1     -46.858  17.019  -7.562  1.00  0.00     0.069 A 
ENDROOT
BRANCH   3  13
HETATM   13  C5  UNL     1     -47.171  13.616  -9.986  1.00  0.00     0.054 C 
BRANCH  13  14
HETATM   14  O2  UNL     1     -47.323  12.338  -9.792  1.00  0.00    -0.364 OA
ATOM     15  H2  UNL     1     -47.498  11.742  -9.073  1.00  0.00     0.217 HD
ENDBRANCH  13  14
BRANCH  13  16
HETATM   16  C6  UNL     1     -48.300  13.870 -11.060  1.00  0.00     0.065 C 
BRANCH  16  17
HETATM   17  C7  UNL     1     -49.217  12.716 -11.170  1.00  0.00     0.011 C 
BRANCH  17  18
HETATM   18  C8  UNL     1     -49.060  11.912 -12.425  1.00  0.00    -0.013 C 
HETATM   19  C9  UNL     1     -49.090  10.425 -12.167  1.00  0.00     0.006 C 
HETATM   20  C10 UNL     1     -49.792   9.687 -13.293  1.00  0.00     0.028 C 
HETATM   21  C11 UNL     1     -48.862   9.488 -14.471  1.00  0.00     0.232 C 
HETATM   22  N1  UNL     1     -48.597  10.839 -14.989  1.00  0.00    -0.075 N 
HETATM   23  C12 UNL     1     -47.471  11.363 -14.278  1.00  0.00     0.232 C 
ATOM     24  H12 UNL     1     -48.471  10.858 -16.001  1.00  0.00     0.277 HD
ATOM     25  H11 UNL     1     -49.413  11.449 -14.945  1.00  0.00     0.277 HD
HETATM   26  C13 UNL     1     -47.870  12.361 -13.196  1.00  0.00     0.032 C 
ENDBRANCH  17  18
ENDBRANCH  16  17
ENDBRANCH  13  16
ENDBRANCH   3  13
BRANCH   4  27
HETATM   27  C15 UNL     1     -45.205  15.720 -10.678  1.00  0.00    -0.021 C 
HETATM   28  C16 UNL     1     -43.787  15.224 -10.421  1.00  0.00     0.019 C 
HETATM   29  C17 UNL     1     -45.006  17.174 -11.325  1.00  0.00     0.019 C 
HETATM   30  C18 UNL     1     -45.565  15.040 -11.963  1.00  0.00     0.019 C 
ENDBRANCH   4  27
BRANCH   1  31
HETATM   31  O1  UNL     1     -48.402  16.034  -6.074  1.00  0.00    -0.355 OA
HETATM   32  C1  UNL     1     -48.897  14.880  -5.426  1.00  0.00     0.210 C 
ENDBRANCH   1  31
BRANCH  11  33
HETATM   33  N5  UNL     1     -47.595  18.138  -5.712  1.00  0.00    -0.384 N 
ATOM     34  H52 UNL     1     -47.929  19.026  -5.339  1.00  0.00     0.157 HD
ATOM     35  H51 UNL     1     -47.841  17.266  -5.242  1.00  0.00     0.157 HD
ENDBRANCH  11  33
BRANCH   8  36
HETATM   36  N3  UNL     1     -44.664  20.192  -8.561  1.00  0.00    -0.234 N 
ATOM     37  H32 UNL     1     -44.974  20.912  -9.213  1.00  0.00     0.174 HD
ATOM     38  H31 UNL     1     -43.725  20.256  -8.167  1.00  0.00     0.174 HD
ENDBRANCH   8  36
TORSDOF 9
ENDMDL
MODEL 5
REMARK VINA RESULT: -8.074559704      1.716      4.252
REMARK  9 active torsions:
REMARK  status: ('A' for Active; 'I' for Inactive)
REMARK    1  A    between atoms: O1_2  and  C2_3 
REMARK    2  A    between atoms: C4_5  and  C5_6 
REMARK    3  A    between atoms: C5_6  and  O2_7 
REMARK    4  A    between atoms: C5_6  and  C6_9 
REMARK    5  A    between atoms: C6_9  and  C7_10 
REMARK    6  A    between atoms: C7_10  and  C8_11 
REMARK    7  A    between atoms: C14_20  and  C15_21 
REMARK    8  A    between atoms: C20_28  and  N3_29 
REMARK    9  A    between atoms: C21_34  and  N5_35 
ROOT
HETATM    1  C2  UNL     1     -46.727  12.979 -13.011  1.00  0.00     0.085 A 
HETATM    2  C3  UNL     1     -46.262  13.601 -11.903  1.00  0.00     0.052 A 
HETATM    3  C4  UNL     1     -45.321  14.655 -11.890  1.00  0.00     0.005 A 
HETATM    4  C14 UNL     1     -44.849  15.073 -13.149  1.00  0.00    -0.009 A 
HETATM    5  C19 UNL     1     -45.321  14.427 -14.311  1.00  0.00     0.073 A 
HETATM    6  N2  UNL     1     -44.879  14.732 -15.528  1.00  0.00    -0.190 N 
ATOM      7  H2  UNL     1     -44.191  15.479 -15.617  1.00  0.00     0.184 HD
HETATM    8  C20 UNL     1     -45.294  14.102 -16.662  1.00  0.00     0.677 A 
HETATM    9  N4  UNL     1     -46.189  13.121 -16.561  1.00  0.00    -0.176 N 
ATOM     10  H4  UNL     1     -46.507  12.644 -17.405  1.00  0.00     0.186 HD
HETATM   11  C21 UNL     1     -46.676  12.753 -15.375  1.00  0.00     0.130 A 
HETATM   12  C22 UNL     1     -46.252  13.392 -14.234  1.00  0.00     0.069 A 
ENDROOT
BRANCH   3  13
HETATM   13  C5  UNL     1     -44.900  15.009 -10.612  1.00  0.00     0.054 C 
BRANCH  13  14
HETATM   14  O2  UNL     1     -44.047  15.819 -10.054  1.00  0.00    -0.364 OA
ATOM     15  H2  UNL     1     -43.407  15.807  -9.352  1.00  0.00     0.217 HD
ENDBRANCH  13  14
BRANCH  13  16
HETATM   16  C6  UNL     1     -46.100  15.125  -9.593  1.00  0.00     0.065 C 
BRANCH  16  17
HETATM   17  C7  UNL     1     -46.019  16.365  -8.794  1.00  0.00     0.011 C 
BRANCH  17  18
HETATM   18  C8  UNL     1     -46.697  16.293  -7.460  1.00  0.00    -0.013 C 
HETATM   19  C9  UNL     1     -47.983  15.504  -7.506  1.00  0.00     0.006 C 
HETATM   20  C10 UNL     1     -48.183  14.706  -6.230  1.00  0.00     0.028 C 
HETATM   21  C11 UNL     1     -48.733  15.583  -5.126  1.00  0.00     0.232 C 
HETATM   22  N1  UNL     1     -47.663  16.546  -4.825  1.00  0.00    -0.075 N 
HETATM   23  C12 UNL     1     -47.828  17.665  -5.700  1.00  0.00     0.232 C 
ATOM     24  H12 UNL     1     -47.635  16.812  -3.841  1.00  0.00     0.277 HD
ATOM     25  H11 UNL     1     -46.731  16.134  -4.878  1.00  0.00     0.277 HD
HETATM   26  C13 UNL     1     -46.849  17.649  -6.869  1.00  0.00     0.032 C 
ENDBRANCH  17  18
ENDBRANCH  16  17
ENDBRANCH  13  16
ENDBRANCH   3  13
BRANCH   4  27
HETATM   27  C15 UNL     1     -44.001  16.207 -13.167  1.00  0.00    -0.021 C 
HETATM   28  C16 UNL     1     -44.558  17.522 -12.637  1.00  0.00     0.019 C 
HETATM   29  C17 UNL     1     -43.640  16.518 -14.699  1.00  0.00     0.019 C 
HETATM   30  C18 UNL     1     -42.584  16.229 -12.681  1.00  0.00     0.019 C 
ENDBRANCH   4  27
BRANCH   1  31
HETATM   31  O1  UNL     1     -47.654  11.948 -13.003  1.00  0.00    -0.355 OA
HETATM   32  C1  UNL     1     -48.758  11.959 -12.120  1.00  0.00     0.210 C 
ENDBRANCH   1  31
BRANCH  11  33
HETATM   33  N5  UNL     1     -47.533  11.815 -15.277  1.00  0.00    -0.384 N 
ATOM     34  H52 UNL     1     -47.461  11.155 -14.504  1.00  0.00     0.157 HD
ATOM     35  H51 UNL     1     -48.287  11.717 -15.959  1.00  0.00     0.157 HD
ENDBRANCH  11  33
BRANCH   8  36
HETATM   36  N3  UNL     1     -44.796  14.500 -17.773  1.00  0.00    -0.234 N 
ATOM     37  H32 UNL     1     -44.291  15.379 -17.886  1.00  0.00     0.174 HD
ATOM     38  H31 UNL     1     -44.914  13.893 -18.584  1.00  0.00     0.174 HD
ENDBRANCH   8  36
TORSDOF 9
ENDMDL
