MODEL 1
REMARK VINA RESULT: -8.865407989      0.000      0.000
REMARK  8 active torsions:
REMARK  status: ('A' for Active; 'I' for Inactive)
REMARK    1  A    between atoms: N1_2  and  C2_4 
REMARK    2  A    between atoms: C4_10  and  N4_11 
REMARK    3  A    between atoms: N6_18  and  C7_19 
REMARK    4  A    between atoms: C7_19  and  C8_20 
REMARK    5  A    between atoms: C8_20  and  C9_21 
REMARK    6  A    between atoms: C12_24  and  N7_25 
REMARK    7  A    between atoms: N7_25  and  C13_27 
REMARK    8  A    between atoms: C17_31  and  N8_33 
ROOT
HETATM    1  C7  UNL     1     -48.188  17.011  -6.162  1.00  0.00     0.148 C 
ENDROOT
BRANCH   1   2
HETATM    2  N6  UNL     1     -47.314  18.033  -5.612  1.00  0.00    -0.178 N 
HETATM    3  C2  UNL     1     -47.254  18.431  -4.301  1.00  0.00     0.682 A 
HETATM    4  N2  UNL     1     -46.319  19.373  -4.238  1.00  0.00    -0.174 N 
HETATM    5  C3  UNL     1     -45.770  19.604  -5.443  1.00  0.00     0.165 A 
ATOM      6  H2  UNL     1     -46.051  19.860  -3.382  1.00  0.00     0.186 HD
HETATM    7  N3  UNL     1     -44.815  20.423  -5.909  1.00  0.00    -0.174 N 
HETATM    8  C6  UNL     1     -46.416  18.739  -6.312  1.00  0.00     0.112 A 
HETATM    9  C4  UNL     1     -44.441  20.450  -7.210  1.00  0.00     0.677 A 
ATOM     10  H3  UNL     1     -44.350  21.052  -5.255  1.00  0.00     0.186 HD
HETATM   11  N5  UNL     1     -45.053  19.622  -8.074  1.00  0.00    -0.200 N 
HETATM   12  C5  UNL     1     -46.020  18.782  -7.640  1.00  0.00     0.140 A 
ATOM     13  H5  UNL     1     -44.788  19.628  -9.059  1.00  0.00     0.183 HD
BRANCH   3  14
HETATM   14  N1  UNL     1     -48.028  17.899  -3.420  1.00  0.00    -0.230 N 
HETATM   15  C1  UNL     1     -48.351  18.678  -2.227  1.00  0.00     0.165 C 
ATOM     16  H1  UNL     1     -48.405  16.960  -3.551  1.00  0.00     0.177 HD
ENDBRANCH   3  14
BRANCH   9  17
HETATM   17  N4  UNL     1     -43.505  21.257  -7.642  1.00  0.00    -0.234 N 
ATOM     18  H42 UNL     1     -42.920  21.753  -6.970  1.00  0.00     0.174 HD
ATOM     19  H41 UNL     1     -43.342  21.406  -8.638  1.00  0.00     0.174 HD
ENDBRANCH   9  17
ENDBRANCH   1   2
BRANCH   1  20
HETATM   20  C8  UNL     1     -47.311  15.911  -6.706  1.00  0.00     0.025 C 
BRANCH  20  21
HETATM   21  C9  UNL     1     -47.693  15.516  -8.118  1.00  0.00    -0.013 C 
HETATM   22  C10 UNL     1     -48.684  14.353  -7.954  1.00  0.00     0.007 C 
HETATM   23  C11 UNL     1     -49.272  14.106  -9.310  1.00  0.00     0.025 C 
HETATM   24  C12 UNL     1     -48.141  13.560 -10.216  1.00  0.00     0.077 C 
HETATM   25  C19 UNL     1     -47.034  14.535 -10.276  1.00  0.00     0.025 C 
HETATM   26  C20 UNL     1     -46.551  15.029  -8.919  1.00  0.00     0.007 C 
BRANCH  24  27
HETATM   27  N7  UNL     1     -48.674  13.168 -11.451  1.00  0.00    -0.411 N 
ATOM     28  H7  UNL     1     -49.585  13.508 -11.757  1.00  0.00     0.154 HD
BRANCH  27  29
HETATM   29  C13 UNL     1     -47.932  12.305 -12.253  1.00  0.00     0.112 C 
HETATM   30  C14 UNL     1     -47.433  12.784 -13.579  1.00  0.00     0.027 C 
HETATM   31  C15 UNL     1     -47.518  11.590 -14.550  1.00  0.00     0.004 C 
HETATM   32  C16 UNL     1     -47.776  10.405 -13.635  1.00  0.00     0.040 C 
HETATM   33  C17 UNL     1     -48.709  11.035 -12.627  1.00  0.00     0.140 C 
HETATM   34  C18 UNL     1     -50.002  11.359 -13.304  1.00  0.00     0.048 C 
BRANCH  33  35
HETATM   35  N8  UNL     1     -48.880  10.205 -11.454  1.00  0.00    -0.069 N 
ATOM     36  H83 UNL     1     -48.447  10.615 -10.626  1.00  0.00     0.275 HD
ATOM     37  H82 UNL     1     -49.846  10.197 -11.126  1.00  0.00     0.275 HD
ATOM     38  H81 UNL     1     -48.532   9.266 -11.645  1.00  0.00     0.275 HD
ENDBRANCH  33  35
ENDBRANCH  27  29
ENDBRANCH  24  27
ENDBRANCH  20  21
ENDBRANCH   1  20
TORSDOF 8
ENDMDL
MODEL 2
REMARK VINA RESULT: -8.711559635      1.102      2.896
REMARK  8 active torsions:
REMARK  status: ('A' for Active; 'I' for Inactive)
REMARK    1  A    between atoms: N1_2  and  C2_4 
REMARK    2  A    between atoms: C4_10  and  N4_11 
REMARK    3  A    between atoms: N6_18  and  C7_19 
REMARK    4  A    between atoms: C7_19  and  C8_20 
REMARK    5  A    between atoms: C8_20  and  C9_21 
REMARK    6  A    between atoms: C12_24  and  N7_25 
REMARK    7  A    between atoms: N7_25  and  C13_27 
REMARK    8  A    between atoms: C17_31  and  N8_33 
ROOT
HETATM    1  C7  UNL     1     -48.299  16.980  -6.149  1.00  0.00     0.148 C 
ENDROOT
BRANCH   1   2
HETATM    2  N6  UNL     1     -47.457  18.103  -5.775  1.00  0.00    -0.178 N 
HETATM    3  C2  UNL     1     -46.788  18.937  -6.634  1.00  0.00     0.682 A 
HETATM    4  N2  UNL     1     -46.154  19.825  -5.875  1.00  0.00    -0.174 N 
HETATM    5  C3  UNL     1     -46.380  19.608  -4.568  1.00  0.00     0.165 A 
ATOM      6  H2  UNL     1     -45.570  20.578  -6.239  1.00  0.00     0.186 HD
HETATM    7  N3  UNL     1     -45.994  20.199  -3.427  1.00  0.00    -0.174 N 
HETATM    8  C6  UNL     1     -47.216  18.503  -4.520  1.00  0.00     0.112 A 
HETATM    9  C4  UNL     1     -46.385  19.764  -2.206  1.00  0.00     0.677 A 
ATOM     10  H3  UNL     1     -45.379  21.011  -3.482  1.00  0.00     0.186 HD
HETATM   11  N5  UNL     1     -47.193  18.694  -2.131  1.00  0.00    -0.200 N 
HETATM   12  C5  UNL     1     -47.604  18.073  -3.261  1.00  0.00     0.140 A 
ATOM     13  H5  UNL     1     -47.498  18.349  -1.221  1.00  0.00     0.183 HD
BRANCH   3  14
HETATM   14  N1  UNL     1     -46.858  18.758  -7.907  1.00  0.00    -0.230 N 
HETATM   15  C1  UNL     1     -45.612  18.743  -8.670  1.00  0.00     0.165 C 
ATOM     16  H1  UNL     1     -47.758  18.630  -8.370  1.00  0.00     0.177 HD
ENDBRANCH   3  14
BRANCH   9  17
HETATM   17  N4  UNL     1     -45.996  20.357  -1.106  1.00  0.00    -0.234 N 
ATOM     18  H42 UNL     1     -45.300  19.907  -0.511  1.00  0.00     0.174 HD
ATOM     19  H41 UNL     1     -46.369  21.264  -0.823  1.00  0.00     0.174 HD
ENDBRANCH   9  17
ENDBRANCH   1   2
BRANCH   1  20
HETATM   20  C8  UNL     1     -47.396  15.897  -6.684  1.00  0.00     0.025 C 
BRANCH  20  21
HETATM   21  C9  UNL     1     -47.750  15.501  -8.103  1.00  0.00    -0.013 C 
HETATM   22  C10 UNL     1     -48.766  14.357  -7.958  1.00  0.00     0.007 C 
HETATM   23  C11 UNL     1     -49.324  14.114  -9.327  1.00  0.00     0.025 C 
HETATM   24  C12 UNL     1     -48.181  13.543 -10.202  1.00  0.00     0.077 C 
HETATM   25  C19 UNL     1     -47.055  14.497 -10.239  1.00  0.00     0.025 C 
HETATM   26  C20 UNL     1     -46.597  14.990  -8.873  1.00  0.00     0.007 C 
BRANCH  24  27
HETATM   27  N7  UNL     1     -48.690  13.153 -11.448  1.00  0.00    -0.411 N 
ATOM     28  H7  UNL     1     -49.593  13.498 -11.772  1.00  0.00     0.154 HD
BRANCH  27  29
HETATM   29  C13 UNL     1     -47.936  12.286 -12.234  1.00  0.00     0.112 C 
HETATM   30  C14 UNL     1     -47.409  12.762 -13.551  1.00  0.00     0.027 C 
HETATM   31  C15 UNL     1     -47.480  11.567 -14.522  1.00  0.00     0.004 C 
HETATM   32  C16 UNL     1     -47.761  10.384 -13.611  1.00  0.00     0.040 C 
HETATM   33  C17 UNL     1     -48.711  11.020 -12.623  1.00  0.00     0.140 C 
HETATM   34  C18 UNL     1     -49.989  11.347 -13.324  1.00  0.00     0.048 C 
BRANCH  33  35
HETATM   35  N8  UNL     1     -48.908  10.191 -11.451  1.00  0.00    -0.069 N 
ATOM     36  H83 UNL     1     -49.705   9.563 -11.555  1.00  0.00     0.275 HD
ATOM     37  H82 UNL     1     -48.177   9.487 -11.351  1.00  0.00     0.275 HD
ATOM     38  H81 UNL     1     -48.990  10.781 -10.624  1.00  0.00     0.275 HD
ENDBRANCH  33  35
ENDBRANCH  27  29
ENDBRANCH  24  27
ENDBRANCH  20  21
ENDBRANCH   1  20
TORSDOF 8
ENDMDL
MODEL 3
REMARK VINA RESULT: -8.502175925      3.036      9.729
REMARK  8 active torsions:
REMARK  status: ('A' for Active; 'I' for Inactive)
REMARK    1  A    between atoms: N1_2  and  C2_4 
REMARK    2  A    between atoms: C4_10  and  N4_11 
REMARK    3  A    between atoms: N6_18  and  C7_19 
REMARK    4  A    between atoms: C7_19  and  C8_20 
REMARK    5  A    between atoms: C8_20  and  C9_21 
REMARK    6  A    between atoms: C12_24  and  N7_25 
REMARK    7  A    between atoms: N7_25  and  C13_27 
REMARK    8  A    between atoms: C17_31  and  N8_33 
ROOT
HETATM    1  C7  UNL     1     -46.667  12.828 -12.811  1.00  0.00     0.148 C 
ENDROOT
BRANCH   1   2
HETATM    2  N6  UNL     1     -46.962  12.528 -14.202  1.00  0.00    -0.178 N 
HETATM    3  C2  UNL     1     -47.863  11.602 -14.659  1.00  0.00     0.682 A 
HETATM    4  N2  UNL     1     -47.823  11.663 -15.986  1.00  0.00    -0.174 N 
HETATM    5  C3  UNL     1     -46.939  12.583 -16.410  1.00  0.00     0.165 A 
ATOM      6  H2  UNL     1     -48.391  11.085 -16.605  1.00  0.00     0.186 HD
HETATM    7  N3  UNL     1     -46.533  13.026 -17.610  1.00  0.00    -0.174 N 
HETATM    8  C6  UNL     1     -46.396  13.128 -15.257  1.00  0.00     0.112 A 
HETATM    9  C4  UNL     1     -45.601  13.997 -17.757  1.00  0.00     0.677 A 
ATOM     10  H3  UNL     1     -46.944  12.613 -18.447  1.00  0.00     0.186 HD
HETATM   11  N5  UNL     1     -45.058  14.541 -16.655  1.00  0.00    -0.200 N 
HETATM   12  C5  UNL     1     -45.443  14.121 -15.429  1.00  0.00     0.140 A 
ATOM     13  H5  UNL     1     -44.352  15.273 -16.744  1.00  0.00     0.183 HD
BRANCH   3  14
HETATM   14  N1  UNL     1     -48.541  10.885 -13.831  1.00  0.00    -0.230 N 
HETATM   15  C1  UNL     1     -48.108   9.508 -13.599  1.00  0.00     0.165 C 
ATOM     16  H1  UNL     1     -49.356  11.266 -13.351  1.00  0.00     0.177 HD
ENDBRANCH   3  14
BRANCH   9  17
HETATM   17  N4  UNL     1     -45.221  14.414 -18.938  1.00  0.00    -0.234 N 
ATOM     18  H42 UNL     1     -44.834  13.747 -19.606  1.00  0.00     0.174 HD
ATOM     19  H41 UNL     1     -45.299  15.393 -19.213  1.00  0.00     0.174 HD
ENDBRANCH   9  17
ENDBRANCH   1   2
BRANCH   1  20
HETATM   20  C8  UNL     1     -47.969  13.182 -12.138  1.00  0.00     0.025 C 
BRANCH  20  21
HETATM   21  C9  UNL     1     -47.787  13.514 -10.672  1.00  0.00    -0.013 C 
HETATM   22  C10 UNL     1     -49.108  14.176 -10.245  1.00  0.00     0.007 C 
HETATM   23  C11 UNL     1     -49.059  14.287  -8.751  1.00  0.00     0.025 C 
HETATM   24  C12 UNL     1     -47.952  15.309  -8.396  1.00  0.00     0.077 C 
HETATM   25  C19 UNL     1     -46.658  14.858  -8.946  1.00  0.00     0.025 C 
HETATM   26  C20 UNL     1     -46.696  14.478 -10.421  1.00  0.00     0.007 C 
BRANCH  24  27
HETATM   27  N7  UNL     1     -47.970  15.566  -7.018  1.00  0.00    -0.411 N 
ATOM     28  H7  UNL     1     -48.013  14.800  -6.347  1.00  0.00     0.154 HD
BRANCH  27  29
HETATM   29  C13 UNL     1     -47.927  16.889  -6.586  1.00  0.00     0.112 C 
HETATM   30  C14 UNL     1     -47.098  17.878  -7.341  1.00  0.00     0.027 C 
HETATM   31  C15 UNL     1     -46.488  18.840  -6.301  1.00  0.00     0.004 C 
HETATM   32  C16 UNL     1     -47.257  18.523  -5.029  1.00  0.00     0.040 C 
HETATM   33  C17 UNL     1     -47.388  17.023  -5.155  1.00  0.00     0.140 C 
HETATM   34  C18 UNL     1     -46.034  16.407  -5.015  1.00  0.00     0.048 C 
BRANCH  33  35
HETATM   35  N8  UNL     1     -48.351  16.482  -4.219  1.00  0.00    -0.069 N 
ATOM     36  H83 UNL     1     -49.299  16.803  -4.415  1.00  0.00     0.275 HD
ATOM     37  H82 UNL     1     -48.502  15.483  -4.356  1.00  0.00     0.275 HD
ATOM     38  H81 UNL     1     -48.062  16.700  -3.265  1.00  0.00     0.275 HD
ENDBRANCH  33  35
ENDBRANCH  27  29
ENDBRANCH  24  27
ENDBRANCH  20  21
ENDBRANCH   1  20
TORSDOF 8
ENDMDL
MODEL 4
REMARK VINA RESULT: -8.395918784      0.950      3.163
REMARK  8 active torsions:
REMARK  status: ('A' for Active; 'I' for Inactive)
REMARK    1  A    between atoms: N1_2  and  C2_4 
REMARK    2  A    between atoms: C4_10  and  N4_11 
REMARK    3  A    between atoms: N6_18  and  C7_19 
REMARK    4  A    between atoms: C7_19  and  C8_20 
REMARK    5  A    between atoms: C8_20  and  C9_21 
REMARK    6  A    between atoms: C12_24  and  N7_25 
REMARK    7  A    between atoms: N7_25  and  C13_27 
REMARK    8  A    between atoms: C17_31  and  N8_33 
ROOT
HETATM    1  C7  UNL     1     -46.060  18.294  -8.441  1.00  0.00     0.148 C 
ENDROOT
BRANCH   1   2
HETATM    2  N6  UNL     1     -45.935  18.879  -7.118  1.00  0.00    -0.178 N 
HETATM    3  C2  UNL     1     -45.049  19.856  -6.742  1.00  0.00     0.682 A 
HETATM    4  N2  UNL     1     -45.284  20.101  -5.457  1.00  0.00    -0.174 N 
HETATM    5  C3  UNL     1     -46.279  19.331  -4.982  1.00  0.00     0.165 A 
ATOM      6  H2  UNL     1     -44.774  20.787  -4.901  1.00  0.00     0.186 HD
HETATM    7  N3  UNL     1     -46.887  19.192  -3.795  1.00  0.00    -0.174 N 
HETATM    8  C6  UNL     1     -46.685  18.554  -6.057  1.00  0.00     0.112 A 
HETATM    9  C4  UNL     1     -47.897  18.316  -3.585  1.00  0.00     0.677 A 
ATOM     10  H3  UNL     1     -46.574  19.772  -3.016  1.00  0.00     0.186 HD
HETATM   11  N5  UNL     1     -48.309  17.550  -4.609  1.00  0.00    -0.200 N 
HETATM   12  C5  UNL     1     -47.721  17.663  -5.821  1.00  0.00     0.140 A 
ATOM     13  H5  UNL     1     -49.068  16.882  -4.472  1.00  0.00     0.183 HD
BRANCH   3  14
HETATM   14  N1  UNL     1     -44.209  20.339  -7.591  1.00  0.00    -0.230 N 
HETATM   15  C1  UNL     1     -43.430  21.511  -7.197  1.00  0.00     0.165 C 
ATOM     16  H1  UNL     1     -44.091  19.915  -8.511  1.00  0.00     0.177 HD
ENDBRANCH   3  14
BRANCH   9  17
HETATM   17  N4  UNL     1     -48.477  18.198  -2.417  1.00  0.00    -0.234 N 
ATOM     18  H42 UNL     1     -48.257  18.865  -1.677  1.00  0.00     0.174 HD
ATOM     19  H41 UNL     1     -49.147  17.454  -2.222  1.00  0.00     0.174 HD
ENDBRANCH   9  17
ENDBRANCH   1   2
BRANCH   1  20
HETATM   20  C8  UNL     1     -45.844  16.808  -8.300  1.00  0.00     0.025 C 
BRANCH  20  21
HETATM   21  C9  UNL     1     -46.597  16.015  -9.349  1.00  0.00    -0.013 C 
HETATM   22  C10 UNL     1     -47.450  15.012  -8.557  1.00  0.00     0.007 C 
HETATM   23  C11 UNL     1     -48.390  14.388  -9.544  1.00  0.00     0.025 C 
HETATM   24  C12 UNL     1     -47.544  13.531 -10.517  1.00  0.00     0.077 C 
HETATM   25  C19 UNL     1     -46.542  14.382 -11.189  1.00  0.00     0.025 C 
HETATM   26  C20 UNL     1     -45.712  15.247 -10.250  1.00  0.00     0.007 C 
BRANCH  24  27
HETATM   27  N7  UNL     1     -48.390  12.804 -11.364  1.00  0.00    -0.411 N 
ATOM     28  H7  UNL     1     -49.403  12.882 -11.280  1.00  0.00     0.154 HD
BRANCH  27  29
HETATM   29  C13 UNL     1     -47.818  11.970 -12.322  1.00  0.00     0.112 C 
HETATM   30  C14 UNL     1     -47.463  12.532 -13.662  1.00  0.00     0.027 C 
HETATM   31  C15 UNL     1     -47.754  11.432 -14.702  1.00  0.00     0.004 C 
HETATM   32  C16 UNL     1     -47.972  10.190 -13.854  1.00  0.00     0.040 C 
HETATM   33  C17 UNL     1     -48.722  10.785 -12.685  1.00  0.00     0.140 C 
HETATM   34  C18 UNL     1     -50.066  11.238 -13.155  1.00  0.00     0.048 C 
BRANCH  33  35
HETATM   35  N8  UNL     1     -48.797   9.868 -11.566  1.00  0.00    -0.069 N 
ATOM     36  H83 UNL     1     -48.076  10.053 -10.869  1.00  0.00     0.275 HD
ATOM     37  H82 UNL     1     -49.614  10.041 -10.982  1.00  0.00     0.275 HD
ATOM     38  H81 UNL     1     -48.764   8.908 -11.907  1.00  0.00     0.275 HD
ENDBRANCH  33  35
ENDBRANCH  27  29
ENDBRANCH  24  27
ENDBRANCH  20  21
ENDBRANCH   1  20
TORSDOF 8
ENDMDL
MODEL 5
REMARK VINA RESULT: -8.359465331      3.900      8.558
REMARK  8 active torsions:
REMARK  status: ('A' for Active; 'I' for Inactive)
REMARK    1  A    between atoms: N1_2  and  C2_4 
REMARK    2  A    between atoms: C4_10  and  N4_11 
REMARK    3  A    between atoms: N6_18  and  C7_19 
REMARK    4  A    between atoms: C7_19  and  C8_20 
REMARK    5  A    between atoms: C8_20  and  C9_21 
REMARK    6  A    between atoms: C12_24  and  N7_25 
REMARK    7  A    between atoms: N7_25  and  C13_27 
REMARK    8  A    between atoms: C17_31  and  N8_33 
ROOT
HETATM    1  C7  UNL     1     -45.033  13.502 -13.203  1.00  0.00     0.148 C 
ENDROOT
BRANCH   1   2
HETATM    2  N6  UNL     1     -44.489  14.554 -14.044  1.00  0.00    -0.178 N 
HETATM    3  C2  UNL     1     -44.717  14.721 -15.386  1.00  0.00     0.682 A 
HETATM    4  N2  UNL     1     -44.038  15.804 -15.749  1.00  0.00    -0.174 N 
HETATM    5  C3  UNL     1     -43.382  16.347 -14.709  1.00  0.00     0.165 A 
ATOM      6  H2  UNL     1     -44.018  16.178 -16.698  1.00  0.00     0.186 HD
HETATM    7  N3  UNL     1     -42.584  17.413 -14.542  1.00  0.00    -0.174 N 
HETATM    8  C6  UNL     1     -43.680  15.536 -13.625  1.00  0.00     0.112 A 
HETATM    9  C4  UNL     1     -42.043  17.744 -13.346  1.00  0.00     0.677 A 
ATOM     10  H3  UNL     1     -42.376  17.998 -15.351  1.00  0.00     0.186 HD
HETATM   11  N5  UNL     1     -42.314  16.974 -12.280  1.00  0.00    -0.200 N 
HETATM   12  C5  UNL     1     -43.116  15.892 -12.410  1.00  0.00     0.140 A 
ATOM     13  H5  UNL     1     -41.915  17.206 -11.370  1.00  0.00     0.183 HD
BRANCH   3  14
HETATM   14  N1  UNL     1     -45.467  13.896 -16.029  1.00  0.00    -0.230 N 
HETATM   15  C1  UNL     1     -45.843  14.233 -17.400  1.00  0.00     0.165 C 
ATOM     16  H1  UNL     1     -45.790  13.031 -15.594  1.00  0.00     0.177 HD
ENDBRANCH   3  14
BRANCH   9  17
HETATM   17  N4  UNL     1     -41.267  18.790 -13.207  1.00  0.00    -0.234 N 
ATOM     18  H42 UNL     1     -40.453  18.896 -13.812  1.00  0.00     0.174 HD
ATOM     19  H41 UNL     1     -41.454  19.508 -12.507  1.00  0.00     0.174 HD
ENDBRANCH   9  17
ENDBRANCH   1   2
BRANCH   1  20
HETATM   20  C8  UNL     1     -46.394  13.956 -12.736  1.00  0.00     0.025 C 
BRANCH  20  21
HETATM   21  C9  UNL     1     -46.472  14.084 -11.229  1.00  0.00    -0.013 C 
HETATM   22  C10 UNL     1     -47.975  14.090 -10.905  1.00  0.00     0.007 C 
HETATM   23  C11 UNL     1     -48.084  13.962  -9.416  1.00  0.00     0.025 C 
HETATM   24  C12 UNL     1     -47.523  15.262  -8.793  1.00  0.00     0.077 C 
HETATM   25  C19 UNL     1     -46.121  15.455  -9.216  1.00  0.00     0.025 C 
HETATM   26  C20 UNL     1     -45.892  15.343 -10.717  1.00  0.00     0.007 C 
BRANCH  24  27
HETATM   27  N7  UNL     1     -47.744  15.258  -7.409  1.00  0.00    -0.411 N 
ATOM     28  H7  UNL     1     -47.740  14.384  -6.885  1.00  0.00     0.154 HD
BRANCH  27  29
HETATM   29  C13 UNL     1     -47.971  16.472  -6.766  1.00  0.00     0.112 C 
HETATM   30  C14 UNL     1     -47.211  17.684  -7.203  1.00  0.00     0.027 C 
HETATM   31  C15 UNL     1     -46.910  18.507  -5.935  1.00  0.00     0.004 C 
HETATM   32  C16 UNL     1     -47.788  17.863  -4.876  1.00  0.00     0.040 C 
HETATM   33  C17 UNL     1     -47.663  16.408  -5.264  1.00  0.00     0.140 C 
HETATM   34  C18 UNL     1     -46.262  15.959  -5.005  1.00  0.00     0.048 C 
BRANCH  33  35
HETATM   35  N8  UNL     1     -48.650  15.583  -4.599  1.00  0.00    -0.069 N 
ATOM     36  H83 UNL     1     -49.048  16.044  -3.780  1.00  0.00     0.275 HD
ATOM     37  H82 UNL     1     -49.506  15.491  -5.146  1.00  0.00     0.275 HD
ATOM     38  H81 UNL     1     -48.241  14.677  -4.370  1.00  0.00     0.275 HD
ENDBRANCH  33  35
ENDBRANCH  27  29
ENDBRANCH  24  27
ENDBRANCH  20  21
ENDBRANCH   1  20
TORSDOF 8
ENDMDL
