MODEL 1
REMARK VINA RESULT: -6.713991327      0.000      0.000
REMARK  2 active torsions:
REMARK  status: ('A' for Active; 'I' for Inactive)
REMARK       I    between atoms: C1_4  and  N3_6 
REMARK       I    between atoms: N3_6  and  C2_8 
REMARK    1  A    between atoms: N5_10  and  N6_12 
REMARK    2  A    between atoms: C3_14  and  C4_15 
ROOT
HETATM    1  N6  UNL     1       5.884 -13.387   1.491  1.00  0.00    -0.308 N 
ATOM      2  H6  UNL     1       5.026 -13.518   2.026  1.00  0.00     0.186 HD
HETATM    3  C3  UNL     1       6.734 -14.350   1.375  1.00  0.00     0.125 C 
ENDROOT
BRANCH   1   4
HETATM    4  N5  UNL     1       6.155 -12.167   0.878  1.00  0.00    -0.274 N 
HETATM    5  C2  UNL     1       6.069 -11.087   1.566  1.00  0.00     0.209 C 
HETATM    6  N3  UNL     1       5.702 -11.161   2.931  1.00  0.00    -0.304 N 
HETATM    7  N4  UNL     1       6.333  -9.821   0.990  1.00  0.00    -0.062 NA
HETATM    8  C1  UNL     1       6.600 -10.691   3.926  1.00  0.00     0.188 C 
ATOM      9  H3  UNL     1       4.797 -11.548   3.198  1.00  0.00     0.171 HD
HETATM   10  N1  UNL     1       7.846 -10.533   3.631  1.00  0.00    -0.373 N 
HETATM   11  N2  UNL     1       6.107 -10.406   5.225  1.00  0.00    -0.064 NA
ATOM     12  H12 UNL     1       8.491 -10.196   4.345  1.00  0.00     0.158 HD
ATOM     13  H11 UNL     1       8.201 -10.738   2.697  1.00  0.00     0.158 HD
ATOM     14  H5  UNL     1       6.418 -12.132  -0.107  1.00  0.00     0.189 HD
ENDBRANCH   1   4
BRANCH   3  15
HETATM   15  C4  UNL     1       6.487 -15.637   2.000  1.00  0.00     0.064 A 
HETATM   16  C5  UNL     1       6.269 -16.777   1.258  1.00  0.00     0.107 A 
HETATM   17  N7  UNL     1       6.039 -17.976   1.867  1.00  0.00    -0.361 N 
HETATM   18  C6  UNL     1       6.018 -18.079   3.208  1.00  0.00     0.183 A 
ATOM     19  H7  UNL     1       5.880 -18.807   1.297  1.00  0.00     0.166 HD
HETATM   20  N8  UNL     1       6.230 -16.970   3.930  1.00  0.00    -0.319 N 
HETATM   21  C7  UNL     1       6.464 -15.758   3.371  1.00  0.00     0.259 A 
ATOM     22  H8  UNL     1       6.215 -17.041   4.947  1.00  0.00     0.169 HD
HETATM   23  O1  UNL     1       6.661 -14.729   4.066  1.00  0.00    -0.267 OA
ENDBRANCH   3  15
TORSDOF 2
ENDMDL
MODEL 2
REMARK VINA RESULT: -6.619115005      1.047      1.047
REMARK  2 active torsions:
REMARK  status: ('A' for Active; 'I' for Inactive)
REMARK       I    between atoms: C1_4  and  N3_6 
REMARK       I    between atoms: N3_6  and  C2_8 
REMARK    1  A    between atoms: N5_10  and  N6_12 
REMARK    2  A    between atoms: C3_14  and  C4_15 
ROOT
HETATM    1  N6  UNL     1       6.610 -13.538   1.421  1.00  0.00    -0.308 N 
ATOM      2  H6  UNL     1       7.472 -13.384   1.943  1.00  0.00     0.186 HD
HETATM    3  C3  UNL     1       6.129 -14.728   1.291  1.00  0.00     0.125 C 
ENDROOT
BRANCH   1   4
HETATM    4  N5  UNL     1       5.937 -12.468   0.839  1.00  0.00    -0.274 N 
HETATM    5  C2  UNL     1       5.498 -11.523   1.587  1.00  0.00     0.209 C 
HETATM    6  N3  UNL     1       5.707 -11.589   2.985  1.00  0.00    -0.304 N 
HETATM    7  N4  UNL     1       4.806 -10.412   1.045  1.00  0.00    -0.062 NA
HETATM    8  C1  UNL     1       6.459 -10.572   3.631  1.00  0.00     0.188 C 
ATOM      9  H3  UNL     1       5.320 -12.362   3.525  1.00  0.00     0.171 HD
HETATM   10  N1  UNL     1       7.226  -9.808   2.930  1.00  0.00    -0.373 N 
HETATM   11  N2  UNL     1       6.351 -10.419   5.038  1.00  0.00    -0.064 NA
ATOM     12  H12 UNL     1       7.766  -9.078   3.395  1.00  0.00     0.158 HD
ATOM     13  H11 UNL     1       7.303  -9.917   1.919  1.00  0.00     0.158 HD
ATOM     14  H5  UNL     1       5.794 -12.436  -0.171  1.00  0.00     0.189 HD
ENDBRANCH   1   4
BRANCH   3  15
HETATM   15  C4  UNL     1       6.803 -15.868   1.884  1.00  0.00     0.064 A 
HETATM   16  C5  UNL     1       7.228 -16.938   1.127  1.00  0.00     0.107 A 
HETATM   17  N7  UNL     1       7.860 -17.999   1.706  1.00  0.00    -0.361 N 
HETATM   18  C6  UNL     1       8.086 -18.032   3.032  1.00  0.00     0.183 A 
ATOM     19  H7  UNL     1       8.167 -18.780   1.125  1.00  0.00     0.166 HD
HETATM   20  N8  UNL     1       7.673 -16.991   3.769  1.00  0.00    -0.319 N 
HETATM   21  C7  UNL     1       7.042 -15.915   3.239  1.00  0.00     0.259 A 
ATOM     22  H8  UNL     1       7.840 -17.011   4.774  1.00  0.00     0.169 HD
HETATM   23  O1  UNL     1       6.662 -14.948   3.947  1.00  0.00    -0.267 OA
ENDBRANCH   3  15
TORSDOF 2
ENDMDL
MODEL 3
REMARK VINA RESULT: -6.575684136      2.895      3.927
REMARK  2 active torsions:
REMARK  status: ('A' for Active; 'I' for Inactive)
REMARK       I    between atoms: C1_4  and  N3_6 
REMARK       I    between atoms: N3_6  and  C2_8 
REMARK    1  A    between atoms: N5_10  and  N6_12 
REMARK    2  A    between atoms: C3_14  and  C4_15 
ROOT
HETATM    1  N6  UNL     1       7.533 -14.678   1.853  1.00  0.00    -0.308 N 
ATOM      2  H6  UNL     1       8.430 -14.387   1.465  1.00  0.00     0.186 HD
HETATM    3  C3  UNL     1       6.699 -15.353   1.137  1.00  0.00     0.125 C 
ENDROOT
BRANCH   1   4
HETATM    4  N5  UNL     1       7.192 -14.351   3.163  1.00  0.00    -0.274 N 
HETATM    5  C2  UNL     1       6.800 -13.159   3.429  1.00  0.00     0.209 C 
HETATM    6  N3  UNL     1       6.724 -12.204   2.388  1.00  0.00    -0.304 N 
HETATM    7  N4  UNL     1       6.442 -12.775   4.745  1.00  0.00    -0.062 NA
HETATM    8  C1  UNL     1       5.474 -11.609   2.070  1.00  0.00     0.188 C 
ATOM      9  H3  UNL     1       7.562 -11.944   1.868  1.00  0.00     0.171 HD
HETATM   10  N1  UNL     1       4.384 -12.172   2.470  1.00  0.00    -0.373 N 
HETATM   11  N2  UNL     1       5.451 -10.405   1.319  1.00  0.00    -0.064 NA
ATOM     12  H12 UNL     1       3.487 -11.745   2.242  1.00  0.00     0.158 HD
ATOM     13  H11 UNL     1       4.401 -13.037   3.010  1.00  0.00     0.158 HD
ATOM     14  H5  UNL     1       7.253 -15.052   3.902  1.00  0.00     0.189 HD
ENDBRANCH   1   4
BRANCH   3  15
HETATM   15  C4  UNL     1       7.020 -15.713  -0.232  1.00  0.00     0.064 A 
HETATM   16  C5  UNL     1       6.167 -15.434  -1.277  1.00  0.00     0.107 A 
HETATM   17  N7  UNL     1       6.490 -15.780  -2.557  1.00  0.00    -0.361 N 
HETATM   18  C6  UNL     1       7.649 -16.404  -2.834  1.00  0.00     0.183 A 
ATOM     19  H7  UNL     1       5.843 -15.563  -3.315  1.00  0.00     0.166 HD
HETATM   20  N8  UNL     1       8.479 -16.675  -1.818  1.00  0.00    -0.319 N 
HETATM   21  C7  UNL     1       8.203 -16.350  -0.531  1.00  0.00     0.259 A 
ATOM     22  H8  UNL     1       9.359 -17.148  -2.021  1.00  0.00     0.169 HD
HETATM   23  O1  UNL     1       8.995 -16.612   0.409  1.00  0.00    -0.267 OA
ENDBRANCH   3  15
TORSDOF 2
ENDMDL
MODEL 4
REMARK VINA RESULT: -6.517295282      1.794      2.953
REMARK  2 active torsions:
REMARK  status: ('A' for Active; 'I' for Inactive)
REMARK       I    between atoms: C1_4  and  N3_6 
REMARK       I    between atoms: N3_6  and  C2_8 
REMARK    1  A    between atoms: N5_10  and  N6_12 
REMARK    2  A    between atoms: C3_14  and  C4_15 
ROOT
HETATM    1  N6  UNL     1       7.192 -14.099   3.752  1.00  0.00    -0.308 N 
ATOM      2  H6  UNL     1       8.140 -13.986   3.395  1.00  0.00     0.186 HD
HETATM    3  C3  UNL     1       6.470 -15.102   3.381  1.00  0.00     0.125 C 
ENDROOT
BRANCH   1   4
HETATM    4  N5  UNL     1       6.659 -13.175   4.646  1.00  0.00    -0.274 N 
HETATM    5  C2  UNL     1       6.633 -11.934   4.322  1.00  0.00     0.209 C 
HETATM    6  N3  UNL     1       7.147 -11.533   3.066  1.00  0.00    -0.304 N 
HETATM    7  N4  UNL     1       6.103 -10.953   5.196  1.00  0.00    -0.062 NA
HETATM    8  C1  UNL     1       6.291 -10.897   2.128  1.00  0.00     0.188 C 
ATOM      9  H3  UNL     1       8.127 -11.699   2.836  1.00  0.00     0.171 HD
HETATM   10  N1  UNL     1       5.013 -10.999   2.266  1.00  0.00    -0.373 N 
HETATM   11  N2  UNL     1       6.862 -10.162   1.057  1.00  0.00    -0.064 NA
ATOM     12  H12 UNL     1       4.398 -10.542   1.592  1.00  0.00     0.158 HD
ATOM     13  H11 UNL     1       4.602 -11.527   3.036  1.00  0.00     0.158 HD
ATOM     14  H5  UNL     1       6.293 -13.481   5.548  1.00  0.00     0.189 HD
ENDBRANCH   1   4
BRANCH   3  15
HETATM   15  C4  UNL     1       6.992 -16.087   2.451  1.00  0.00     0.064 A 
HETATM   16  C5  UNL     1       7.379 -17.343   2.862  1.00  0.00     0.107 A 
HETATM   17  N7  UNL     1       7.866 -18.254   1.970  1.00  0.00    -0.361 N 
HETATM   18  C6  UNL     1       7.982 -17.950   0.664  1.00  0.00     0.183 A 
ATOM     19  H7  UNL     1       8.146 -19.178   2.297  1.00  0.00     0.166 HD
HETATM   20  N8  UNL     1       7.605 -16.728   0.264  1.00  0.00    -0.319 N 
HETATM   21  C7  UNL     1       7.114 -15.791   1.112  1.00  0.00     0.259 A 
ATOM     22  H8  UNL     1       7.691 -16.492  -0.724  1.00  0.00     0.169 HD
HETATM   23  O1  UNL     1       6.766 -14.650   0.717  1.00  0.00    -0.267 OA
ENDBRANCH   3  15
TORSDOF 2
ENDMDL
MODEL 5
REMARK VINA RESULT: -6.484042566      1.845      2.914
REMARK  2 active torsions:
REMARK  status: ('A' for Active; 'I' for Inactive)
REMARK       I    between atoms: C1_4  and  N3_6 
REMARK       I    between atoms: N3_6  and  C2_8 
REMARK    1  A    between atoms: N5_10  and  N6_12 
REMARK    2  A    between atoms: C3_14  and  C4_15 
ROOT
HETATM    1  N6  UNL     1       7.168 -14.213   3.659  1.00  0.00    -0.308 N 
ATOM      2  H6  UNL     1       8.177 -14.363   3.637  1.00  0.00     0.186 HD
HETATM    3  C3  UNL     1       6.399 -14.827   2.825  1.00  0.00     0.125 C 
ENDROOT
BRANCH   1   4
HETATM    4  N5  UNL     1       6.604 -13.344   4.588  1.00  0.00    -0.274 N 
HETATM    5  C2  UNL     1       6.584 -12.086   4.337  1.00  0.00     0.209 C 
HETATM    6  N3  UNL     1       7.134 -11.611   3.124  1.00  0.00    -0.304 N 
HETATM    7  N4  UNL     1       6.022 -11.160   5.249  1.00  0.00    -0.062 NA
HETATM    8  C1  UNL     1       6.306 -10.923   2.198  1.00  0.00     0.188 C 
ATOM      9  H3  UNL     1       8.122 -11.761   2.915  1.00  0.00     0.171 HD
HETATM   10  N1  UNL     1       5.024 -11.035   2.289  1.00  0.00    -0.373 N 
HETATM   11  N2  UNL     1       6.907 -10.125   1.190  1.00  0.00    -0.064 NA
ATOM     12  H12 UNL     1       4.430 -10.542   1.624  1.00  0.00     0.158 HD
ATOM     13  H11 UNL     1       4.592 -11.609   3.013  1.00  0.00     0.158 HD
ATOM     14  H5  UNL     1       6.211 -13.704   5.458  1.00  0.00     0.189 HD
ENDBRANCH   1   4
BRANCH   3  15
HETATM   15  C4  UNL     1       6.951 -15.742   1.842  1.00  0.00     0.064 A 
HETATM   16  C5  UNL     1       6.958 -15.447   0.496  1.00  0.00     0.107 A 
HETATM   17  N7  UNL     1       7.483 -16.321  -0.410  1.00  0.00    -0.361 N 
HETATM   18  C6  UNL     1       8.009 -17.495  -0.016  1.00  0.00     0.183 A 
ATOM     19  H7  UNL     1       7.478 -16.081  -1.402  1.00  0.00     0.166 HD
HETATM   20  N8  UNL     1       8.002 -17.782   1.293  1.00  0.00    -0.319 N 
HETATM   21  C7  UNL     1       7.493 -16.946   2.230  1.00  0.00     0.259 A 
ATOM     22  H8  UNL     1       8.399 -18.671   1.598  1.00  0.00     0.169 HD
HETATM   23  O1  UNL     1       7.497 -17.233   3.454  1.00  0.00    -0.267 OA
ENDBRANCH   3  15
TORSDOF 2
ENDMDL
