MODEL 1
REMARK VINA RESULT: -6.937182223      0.000      0.000
REMARK  3 active torsions:
REMARK  status: ('A' for Active; 'I' for Inactive)
REMARK    1  A    between atoms: N1_1  and  C1_4 
REMARK    2  A    between atoms: N3_9  and  C3_10 
REMARK    3  A    between atoms: N6_20  and  C8_22 
ROOT
HETATM    1  C1  UNL     1       6.141 -11.661   3.312  1.00  0.00     0.149 A 
HETATM    2  N2  UNL     1       5.414 -12.134   2.288  1.00  0.00    -0.290 N 
ATOM      3  H2  UNL     1       4.856 -11.497   1.719  1.00  0.00     0.172 HD
HETATM    4  C2  UNL     1       5.423 -13.445   2.015  1.00  0.00     0.343 A 
HETATM    5  O1  UNL     1       4.722 -13.887   1.032  1.00  0.00    -0.245 OA
HETATM    6  N3  UNL     1       6.153 -14.292   2.755  1.00  0.00    -0.234 N 
HETATM    7  N5  UNL     1       6.862 -13.806   3.758  1.00  0.00    -0.276 N 
ATOM      8  H5  UNL     1       7.415 -14.459   4.314  1.00  0.00     0.189 HD
HETATM    9  C7  UNL     1       6.901 -12.506   4.090  1.00  0.00     0.167 A 
HETATM   10  N6  UNL     1       7.621 -12.122   5.085  1.00  0.00    -0.316 N 
ATOM     11  H6  UNL     1       8.149 -12.827   5.599  1.00  0.00     0.170 HD
ENDROOT
BRANCH   6  12
HETATM   12  C3  UNL     1       6.190 -15.694   2.498  1.00  0.00     0.140 C 
HETATM   13  C4  UNL     1       6.411 -16.536   3.726  1.00  0.00     0.056 C 
HETATM   14  C5  UNL     1       7.634 -17.345   3.411  1.00  0.00     0.234 C 
HETATM   15  N4  UNL     1       8.222 -16.829   2.219  1.00  0.00    -0.073 N 
HETATM   16  C6  UNL     1       7.257 -16.074   1.496  1.00  0.00     0.259 C 
ATOM     17  H42 UNL     1       9.067 -16.291   2.410  1.00  0.00     0.277 HD
ATOM     18  H41 UNL     1       8.640 -17.564   1.649  1.00  0.00     0.277 HD
ENDBRANCH   6  12
BRANCH   1  19
HETATM   19  N1  UNL     1       6.163 -10.396   3.614  1.00  0.00    -0.382 N 
ATOM     20  H12 UNL     1       6.089  -9.732   2.843  1.00  0.00     0.157 HD
ATOM     21  H11 UNL     1       6.249 -10.073   4.577  1.00  0.00     0.157 HD
ENDBRANCH   1  19
BRANCH  10  22
HETATM   22  C8  UNL     1       7.718 -10.783   5.498  1.00  0.00     0.354 C 
HETATM   23  O2  UNL     1       7.124 -10.375   6.526  1.00  0.00    -0.283 OA
ENDBRANCH  10  22
TORSDOF 3
ENDMDL
MODEL 2
REMARK VINA RESULT: -6.694289280      1.165      1.240
REMARK  3 active torsions:
REMARK  status: ('A' for Active; 'I' for Inactive)
REMARK    1  A    between atoms: N1_1  and  C1_4 
REMARK    2  A    between atoms: N3_9  and  C3_10 
REMARK    3  A    between atoms: N6_20  and  C8_22 
ROOT
HETATM    1  C1  UNL     1       5.369 -12.200   2.088  1.00  0.00     0.149 A 
HETATM    2  N2  UNL     1       4.800 -12.969   1.148  1.00  0.00    -0.290 N 
ATOM      3  H2  UNL     1       4.173 -12.554   0.458  1.00  0.00     0.172 HD
HETATM    4  C2  UNL     1       5.056 -14.283   1.117  1.00  0.00     0.343 A 
HETATM    5  O1  UNL     1       4.504 -15.010   0.212  1.00  0.00    -0.245 OA
HETATM    6  N3  UNL     1       5.879 -14.840   2.017  1.00  0.00    -0.234 N 
HETATM    7  N5  UNL     1       6.430 -14.065   2.934  1.00  0.00    -0.276 N 
ATOM      8  H5  UNL     1       7.056 -14.499   3.614  1.00  0.00     0.189 HD
HETATM    9  C7  UNL     1       6.219 -12.743   3.026  1.00  0.00     0.167 A 
HETATM   10  N6  UNL     1       6.800 -12.066   3.954  1.00  0.00    -0.316 N 
ATOM     11  H6  UNL     1       7.413 -12.562   4.602  1.00  0.00     0.170 HD
ENDROOT
BRANCH   6  12
HETATM   12  C3  UNL     1       6.178 -16.234   2.020  1.00  0.00     0.140 C 
HETATM   13  C4  UNL     1       6.355 -16.820   3.395  1.00  0.00     0.056 C 
HETATM   14  C5  UNL     1       7.724 -17.430   3.370  1.00  0.00     0.234 C 
HETATM   15  N4  UNL     1       8.386 -17.007   2.180  1.00  0.00    -0.073 N 
HETATM   16  C6  UNL     1       7.425 -16.562   1.229  1.00  0.00     0.259 C 
ATOM     17  H42 UNL     1       9.097 -16.300   2.367  1.00  0.00     0.277 HD
ATOM     18  H41 UNL     1       8.995 -17.732   1.801  1.00  0.00     0.277 HD
ENDBRANCH   6  12
BRANCH   1  19
HETATM   19  N1  UNL     1       5.150 -10.920   2.156  1.00  0.00    -0.382 N 
ATOM     20  H12 UNL     1       4.255 -10.582   1.802  1.00  0.00     0.157 HD
ATOM     21  H11 UNL     1       5.836 -10.275   2.547  1.00  0.00     0.157 HD
ENDBRANCH   1  19
BRANCH  10  22
HETATM   22  C8  UNL     1       6.633 -10.681   4.120  1.00  0.00     0.354 C 
HETATM   23  O2  UNL     1       6.054 -10.212   5.130  1.00  0.00    -0.283 OA
ENDBRANCH  10  22
TORSDOF 3
ENDMDL
MODEL 3
REMARK VINA RESULT: -6.671632054      2.223      3.093
REMARK  3 active torsions:
REMARK  status: ('A' for Active; 'I' for Inactive)
REMARK    1  A    between atoms: N1_1  and  C1_4 
REMARK    2  A    between atoms: N3_9  and  C3_10 
REMARK    3  A    between atoms: N6_20  and  C8_22 
ROOT
HETATM    1  C1  UNL     1       6.910 -13.240   3.816  1.00  0.00     0.149 A 
HETATM    2  N2  UNL     1       6.837 -14.555   4.072  1.00  0.00    -0.290 N 
ATOM      3  H2  UNL     1       6.907 -14.894   5.032  1.00  0.00     0.172 HD
HETATM    4  C2  UNL     1       6.674 -15.422   3.065  1.00  0.00     0.343 A 
HETATM    5  O1  UNL     1       6.606 -16.680   3.322  1.00  0.00    -0.245 OA
HETATM    6  N3  UNL     1       6.581 -14.989   1.799  1.00  0.00    -0.234 N 
HETATM    7  N5  UNL     1       6.654 -13.691   1.568  1.00  0.00    -0.276 N 
ATOM      8  H5  UNL     1       6.581 -13.371   0.601  1.00  0.00     0.189 HD
HETATM    9  C7  UNL     1       6.818 -12.766   2.526  1.00  0.00     0.167 A 
HETATM   10  N6  UNL     1       6.879 -11.520   2.208  1.00  0.00    -0.316 N 
ATOM     11  H6  UNL     1       6.799 -11.269   1.223  1.00  0.00     0.170 HD
ENDROOT
BRANCH   6  12
HETATM   12  C3  UNL     1       6.406 -15.878   0.698  1.00  0.00     0.140 C 
HETATM   13  C4  UNL     1       7.669 -16.150  -0.076  1.00  0.00     0.056 C 
HETATM   14  C5  UNL     1       7.338 -15.757  -1.484  1.00  0.00     0.234 C 
HETATM   15  N4  UNL     1       6.088 -15.072  -1.481  1.00  0.00    -0.073 N 
HETATM   16  C6  UNL     1       5.373 -15.383  -0.290  1.00  0.00     0.259 C 
ATOM     17  H42 UNL     1       6.201 -14.067  -1.609  1.00  0.00     0.277 HD
ATOM     18  H41 UNL     1       5.541 -15.267  -2.319  1.00  0.00     0.277 HD
ENDBRANCH   6  12
BRANCH   1  19
HETATM   19  N1  UNL     1       7.069 -12.363   4.762  1.00  0.00    -0.382 N 
ATOM     20  H12 UNL     1       7.458 -12.695   5.645  1.00  0.00     0.157 HD
ATOM     21  H11 UNL     1       6.819 -11.382   4.635  1.00  0.00     0.157 HD
ENDBRANCH   1  19
BRANCH  10  22
HETATM   22  C8  UNL     1       7.049 -10.489   3.148  1.00  0.00     0.354 C 
HETATM   23  O2  UNL     1       6.088  -9.759   3.493  1.00  0.00    -0.283 OA
ENDBRANCH  10  22
TORSDOF 3
ENDMDL
MODEL 4
REMARK VINA RESULT: -6.656803648      2.992      4.160
REMARK  3 active torsions:
REMARK  status: ('A' for Active; 'I' for Inactive)
REMARK    1  A    between atoms: N1_1  and  C1_4 
REMARK    2  A    between atoms: N3_9  and  C3_10 
REMARK    3  A    between atoms: N6_20  and  C8_22 
ROOT
HETATM    1  C1  UNL     1       6.597 -13.763   2.373  1.00  0.00     0.149 A 
HETATM    2  N2  UNL     1       7.167 -14.968   2.527  1.00  0.00    -0.290 N 
ATOM      3  H2  UNL     1       7.456 -15.283   3.453  1.00  0.00     0.172 HD
HETATM    4  C2  UNL     1       7.357 -15.756   1.461  1.00  0.00     0.343 A 
HETATM    5  O1  UNL     1       7.906 -16.908   1.620  1.00  0.00    -0.245 OA
HETATM    6  N3  UNL     1       6.982 -15.354   0.238  1.00  0.00    -0.234 N 
HETATM    7  N5  UNL     1       6.421 -14.165   0.108  1.00  0.00    -0.276 N 
ATOM      8  H5  UNL     1       6.138 -13.868  -0.827  1.00  0.00     0.189 HD
HETATM    9  C7  UNL     1       6.201 -13.323   1.130  1.00  0.00     0.167 A 
HETATM   10  N6  UNL     1       5.648 -12.182   0.909  1.00  0.00    -0.316 N 
ATOM     11  H6  UNL     1       5.389 -11.947  -0.049  1.00  0.00     0.170 HD
ENDROOT
BRANCH   6  12
HETATM   12  C3  UNL     1       7.166 -16.161  -0.923  1.00  0.00     0.140 C 
HETATM   13  C4  UNL     1       8.586 -16.204  -1.420  1.00  0.00     0.056 C 
HETATM   14  C5  UNL     1       8.499 -15.739  -2.843  1.00  0.00     0.234 C 
HETATM   15  N4  UNL     1       7.191 -15.221  -3.070  1.00  0.00    -0.073 N 
HETATM   16  C6  UNL     1       6.299 -15.721  -2.081  1.00  0.00     0.259 C 
ATOM     17  H42 UNL     1       7.184 -14.202  -3.115  1.00  0.00     0.277 HD
ATOM     18  H41 UNL     1       6.861 -15.413  -4.017  1.00  0.00     0.277 HD
ENDBRANCH   6  12
BRANCH   1  19
HETATM   19  N1  UNL     1       6.393 -12.965   3.379  1.00  0.00    -0.382 N 
ATOM     20  H12 UNL     1       6.648 -13.309   4.305  1.00  0.00     0.157 HD
ATOM     21  H11 UNL     1       5.995 -12.034   3.256  1.00  0.00     0.157 HD
ENDBRANCH   1  19
BRANCH  10  22
HETATM   22  C8  UNL     1       5.381 -11.243   1.920  1.00  0.00     0.354 C 
HETATM   23  O2  UNL     1       6.109 -10.233   2.078  1.00  0.00    -0.283 OA
ENDBRANCH  10  22
TORSDOF 3
ENDMDL
MODEL 5
REMARK VINA RESULT: -6.498165566      2.223      5.126
REMARK  3 active torsions:
REMARK  status: ('A' for Active; 'I' for Inactive)
REMARK    1  A    between atoms: N1_1  and  C1_4 
REMARK    2  A    between atoms: N3_9  and  C3_10 
REMARK    3  A    between atoms: N6_20  and  C8_22 
ROOT
HETATM    1  C1  UNL     1       5.642 -14.568   0.598  1.00  0.00     0.149 A 
HETATM    2  N2  UNL     1       4.737 -13.578   0.644  1.00  0.00    -0.290 N 
ATOM      3  H2  UNL     1       3.960 -13.563  -0.018  1.00  0.00     0.172 HD
HETATM    4  C2  UNL     1       4.856 -12.609   1.561  1.00  0.00     0.343 A 
HETATM    5  O1  UNL     1       3.983 -11.665   1.594  1.00  0.00    -0.245 OA
HETATM    6  N3  UNL     1       5.871 -12.617   2.436  1.00  0.00    -0.234 N 
HETATM    7  N5  UNL     1       6.751 -13.600   2.376  1.00  0.00    -0.276 N 
ATOM      8  H5  UNL     1       7.519 -13.598   3.047  1.00  0.00     0.189 HD
HETATM    9  C7  UNL     1       6.695 -14.603   1.485  1.00  0.00     0.167 A 
HETATM   10  N6  UNL     1       7.598 -15.520   1.499  1.00  0.00    -0.316 N 
ATOM     11  H6  UNL     1       8.339 -15.458   2.197  1.00  0.00     0.170 HD
ENDROOT
BRANCH   6  12
HETATM   12  C3  UNL     1       6.034 -11.605   3.428  1.00  0.00     0.140 C 
HETATM   13  C4  UNL     1       6.969 -10.497   3.024  1.00  0.00     0.056 C 
HETATM   14  C5  UNL     1       8.012 -10.475   4.101  1.00  0.00     0.234 C 
HETATM   15  N4  UNL     1       7.847 -11.635   4.914  1.00  0.00    -0.073 N 
HETATM   16  C6  UNL     1       6.534 -12.156   4.744  1.00  0.00     0.259 C 
ATOM     17  H42 UNL     1       8.565 -12.336   4.732  1.00  0.00     0.277 HD
ATOM     18  H41 UNL     1       8.064 -11.451   5.893  1.00  0.00     0.277 HD
ENDBRANCH   6  12
BRANCH   1  19
HETATM   19  N1  UNL     1       5.566 -15.529  -0.274  1.00  0.00    -0.382 N 
ATOM     20  H12 UNL     1       6.341 -15.622  -0.932  1.00  0.00     0.157 HD
ATOM     21  H11 UNL     1       4.772 -16.167  -0.305  1.00  0.00     0.157 HD
ENDBRANCH   1  19
BRANCH  10  22
HETATM   22  C8  UNL     1       7.614 -16.603   0.603  1.00  0.00     0.354 C 
HETATM   23  O2  UNL     1       8.384 -16.616  -0.387  1.00  0.00    -0.283 OA
ENDBRANCH  10  22
TORSDOF 3
ENDMDL
