MODEL 1
REMARK VINA RESULT: -6.792000060      0.000      0.000
REMARK  5 active torsions:
REMARK  status: ('A' for Active; 'I' for Inactive)
REMARK    1  A    between atoms: S1_2  and  N1_5 
REMARK    2  A    between atoms: N1_5  and  C2_7 
REMARK    3  A    between atoms: C3_10  and  N3_11 
REMARK    4  A    between atoms: C4_16  and  N5_17 
REMARK    5  A    between atoms: N5_17  and  N6_19 
ROOT
HETATM    1  C2  UNL     1       6.760 -13.148   3.905  1.00  0.00     0.720 A 
HETATM    2  N2  UNL     1       7.270 -12.391   4.895  1.00  0.00    -0.021 N 
ATOM      3  H2  UNL     1       7.802 -12.826   5.648  1.00  0.00     0.203 HD
HETATM    4  C3  UNL     1       7.075 -11.061   4.887  1.00  0.00     0.705 A 
HETATM    5  N4  UNL     1       6.372 -10.508   3.889  1.00  0.00    -0.020 N 
ATOM      6  H4  UNL     1       6.230  -9.497   3.896  1.00  0.00     0.203 HD
HETATM    7  C4  UNL     1       5.843 -11.224   2.879  1.00  0.00     0.725 A 
HETATM    8  N7  UNL     1       6.060 -12.566   2.918  1.00  0.00    -0.019 N 
ATOM      9  H7  UNL     1       5.679 -13.149   2.173  1.00  0.00     0.203 HD
ENDROOT
BRANCH   1  10
HETATM   10  N1  UNL     1       6.926 -14.414   3.881  1.00  0.00    -0.116 N 
ATOM     11  H1  UNL     1       7.362 -14.850   4.693  1.00  0.00     0.197 HD
BRANCH  10  12
HETATM   12  S1  UNL     1       6.471 -15.429   2.583  1.00  0.00     0.240 S 
HETATM   13  C1  UNL     1       6.616 -17.136   3.117  1.00  0.00     0.186 C 
HETATM   14  O1  UNL     1       7.363 -15.195   1.403  1.00  0.00    -0.206 OA
HETATM   15  O2  UNL     1       5.042 -15.197   2.143  1.00  0.00    -0.206 OA
ENDBRANCH  10  12
ENDBRANCH   1  10
BRANCH   4  16
HETATM   16  N3  UNL     1       7.578 -10.348   5.855  1.00  0.00    -0.234 N 
ATOM     17  H32 UNL     1       8.578 -10.339   6.056  1.00  0.00     0.174 HD
ATOM     18  H31 UNL     1       6.950  -9.783   6.427  1.00  0.00     0.174 HD
ENDBRANCH   4  16
BRANCH   7  19
HETATM   19  N5  UNL     1       5.164 -10.700   1.913  1.00  0.00    -0.138 N 
ATOM     20  H5  UNL     1       4.918  -9.710   1.918  1.00  0.00     0.205 HD
BRANCH  19  21
HETATM   21  N6  UNL     1       4.778 -11.535   0.860  1.00  0.00    -0.331 N 
ATOM     22  H62 UNL     1       5.082 -12.508   0.840  1.00  0.00     0.177 HD
ATOM     23  H61 UNL     1       4.191 -11.136   0.127  1.00  0.00     0.177 HD
ENDBRANCH  19  21
ENDBRANCH   7  19
TORSDOF 5
ENDMDL
MODEL 2
REMARK VINA RESULT: -6.759754660      2.852      4.428
REMARK  5 active torsions:
REMARK  status: ('A' for Active; 'I' for Inactive)
REMARK    1  A    between atoms: S1_2  and  N1_5 
REMARK    2  A    between atoms: N1_5  and  C2_7 
REMARK    3  A    between atoms: C3_10  and  N3_11 
REMARK    4  A    between atoms: C4_16  and  N5_17 
REMARK    5  A    between atoms: N5_17  and  N6_19 
ROOT
HETATM    1  C2  UNL     1       6.703 -13.256   3.888  1.00  0.00     0.720 A 
HETATM    2  N2  UNL     1       6.884 -14.588   3.851  1.00  0.00    -0.021 N 
ATOM      3  H2  UNL     1       7.389 -15.056   4.603  1.00  0.00     0.203 HD
HETATM    4  C3  UNL     1       6.399 -15.302   2.820  1.00  0.00     0.705 A 
HETATM    5  N4  UNL     1       5.740 -14.669   1.839  1.00  0.00    -0.020 N 
ATOM      6  H4  UNL     1       5.377 -15.222   1.062  1.00  0.00     0.203 HD
HETATM    7  C4  UNL     1       5.533 -13.338   1.833  1.00  0.00     0.725 A 
HETATM    8  N7  UNL     1       6.037 -12.649   2.891  1.00  0.00    -0.019 N 
ATOM      9  H7  UNL     1       5.905 -11.638   2.929  1.00  0.00     0.203 HD
ENDROOT
BRANCH   1  10
HETATM   10  N1  UNL     1       7.150 -12.548   4.852  1.00  0.00    -0.116 N 
ATOM     11  H1  UNL     1       7.444 -13.033   5.699  1.00  0.00     0.197 HD
BRANCH  10  12
HETATM   12  S1  UNL     1       7.289 -10.844   4.824  1.00  0.00     0.240 S 
HETATM   13  C1  UNL     1       7.682 -10.278   6.481  1.00  0.00     0.186 C 
HETATM   14  O1  UNL     1       6.001 -10.226   4.374  1.00  0.00    -0.206 OA
HETATM   15  O2  UNL     1       8.385 -10.370   3.896  1.00  0.00    -0.206 OA
ENDBRANCH  10  12
ENDBRANCH   1  10
BRANCH   4  16
HETATM   16  N3  UNL     1       6.587 -16.591   2.806  1.00  0.00    -0.234 N 
ATOM     17  H32 UNL     1       7.375 -17.027   3.282  1.00  0.00     0.174 HD
ATOM     18  H31 UNL     1       5.922 -17.179   2.302  1.00  0.00     0.174 HD
ENDBRANCH   4  16
BRANCH   7  19
HETATM   19  N5  UNL     1       4.899 -12.720   0.893  1.00  0.00    -0.138 N 
ATOM     20  H5  UNL     1       4.391 -13.234   0.173  1.00  0.00     0.205 HD
BRANCH  19  21
HETATM   21  N6  UNL     1       4.931 -11.322   0.895  1.00  0.00    -0.331 N 
ATOM     22  H62 UNL     1       5.202 -10.818   1.738  1.00  0.00     0.177 HD
ATOM     23  H61 UNL     1       4.676 -10.839   0.033  1.00  0.00     0.177 HD
ENDBRANCH  19  21
ENDBRANCH   7  19
TORSDOF 5
ENDMDL
MODEL 3
REMARK VINA RESULT: -6.576278824      0.981      1.150
REMARK  5 active torsions:
REMARK  status: ('A' for Active; 'I' for Inactive)
REMARK    1  A    between atoms: S1_2  and  N1_5 
REMARK    2  A    between atoms: N1_5  and  C2_7 
REMARK    3  A    between atoms: C3_10  and  N3_11 
REMARK    4  A    between atoms: C4_16  and  N5_17 
REMARK    5  A    between atoms: N5_17  and  N6_19 
ROOT
HETATM    1  C2  UNL     1       6.743 -13.233   3.829  1.00  0.00     0.720 A 
HETATM    2  N2  UNL     1       7.281 -12.477   4.803  1.00  0.00    -0.021 N 
ATOM      3  H2  UNL     1       7.843 -12.911   5.536  1.00  0.00     0.203 HD
HETATM    4  C3  UNL     1       7.075 -11.149   4.810  1.00  0.00     0.705 A 
HETATM    5  N4  UNL     1       6.332 -10.596   3.841  1.00  0.00    -0.020 N 
ATOM      6  H4  UNL     1       6.182  -9.587   3.858  1.00  0.00     0.203 HD
HETATM    7  C4  UNL     1       5.774 -11.312   2.845  1.00  0.00     0.725 A 
HETATM    8  N7  UNL     1       6.003 -12.652   2.869  1.00  0.00    -0.019 N 
ATOM      9  H7  UNL     1       5.601 -13.235   2.135  1.00  0.00     0.203 HD
ENDROOT
BRANCH   1  10
HETATM   10  N1  UNL     1       6.919 -14.497   3.792  1.00  0.00    -0.116 N 
ATOM     11  H1  UNL     1       7.493 -14.917   4.523  1.00  0.00     0.197 HD
BRANCH  10  12
HETATM   12  S1  UNL     1       6.262 -15.536   2.603  1.00  0.00     0.240 S 
HETATM   13  C1  UNL     1       7.383 -15.581   1.203  1.00  0.00     0.186 C 
HETATM   14  O1  UNL     1       4.923 -15.035   2.159  1.00  0.00    -0.206 OA
HETATM   15  O2  UNL     1       6.088 -16.952   3.108  1.00  0.00    -0.206 OA
ENDBRANCH  10  12
ENDBRANCH   1  10
BRANCH   4  16
HETATM   16  N3  UNL     1       7.605 -10.436   5.764  1.00  0.00    -0.234 N 
ATOM     17  H32 UNL     1       8.342 -10.803   6.365  1.00  0.00     0.174 HD
ATOM     18  H31 UNL     1       7.271  -9.483   5.909  1.00  0.00     0.174 HD
ENDBRANCH   4  16
BRANCH   7  19
HETATM   19  N5  UNL     1       5.057 -10.789   1.906  1.00  0.00    -0.138 N 
ATOM     20  H5  UNL     1       4.748  -9.818   1.958  1.00  0.00     0.205 HD
BRANCH  19  21
HETATM   21  N6  UNL     1       4.719 -11.598   0.818  1.00  0.00    -0.331 N 
ATOM     22  H62 UNL     1       5.287 -12.413   0.589  1.00  0.00     0.177 HD
ATOM     23  H61 UNL     1       3.895 -11.343   0.273  1.00  0.00     0.177 HD
ENDBRANCH  19  21
ENDBRANCH   7  19
TORSDOF 5
ENDMDL
MODEL 4
REMARK VINA RESULT: -6.512148627      1.093      2.755
REMARK  5 active torsions:
REMARK  status: ('A' for Active; 'I' for Inactive)
REMARK    1  A    between atoms: S1_2  and  N1_5 
REMARK    2  A    between atoms: N1_5  and  C2_7 
REMARK    3  A    between atoms: C3_10  and  N3_11 
REMARK    4  A    between atoms: C4_16  and  N5_17 
REMARK    5  A    between atoms: N5_17  and  N6_19 
ROOT
HETATM    1  C2  UNL     1       6.971 -13.099   3.705  1.00  0.00     0.720 A 
HETATM    2  N2  UNL     1       7.104 -12.469   2.523  1.00  0.00    -0.021 N 
ATOM      3  H2  UNL     1       7.199 -13.009   1.663  1.00  0.00     0.203 HD
HETATM    4  C3  UNL     1       7.114 -11.126   2.479  1.00  0.00     0.705 A 
HETATM    5  N4  UNL     1       6.991 -10.432   3.620  1.00  0.00    -0.020 N 
ATOM      6  H4  UNL     1       7.001  -9.413   3.573  1.00  0.00     0.203 HD
HETATM    7  C4  UNL     1       6.855 -11.018   4.825  1.00  0.00     0.725 A 
HETATM    8  N7  UNL     1       6.848 -12.378   4.832  1.00  0.00    -0.019 N 
ATOM      9  H7  UNL     1       6.747 -12.867   5.722  1.00  0.00     0.203 HD
ENDROOT
BRANCH   1  10
HETATM   10  N1  UNL     1       6.957 -14.374   3.783  1.00  0.00    -0.116 N 
ATOM     11  H1  UNL     1       7.280 -14.798   4.652  1.00  0.00     0.197 HD
BRANCH  10  12
HETATM   12  S1  UNL     1       6.437 -15.419   2.534  1.00  0.00     0.240 S 
HETATM   13  C1  UNL     1       6.338 -17.086   3.191  1.00  0.00     0.186 C 
HETATM   14  O1  UNL     1       7.405 -15.386   1.392  1.00  0.00    -0.206 OA
HETATM   15  O2  UNL     1       5.071 -15.045   2.001  1.00  0.00    -0.206 OA
ENDBRANCH  10  12
ENDBRANCH   1  10
BRANCH   4  16
HETATM   16  N3  UNL     1       7.244 -10.536   1.324  1.00  0.00    -0.234 N 
ATOM     17  H32 UNL     1       8.132 -10.521   0.823  1.00  0.00     0.174 HD
ATOM     18  H31 UNL     1       6.432 -10.078   0.912  1.00  0.00     0.174 HD
ENDBRANCH   4  16
BRANCH   7  19
HETATM   19  N5  UNL     1       6.735 -10.359   5.929  1.00  0.00    -0.138 N 
ATOM     20  H5  UNL     1       5.826 -10.018   6.243  1.00  0.00     0.205 HD
BRANCH  19  21
HETATM   21  N6  UNL     1       7.891 -10.130   6.680  1.00  0.00    -0.331 N 
ATOM     22  H62 UNL     1       8.756 -10.621   6.452  1.00  0.00     0.177 HD
ATOM     23  H61 UNL     1       7.834  -9.465   7.451  1.00  0.00     0.177 HD
ENDBRANCH  19  21
ENDBRANCH   7  19
TORSDOF 5
ENDMDL
MODEL 5
REMARK VINA RESULT: -6.467863663      0.974      2.947
REMARK  5 active torsions:
REMARK  status: ('A' for Active; 'I' for Inactive)
REMARK    1  A    between atoms: S1_2  and  N1_5 
REMARK    2  A    between atoms: N1_5  and  C2_7 
REMARK    3  A    between atoms: C3_10  and  N3_11 
REMARK    4  A    between atoms: C4_16  and  N5_17 
REMARK    5  A    between atoms: N5_17  and  N6_19 
ROOT
HETATM    1  C2  UNL     1       6.779 -13.252   3.661  1.00  0.00     0.720 A 
HETATM    2  N2  UNL     1       6.390 -12.730   2.483  1.00  0.00    -0.021 N 
ATOM      3  H2  UNL     1       6.334 -13.322   1.655  1.00  0.00     0.203 HD
HETATM    4  C3  UNL     1       6.075 -11.426   2.401  1.00  0.00     0.705 A 
HETATM    5  N4  UNL     1       6.155 -10.662   3.500  1.00  0.00    -0.020 N 
ATOM      6  H4  UNL     1       5.914  -9.674   3.424  1.00  0.00     0.203 HD
HETATM    7  C4  UNL     1       6.539 -11.140   4.700  1.00  0.00     0.725 A 
HETATM    8  N7  UNL     1       6.849 -12.463   4.746  1.00  0.00    -0.019 N 
ATOM      9  H7  UNL     1       7.145 -12.870   5.634  1.00  0.00     0.203 HD
ENDROOT
BRANCH   1  10
HETATM   10  N1  UNL     1       7.085 -14.487   3.775  1.00  0.00    -0.116 N 
ATOM     11  H1  UNL     1       7.851 -14.729   4.403  1.00  0.00     0.197 HD
BRANCH  10  12
HETATM   12  S1  UNL     1       6.302 -15.762   2.949  1.00  0.00     0.240 S 
HETATM   13  C1  UNL     1       7.462 -16.486   1.787  1.00  0.00     0.186 C 
HETATM   14  O1  UNL     1       5.106 -15.246   2.210  1.00  0.00    -0.206 OA
HETATM   15  O2  UNL     1       5.837 -16.856   3.886  1.00  0.00    -0.206 OA
ENDBRANCH  10  12
ENDBRANCH   1  10
BRANCH   4  16
HETATM   16  N3  UNL     1       5.700 -10.942   1.251  1.00  0.00    -0.234 N 
ATOM     17  H32 UNL     1       4.742 -10.639   1.079  1.00  0.00     0.174 HD
ATOM     18  H31 UNL     1       6.389 -10.864   0.502  1.00  0.00     0.174 HD
ENDBRANCH   4  16
BRANCH   7  19
HETATM   19  N5  UNL     1       6.619 -10.413   5.764  1.00  0.00    -0.138 N 
ATOM     20  H5  UNL     1       5.829  -9.848   6.077  1.00  0.00     0.205 HD
BRANCH  19  21
HETATM   21  N6  UNL     1       7.824 -10.426   6.473  1.00  0.00    -0.331 N 
ATOM     22  H62 UNL     1       8.312 -11.306   6.637  1.00  0.00     0.177 HD
ATOM     23  H61 UNL     1       8.185  -9.534   6.813  1.00  0.00     0.177 HD
ENDBRANCH  19  21
ENDBRANCH   7  19
TORSDOF 5
ENDMDL
