MODEL 1
REMARK VINA RESULT: -8.387305864      0.000      0.000
REMARK  9 active torsions:
REMARK  status: ('A' for Active; 'I' for Inactive)
REMARK    1  A    between atoms: C2_2  and  O1_3 
REMARK    2  A    between atoms: O1_3  and  C3_4 
REMARK    3  A    between atoms: C3_4  and  C4_6 
REMARK    4  A    between atoms: N2_12  and  C8_13 
REMARK    5  A    between atoms: C8_13  and  C9_14 
REMARK    6  A    between atoms: C8_13  and  C16_21 
REMARK    7  A    between atoms: C9_14  and  C10_15 
REMARK    8  A    between atoms: N6_28  and  C17_29 
REMARK    9  A    between atoms: C17_29  and  C18_30 
ROOT
HETATM    1  C8  UNL     1      25.652  27.849  25.498  1.00  0.00     0.059 C 
ENDROOT
BRANCH   1   2
HETATM    2  N2  UNL     1      26.399  27.750  24.296  1.00  0.00    -0.343 N 
HETATM    3  C4  UNL     1      27.576  27.068  24.111  1.00  0.00     0.105 C 
HETATM    4  C5  UNL     1      28.857  27.900  24.378  1.00  0.00     0.178 C 
HETATM    5  N1  UNL     1      28.830  29.061  23.558  1.00  0.00    -0.414 N 
HETATM    6  C6  UNL     1      27.611  29.797  23.582  1.00  0.00     0.134 C 
ATOM      7  H1  UNL     1      29.628  29.346  22.991  1.00  0.00     0.153 HD
HETATM    8  C7  UNL     1      26.367  28.995  23.526  1.00  0.00     0.148 C 
BRANCH   3   9
HETATM    9  C3  UNL     1      27.801  25.693  24.443  1.00  0.00     0.307 C 
HETATM   10  O2  UNL     1      28.579  25.188  25.267  1.00  0.00    -0.258 OA
BRANCH   9  11
HETATM   11  O1  UNL     1      27.032  24.719  23.742  1.00  0.00    -0.317 OA
BRANCH  11  12
HETATM   12  C2  UNL     1      27.440  23.368  23.685  1.00  0.00     0.175 C 
HETATM   13  C1  UNL     1      27.743  23.039  22.250  1.00  0.00     0.034 C 
ENDBRANCH  11  12
ENDBRANCH   9  11
ENDBRANCH   3   9
ENDBRANCH   1   2
BRANCH   1  14
HETATM   14  C9  UNL     1      26.397  28.453  26.635  1.00  0.00     0.066 C 
BRANCH  14  15
HETATM   15  C10 UNL     1      26.326  29.925  26.856  1.00  0.00    -0.009 C 
HETATM   16  C11 UNL     1      25.384  30.245  28.032  1.00  0.00     0.005 C 
HETATM   17  C12 UNL     1      25.850  31.520  28.700  1.00  0.00     0.000 C 
HETATM   18  C13 UNL     1      26.339  32.510  27.659  1.00  0.00     0.000 C 
HETATM   19  C14 UNL     1      27.583  32.014  26.969  1.00  0.00     0.000 C 
HETATM   20  C15 UNL     1      27.674  30.522  27.228  1.00  0.00     0.005 C 
ENDBRANCH  14  15
ENDBRANCH   1  14
BRANCH   1  21
HETATM   21  C16 UNL     1      24.735  26.738  25.804  1.00  0.00     0.162 A 
HETATM   22  N3  UNL     1      24.946  25.430  25.461  1.00  0.00    -0.267 N 
HETATM   23  N4  UNL     1      23.956  24.704  25.881  1.00  0.00    -0.226 N 
ATOM     24  H3  UNL     1      25.758  25.080  24.952  1.00  0.00     0.190 HD
HETATM   25  N5  UNL     1      23.072  25.454  26.498  1.00  0.00    -0.224 N 
ATOM     26  H4  UNL     1      23.876  23.696  25.750  1.00  0.00     0.210 HD
HETATM   27  N6  UNL     1      23.563  26.719  26.447  1.00  0.00    -0.253 N 
ATOM     28  H5  UNL     1      22.198  25.149  26.926  1.00  0.00     0.210 HD
BRANCH  27  29
HETATM   29  C17 UNL     1      22.882  27.853  27.036  1.00  0.00     0.198 C 
BRANCH  29  30
HETATM   30  C18 UNL     1      22.344  27.532  28.399  1.00  0.00     0.002 A 
HETATM   31  C19 UNL     1      22.796  27.971  29.608  1.00  0.00     0.017 A 
HETATM   32  C20 UNL     1      22.153  27.548  30.707  1.00  0.00     0.008 A 
HETATM   33  C21 UNL     1      21.089  26.706  30.527  1.00  0.00     0.050 A 
HETATM   34  S1  UNL     1      21.021  26.532  28.835  1.00  0.00    -0.105 SA
ENDBRANCH  29  30
ENDBRANCH  27  29
ENDBRANCH   1  21
TORSDOF 9
ENDMDL
MODEL 2
REMARK VINA RESULT: -7.371671932      4.849      8.366
REMARK  9 active torsions:
REMARK  status: ('A' for Active; 'I' for Inactive)
REMARK    1  A    between atoms: C2_2  and  O1_3 
REMARK    2  A    between atoms: O1_3  and  C3_4 
REMARK    3  A    between atoms: C3_4  and  C4_6 
REMARK    4  A    between atoms: N2_12  and  C8_13 
REMARK    5  A    between atoms: C8_13  and  C9_14 
REMARK    6  A    between atoms: C8_13  and  C16_21 
REMARK    7  A    between atoms: C9_14  and  C10_15 
REMARK    8  A    between atoms: N6_28  and  C17_29 
REMARK    9  A    between atoms: C17_29  and  C18_30 
ROOT
HETATM    1  C8  UNL     1      24.381  21.767  24.624  1.00  0.00     0.059 C 
ENDROOT
BRANCH   1   2
HETATM    2  N2  UNL     1      25.789  21.695  24.782  1.00  0.00    -0.343 N 
HETATM    3  C4  UNL     1      26.740  22.213  23.939  1.00  0.00     0.105 C 
HETATM    4  C5  UNL     1      27.210  21.250  22.819  1.00  0.00     0.178 C 
HETATM    5  N1  UNL     1      27.686  20.050  23.416  1.00  0.00    -0.414 N 
HETATM    6  C6  UNL     1      26.827  19.472  24.394  1.00  0.00     0.134 C 
ATOM      7  H1  UNL     1      28.580  19.632  23.160  1.00  0.00     0.153 HD
HETATM    8  C7  UNL     1      26.212  20.415  25.356  1.00  0.00     0.148 C 
BRANCH   3   9
HETATM    9  C3  UNL     1      26.795  23.569  23.480  1.00  0.00     0.307 C 
HETATM   10  O2  UNL     1      26.991  24.017  22.340  1.00  0.00    -0.258 OA
BRANCH   9  11
HETATM   11  O1  UNL     1      26.596  24.594  24.450  1.00  0.00    -0.317 OA
BRANCH  11  12
HETATM   12  C2  UNL     1      27.594  25.561  24.706  1.00  0.00     0.175 C 
HETATM   13  C1  UNL     1      27.184  26.331  25.931  1.00  0.00     0.034 C 
ENDBRANCH  11  12
ENDBRANCH   9  11
ENDBRANCH   3   9
ENDBRANCH   1   2
BRANCH   1  14
HETATM   14  C9  UNL     1      23.916  21.663  23.215  1.00  0.00     0.066 C 
BRANCH  14  15
HETATM   15  C10 UNL     1      23.255  20.409  22.755  1.00  0.00    -0.009 C 
HETATM   16  C11 UNL     1      24.059  19.771  21.606  1.00  0.00     0.005 C 
HETATM   17  C12 UNL     1      23.863  18.271  21.645  1.00  0.00     0.000 C 
HETATM   18  C13 UNL     1      22.431  17.938  22.020  1.00  0.00     0.000 C 
HETATM   19  C14 UNL     1      22.119  18.358  23.433  1.00  0.00     0.000 C 
HETATM   20  C15 UNL     1      23.184  19.355  23.849  1.00  0.00     0.005 C 
ENDBRANCH  14  15
ENDBRANCH   1  14
BRANCH   1  21
HETATM   21  C16 UNL     1      23.660  22.700  25.507  1.00  0.00     0.162 A 
HETATM   22  N3  UNL     1      23.914  24.041  25.605  1.00  0.00    -0.267 N 
HETATM   23  N4  UNL     1      23.103  24.576  26.465  1.00  0.00    -0.226 N 
ATOM     24  H3  UNL     1      24.632  24.543  25.082  1.00  0.00     0.190 HD
HETATM   25  N5  UNL     1      22.302  23.664  26.964  1.00  0.00    -0.224 N 
ATOM     26  H4  UNL     1      23.090  25.565  26.717  1.00  0.00     0.210 HD
HETATM   27  N6  UNL     1      22.653  22.498  26.363  1.00  0.00    -0.253 N 
ATOM     28  H5  UNL     1      21.568  23.802  27.658  1.00  0.00     0.210 HD
BRANCH  27  29
HETATM   29  C17 UNL     1      21.990  21.240  26.635  1.00  0.00     0.198 C 
BRANCH  29  30
HETATM   30  C18 UNL     1      20.709  21.109  25.864  1.00  0.00     0.002 A 
HETATM   31  C19 UNL     1      20.393  21.658  24.657  1.00  0.00     0.017 A 
HETATM   32  C20 UNL     1      19.175  21.404  24.155  1.00  0.00     0.008 A 
HETATM   33  C21 UNL     1      18.343  20.611  24.897  1.00  0.00     0.050 A 
HETATM   34  S1  UNL     1      19.284  20.246  26.268  1.00  0.00    -0.105 SA
ENDBRANCH  29  30
ENDBRANCH  27  29
ENDBRANCH   1  21
TORSDOF 9
ENDMDL
MODEL 3
REMARK VINA RESULT: -7.104086233      1.620      2.877
REMARK  9 active torsions:
REMARK  status: ('A' for Active; 'I' for Inactive)
REMARK    1  A    between atoms: C2_2  and  O1_3 
REMARK    2  A    between atoms: O1_3  and  C3_4 
REMARK    3  A    between atoms: C3_4  and  C4_6 
REMARK    4  A    between atoms: N2_12  and  C8_13 
REMARK    5  A    between atoms: C8_13  and  C9_14 
REMARK    6  A    between atoms: C8_13  and  C16_21 
REMARK    7  A    between atoms: C9_14  and  C10_15 
REMARK    8  A    between atoms: N6_28  and  C17_29 
REMARK    9  A    between atoms: C17_29  and  C18_30 
ROOT
HETATM    1  C8  UNL     1      26.071  27.531  26.031  1.00  0.00     0.059 C 
ENDROOT
BRANCH   1   2
HETATM    2  N2  UNL     1      27.299  27.165  25.423  1.00  0.00    -0.343 N 
HETATM    3  C4  UNL     1      27.739  27.525  24.173  1.00  0.00     0.105 C 
HETATM    4  C5  UNL     1      27.336  26.550  23.037  1.00  0.00     0.178 C 
HETATM    5  N1  UNL     1      27.803  25.247  23.364  1.00  0.00    -0.414 N 
HETATM    6  C6  UNL     1      27.499  24.802  24.682  1.00  0.00     0.134 C 
ATOM      7  H1  UNL     1      28.319  24.671  22.699  1.00  0.00     0.153 HD
HETATM    8  C7  UNL     1      27.694  25.796  25.764  1.00  0.00     0.148 C 
BRANCH   3   9
HETATM    9  C3  UNL     1      27.813  28.865  23.672  1.00  0.00     0.307 C 
HETATM   10  O2  UNL     1      27.067  29.463  22.881  1.00  0.00    -0.258 OA
BRANCH   9  11
HETATM   11  O1  UNL     1      28.895  29.672  24.128  1.00  0.00    -0.317 OA
BRANCH  11  12
HETATM   12  C2  UNL     1      29.988  29.106  24.822  1.00  0.00     0.175 C 
HETATM   13  C1  UNL     1      30.697  30.217  25.547  1.00  0.00     0.034 C 
ENDBRANCH  11  12
ENDBRANCH   9  11
ENDBRANCH   3   9
ENDBRANCH   1   2
BRANCH   1  14
HETATM   14  C9  UNL     1      26.217  28.365  27.254  1.00  0.00     0.066 C 
BRANCH  14  15
HETATM   15  C10 UNL     1      26.224  29.850  27.130  1.00  0.00    -0.009 C 
HETATM   16  C11 UNL     1      25.301  30.480  28.190  1.00  0.00     0.005 C 
HETATM   17  C12 UNL     1      25.835  31.849  28.552  1.00  0.00     0.000 C 
HETATM   18  C13 UNL     1      26.374  32.546  27.317  1.00  0.00     0.000 C 
HETATM   19  C14 UNL     1      27.590  31.841  26.773  1.00  0.00     0.000 C 
HETATM   20  C15 UNL     1      27.603  30.446  27.369  1.00  0.00     0.005 C 
ENDBRANCH  14  15
ENDBRANCH   1  14
BRANCH   1  21
HETATM   21  C16 UNL     1      24.999  26.521  26.026  1.00  0.00     0.162 A 
HETATM   22  N3  UNL     1      25.113  25.260  25.508  1.00  0.00    -0.267 N 
HETATM   23  N4  UNL     1      23.994  24.622  25.666  1.00  0.00    -0.226 N 
ATOM     24  H3  UNL     1      25.949  24.880  25.066  1.00  0.00     0.190 HD
HETATM   25  N5  UNL     1      23.114  25.388  26.269  1.00  0.00    -0.224 N 
ATOM     26  H4  UNL     1      23.823  23.662  25.366  1.00  0.00     0.210 HD
HETATM   27  N6  UNL     1      23.746  26.569  26.491  1.00  0.00    -0.253 N 
ATOM     28  H5  UNL     1      22.156  25.145  26.519  1.00  0.00     0.210 HD
BRANCH  27  29
HETATM   29  C17 UNL     1      23.113  27.689  27.155  1.00  0.00     0.198 C 
BRANCH  29  30
HETATM   30  C18 UNL     1      22.619  27.317  28.522  1.00  0.00     0.002 A 
HETATM   31  C19 UNL     1      22.632  28.074  29.656  1.00  0.00     0.017 A 
HETATM   32  C20 UNL     1      22.134  27.529  30.777  1.00  0.00     0.008 A 
HETATM   33  C21 UNL     1      21.649  26.252  30.692  1.00  0.00     0.050 A 
HETATM   34  S1  UNL     1      21.905  25.853  29.056  1.00  0.00    -0.105 SA
ENDBRANCH  29  30
ENDBRANCH  27  29
ENDBRANCH   1  21
TORSDOF 9
ENDMDL
MODEL 4
REMARK VINA RESULT: -7.034359342      2.760      6.258
REMARK  9 active torsions:
REMARK  status: ('A' for Active; 'I' for Inactive)
REMARK    1  A    between atoms: C2_2  and  O1_3 
REMARK    2  A    between atoms: O1_3  and  C3_4 
REMARK    3  A    between atoms: C3_4  and  C4_6 
REMARK    4  A    between atoms: N2_12  and  C8_13 
REMARK    5  A    between atoms: C8_13  and  C9_14 
REMARK    6  A    between atoms: C8_13  and  C16_21 
REMARK    7  A    between atoms: C9_14  and  C10_15 
REMARK    8  A    between atoms: N6_28  and  C17_29 
REMARK    9  A    between atoms: C17_29  and  C18_30 
ROOT
HETATM    1  C8  UNL     1      25.248  26.526  25.049  1.00  0.00     0.059 C 
ENDROOT
BRANCH   1   2
HETATM    2  N2  UNL     1      26.526  26.856  25.570  1.00  0.00    -0.343 N 
HETATM    3  C4  UNL     1      27.312  27.922  25.211  1.00  0.00     0.105 C 
HETATM    4  C5  UNL     1      28.294  27.642  24.044  1.00  0.00     0.178 C 
HETATM    5  N1  UNL     1      29.108  26.527  24.387  1.00  0.00    -0.414 N 
HETATM    6  C6  UNL     1      28.408  25.389  24.880  1.00  0.00     0.134 C 
ATOM      7  H1  UNL     1      30.122  26.543  24.288  1.00  0.00     0.153 HD
HETATM    8  C7  UNL     1      27.327  25.663  25.855  1.00  0.00     0.148 C 
BRANCH   3   9
HETATM    9  C3  UNL     1      26.894  29.293  25.187  1.00  0.00     0.307 C 
HETATM   10  O2  UNL     1      26.327  29.938  24.292  1.00  0.00    -0.258 OA
BRANCH   9  11
HETATM   11  O1  UNL     1      27.150  30.072  26.352  1.00  0.00    -0.317 OA
BRANCH  11  12
HETATM   12  C2  UNL     1      28.389  30.723  26.540  1.00  0.00     0.175 C 
HETATM   13  C1  UNL     1      28.218  32.161  26.135  1.00  0.00     0.034 C 
ENDBRANCH  11  12
ENDBRANCH   9  11
ENDBRANCH   3   9
ENDBRANCH   1   2
BRANCH   1  14
HETATM   14  C9  UNL     1      24.138  27.369  25.569  1.00  0.00     0.066 C 
BRANCH  14  15
HETATM   15  C10 UNL     1      23.774  27.290  27.011  1.00  0.00    -0.009 C 
HETATM   16  C11 UNL     1      24.181  28.585  27.738  1.00  0.00     0.005 C 
HETATM   17  C12 UNL     1      23.230  28.819  28.892  1.00  0.00     0.000 C 
HETATM   18  C13 UNL     1      22.876  27.502  29.555  1.00  0.00     0.000 C 
HETATM   19  C14 UNL     1      22.079  26.616  28.633  1.00  0.00     0.000 C 
HETATM   20  C15 UNL     1      22.275  27.145  27.225  1.00  0.00     0.005 C 
ENDBRANCH  14  15
ENDBRANCH   1  14
BRANCH   1  21
HETATM   21  C16 UNL     1      24.967  25.097  24.831  1.00  0.00     0.162 A 
HETATM   22  N3  UNL     1      24.153  24.329  25.617  1.00  0.00    -0.267 N 
HETATM   23  N4  UNL     1      24.114  23.118  25.153  1.00  0.00    -0.226 N 
ATOM     24  H3  UNL     1      23.654  24.659  26.443  1.00  0.00     0.190 HD
HETATM   25  N5  UNL     1      24.866  23.018  24.081  1.00  0.00    -0.224 N 
ATOM     26  H4  UNL     1      23.576  22.354  25.562  1.00  0.00     0.210 HD
HETATM   27  N6  UNL     1      25.394  24.253  23.885  1.00  0.00    -0.253 N 
ATOM     28  H5  UNL     1      25.020  22.185  23.513  1.00  0.00     0.210 HD
BRANCH  27  29
HETATM   29  C17 UNL     1      26.279  24.566  22.783  1.00  0.00     0.198 C 
BRANCH  29  30
HETATM   30  C18 UNL     1      26.840  23.326  22.151  1.00  0.00     0.002 A 
HETATM   31  C19 UNL     1      27.033  23.070  20.826  1.00  0.00     0.017 A 
HETATM   32  C20 UNL     1      27.552  21.879  20.489  1.00  0.00     0.008 A 
HETATM   33  C21 UNL     1      27.849  21.013  21.506  1.00  0.00     0.050 A 
HETATM   34  S1  UNL     1      27.395  21.885  22.896  1.00  0.00    -0.105 SA
ENDBRANCH  29  30
ENDBRANCH  27  29
ENDBRANCH   1  21
TORSDOF 9
ENDMDL
MODEL 5
REMARK VINA RESULT: -6.982955187      4.465      8.222
REMARK  9 active torsions:
REMARK  status: ('A' for Active; 'I' for Inactive)
REMARK    1  A    between atoms: C2_2  and  O1_3 
REMARK    2  A    between atoms: O1_3  and  C3_4 
REMARK    3  A    between atoms: C3_4  and  C4_6 
REMARK    4  A    between atoms: N2_12  and  C8_13 
REMARK    5  A    between atoms: C8_13  and  C9_14 
REMARK    6  A    between atoms: C8_13  and  C16_21 
REMARK    7  A    between atoms: C9_14  and  C10_15 
REMARK    8  A    between atoms: N6_28  and  C17_29 
REMARK    9  A    between atoms: C17_29  and  C18_30 
ROOT
HETATM    1  C8  UNL     1      25.404  21.814  23.611  1.00  0.00     0.059 C 
ENDROOT
BRANCH   1   2
HETATM    2  N2  UNL     1      26.821  21.836  23.552  1.00  0.00    -0.343 N 
HETATM    3  C4  UNL     1      27.606  22.780  22.938  1.00  0.00     0.105 C 
HETATM    4  C5  UNL     1      27.939  22.481  21.453  1.00  0.00     0.178 C 
HETATM    5  N1  UNL     1      28.556  21.202  21.371  1.00  0.00    -0.414 N 
HETATM    6  C6  UNL     1      27.887  20.155  22.066  1.00  0.00     0.134 C 
ATOM      7  H1  UNL     1      29.418  21.047  20.849  1.00  0.00     0.153 HD
HETATM    8  C7  UNL     1      27.386  20.491  23.419  1.00  0.00     0.148 C 
BRANCH   3   9
HETATM    9  C3  UNL     1      27.526  24.195  23.152  1.00  0.00     0.307 C 
HETATM   10  O2  UNL     1      27.065  25.086  22.422  1.00  0.00    -0.258 OA
BRANCH   9  11
HETATM   11  O1  UNL     1      28.044  24.698  24.380  1.00  0.00    -0.317 OA
BRANCH  11  12
HETATM   12  C2  UNL     1      28.213  26.085  24.588  1.00  0.00     0.175 C 
HETATM   13  C1  UNL     1      27.468  26.456  25.841  1.00  0.00     0.034 C 
ENDBRANCH  11  12
ENDBRANCH   9  11
ENDBRANCH   3   9
ENDBRANCH   1   2
BRANCH   1  14
HETATM   14  C9  UNL     1      24.742  21.469  22.325  1.00  0.00     0.066 C 
BRANCH  14  15
HETATM   15  C10 UNL     1      23.831  20.291  22.265  1.00  0.00    -0.009 C 
HETATM   16  C11 UNL     1      24.010  19.542  20.931  1.00  0.00     0.005 C 
HETATM   17  C12 UNL     1      23.705  18.076  21.148  1.00  0.00     0.000 C 
HETATM   18  C13 UNL     1      22.539  17.918  22.105  1.00  0.00     0.000 C 
HETATM   19  C14 UNL     1      22.893  18.399  23.489  1.00  0.00     0.000 C 
HETATM   20  C15 UNL     1      24.124  19.274  23.358  1.00  0.00     0.005 C 
ENDBRANCH  14  15
ENDBRANCH   1  14
BRANCH   1  21
HETATM   21  C16 UNL     1      24.758  22.838  24.451  1.00  0.00     0.162 A 
HETATM   22  N3  UNL     1      25.001  24.182  24.374  1.00  0.00    -0.267 N 
HETATM   23  N4  UNL     1      24.268  24.807  25.244  1.00  0.00    -0.226 N 
ATOM     24  H3  UNL     1      25.657  24.625  23.732  1.00  0.00     0.190 HD
HETATM   25  N5  UNL     1      23.532  23.953  25.917  1.00  0.00    -0.224 N 
ATOM     26  H4  UNL     1      24.265  25.817  25.385  1.00  0.00     0.210 HD
HETATM   27  N6  UNL     1      23.841  22.728  25.418  1.00  0.00    -0.253 N 
ATOM     28  H5  UNL     1      22.866  24.165  26.659  1.00  0.00     0.210 HD
BRANCH  27  29
HETATM   29  C17 UNL     1      23.225  21.506  25.891  1.00  0.00     0.198 C 
BRANCH  29  30
HETATM   30  C18 UNL     1      21.771  21.439  25.525  1.00  0.00     0.002 A 
HETATM   31  C19 UNL     1      21.201  21.638  24.303  1.00  0.00     0.017 A 
HETATM   32  C20 UNL     1      19.867  21.526  24.210  1.00  0.00     0.008 A 
HETATM   33  C21 UNL     1      19.182  21.219  25.355  1.00  0.00     0.050 A 
HETATM   34  S1  UNL     1      20.418  21.097  26.520  1.00  0.00    -0.105 SA
ENDBRANCH  29  30
ENDBRANCH  27  29
ENDBRANCH   1  21
TORSDOF 9
ENDMDL
