MODEL 1
REMARK VINA RESULT: -7.005603123      0.000      0.000
REMARK  7 active torsions:
REMARK  status: ('A' for Active; 'I' for Inactive)
REMARK    1  A    between atoms: C2_2  and  C3_3 
REMARK    2  A    between atoms: C3_3  and  C4_4 
REMARK    3  A    between atoms: C3_3  and  N1_7 
REMARK    4  A    between atoms: C4_4  and  O1_5 
REMARK    5  A    between atoms: N1_7  and  C5_9 
REMARK    6  A    between atoms: C8_17  and  O2_18 
REMARK    7  A    between atoms: C10_22  and  N5_23 
ROOT
HETATM    1  C5  UNL     1     -10.078 -15.930   6.613  1.00  0.00     0.132 A 
HETATM    2  N2  UNL     1     -10.859 -15.037   5.972  1.00  0.00    -0.284 N 
ATOM      3  H2  UNL     1     -11.835 -15.184   5.716  1.00  0.00     0.188 HD
HETATM    4  N3  UNL     1     -10.162 -13.941   5.729  1.00  0.00    -0.295 N 
ATOM      5  H3  UNL     1     -10.517 -13.110   5.254  1.00  0.00     0.187 HD
HETATM    6  C6  UNL     1      -8.917 -14.089   6.201  1.00  0.00     0.108 A 
HETATM    7  C7  UNL     1      -7.853 -13.223   6.188  1.00  0.00     0.196 A 
HETATM    8  F1  UNL     1      -7.921 -11.986   5.634  1.00  0.00    -0.199 F 
HETATM    9  C8  UNL     1      -6.689 -13.671   6.774  1.00  0.00     0.185 A 
HETATM   10  N4  UNL     1      -6.585 -14.879   7.328  1.00  0.00    -0.320 N 
ATOM     11  H4  UNL     1      -5.695 -15.153   7.746  1.00  0.00     0.169 HD
HETATM   12  C10 UNL     1      -7.631 -15.773   7.356  1.00  0.00     0.121 A 
HETATM   13  C15 UNL     1      -8.802 -15.356   6.783  1.00  0.00     0.084 A 
ENDROOT
BRANCH   1  14
HETATM   14  N1  UNL     1     -10.326 -17.087   7.045  1.00  0.00    -0.368 N 
ATOM     15  H1  UNL     1      -9.797 -17.841   6.608  1.00  0.00     0.161 HD
BRANCH  14  16
HETATM   16  C3  UNL     1     -11.246 -17.494   8.063  1.00  0.00     0.106 C 
BRANCH  16  17
HETATM   17  C2  UNL     1     -12.401 -18.318   7.582  1.00  0.00     0.023 C 
HETATM   18  C1  UNL     1     -13.348 -17.428   6.805  1.00  0.00     0.007 C 
ENDBRANCH  16  17
BRANCH  16  19
HETATM   19  C4  UNL     1     -11.620 -16.348   8.963  1.00  0.00     0.189 C 
BRANCH  19  20
HETATM   20  O1  UNL     1     -12.468 -16.692  10.003  1.00  0.00    -0.399 OA
ATOM     21  H1  UNL     1     -12.339 -16.187  10.797  1.00  0.00     0.209 HD
ENDBRANCH  19  20
ENDBRANCH  16  19
ENDBRANCH  14  16
ENDBRANCH   1  14
BRANCH  12  22
HETATM   22  N5  UNL     1      -7.454 -17.047   7.922  1.00  0.00    -0.366 N 
HETATM   23  C11 UNL     1      -7.816 -17.538   9.231  1.00  0.00     0.124 C 
HETATM   24  C12 UNL     1      -7.025 -18.778   9.475  1.00  0.00     0.021 C 
HETATM   25  C13 UNL     1      -6.163 -18.955   8.268  1.00  0.00     0.021 C 
HETATM   26  C14 UNL     1      -6.833 -18.155   7.205  1.00  0.00     0.124 C 
ENDBRANCH  12  22
BRANCH   9  27
HETATM   27  O2  UNL     1      -5.598 -12.831   6.784  1.00  0.00    -0.338 OA
HETATM   28  C9  UNL     1      -4.787 -12.620   7.920  1.00  0.00     0.211 C 
ENDBRANCH   9  27
TORSDOF 7
ENDMDL
MODEL 2
REMARK VINA RESULT: -6.872762812      2.719      4.396
REMARK  7 active torsions:
REMARK  status: ('A' for Active; 'I' for Inactive)
REMARK    1  A    between atoms: C2_2  and  C3_3 
REMARK    2  A    between atoms: C3_3  and  C4_4 
REMARK    3  A    between atoms: C3_3  and  N1_7 
REMARK    4  A    between atoms: C4_4  and  O1_5 
REMARK    5  A    between atoms: N1_7  and  C5_9 
REMARK    6  A    between atoms: C8_17  and  O2_18 
REMARK    7  A    between atoms: C10_22  and  N5_23 
ROOT
HETATM    1  C5  UNL     1     -10.488 -16.697   8.354  1.00  0.00     0.132 A 
HETATM    2  N2  UNL     1     -10.831 -17.379   9.466  1.00  0.00    -0.284 N 
ATOM      3  H2  UNL     1     -11.772 -17.438   9.856  1.00  0.00     0.188 HD
HETATM    4  N3  UNL     1      -9.757 -17.959   9.972  1.00  0.00    -0.295 N 
ATOM      5  H3  UNL     1      -9.740 -18.536  10.813  1.00  0.00     0.187 HD
HETATM    6  C6  UNL     1      -8.693 -17.673   9.209  1.00  0.00     0.108 A 
HETATM    7  C7  UNL     1      -7.382 -18.058   9.333  1.00  0.00     0.196 A 
HETATM    8  F1  UNL     1      -6.941 -18.846  10.346  1.00  0.00    -0.199 F 
HETATM    9  C8  UNL     1      -6.514 -17.602   8.364  1.00  0.00     0.185 A 
HETATM   10  N4  UNL     1      -6.910 -16.826   7.355  1.00  0.00    -0.320 N 
ATOM     11  H4  UNL     1      -6.219 -16.521   6.670  1.00  0.00     0.169 HD
HETATM   12  C10 UNL     1      -8.216 -16.421   7.203  1.00  0.00     0.121 A 
HETATM   13  C15 UNL     1      -9.104 -16.860   8.148  1.00  0.00     0.084 A 
ENDROOT
BRANCH   1  14
HETATM   14  N1  UNL     1     -11.183 -16.016   7.554  1.00  0.00    -0.368 N 
ATOM     15  H1  UNL     1     -10.801 -15.102   7.311  1.00  0.00     0.161 HD
BRANCH  14  16
HETATM   16  C3  UNL     1     -12.432 -16.343   6.937  1.00  0.00     0.106 C 
BRANCH  16  17
HETATM   17  C2  UNL     1     -12.959 -15.312   5.986  1.00  0.00     0.023 C 
HETATM   18  C1  UNL     1     -11.964 -14.175   5.894  1.00  0.00     0.007 C 
ENDBRANCH  16  17
BRANCH  16  19
HETATM   19  C4  UNL     1     -13.433 -16.844   7.941  1.00  0.00     0.189 C 
BRANCH  19  20
HETATM   20  O1  UNL     1     -13.598 -16.020   9.043  1.00  0.00    -0.399 OA
ATOM     21  H1  UNL     1     -14.161 -16.378   9.719  1.00  0.00     0.209 HD
ENDBRANCH  19  20
ENDBRANCH  16  19
ENDBRANCH  14  16
ENDBRANCH   1  14
BRANCH  12  22
HETATM   22  N5  UNL     1      -8.572 -15.574   6.138  1.00  0.00    -0.366 N 
HETATM   23  C11 UNL     1      -9.105 -15.896   4.836  1.00  0.00     0.124 C 
HETATM   24  C12 UNL     1      -8.884 -14.711   3.959  1.00  0.00     0.021 C 
HETATM   25  C13 UNL     1      -8.162 -13.710   4.802  1.00  0.00     0.021 C 
HETATM   26  C14 UNL     1      -8.449 -14.122   6.204  1.00  0.00     0.124 C 
ENDBRANCH  12  22
BRANCH   9  27
HETATM   27  O2  UNL     1      -5.189 -17.967   8.451  1.00  0.00    -0.338 OA
HETATM   28  C9  UNL     1      -4.251 -17.305   9.271  1.00  0.00     0.211 C 
ENDBRANCH   9  27
TORSDOF 7
ENDMDL
MODEL 3
REMARK VINA RESULT: -6.720754527      1.936      3.658
REMARK  7 active torsions:
REMARK  status: ('A' for Active; 'I' for Inactive)
REMARK    1  A    between atoms: C2_2  and  C3_3 
REMARK    2  A    between atoms: C3_3  and  C4_4 
REMARK    3  A    between atoms: C3_3  and  N1_7 
REMARK    4  A    between atoms: C4_4  and  O1_5 
REMARK    5  A    between atoms: N1_7  and  C5_9 
REMARK    6  A    between atoms: C8_17  and  O2_18 
REMARK    7  A    between atoms: C10_22  and  N5_23 
ROOT
HETATM    1  C5  UNL     1      -8.241 -17.082   7.680  1.00  0.00     0.132 A 
HETATM    2  N2  UNL     1      -7.543 -17.847   8.544  1.00  0.00    -0.284 N 
ATOM      3  H2  UNL     1      -7.836 -18.759   8.894  1.00  0.00     0.188 HD
HETATM    4  N3  UNL     1      -6.420 -17.231   8.866  1.00  0.00    -0.295 N 
ATOM      5  H3  UNL     1      -5.711 -17.593   9.504  1.00  0.00     0.187 HD
HETATM    6  C6  UNL     1      -6.355 -16.055   8.226  1.00  0.00     0.108 A 
HETATM    7  C7  UNL     1      -5.382 -15.088   8.240  1.00  0.00     0.196 A 
HETATM    8  F1  UNL     1      -4.252 -15.195   8.984  1.00  0.00    -0.199 F 
HETATM    9  C8  UNL     1      -5.606 -13.980   7.451  1.00  0.00     0.185 A 
HETATM   10  N4  UNL     1      -6.704 -13.840   6.708  1.00  0.00    -0.320 N 
ATOM     11  H4  UNL     1      -6.811 -12.996   6.145  1.00  0.00     0.169 HD
HETATM   12  C10 UNL     1      -7.699 -14.790   6.672  1.00  0.00     0.121 A 
HETATM   13  C15 UNL     1      -7.505 -15.903   7.444  1.00  0.00     0.084 A 
ENDROOT
BRANCH   1  14
HETATM   14  N1  UNL     1      -9.346 -17.277   7.108  1.00  0.00    -0.368 N 
ATOM     15  H1  UNL     1      -9.333 -17.196   6.091  1.00  0.00     0.161 HD
BRANCH  14  16
HETATM   16  C3  UNL     1     -10.617 -17.596   7.682  1.00  0.00     0.106 C 
BRANCH  16  17
HETATM   17  C2  UNL     1     -11.732 -17.773   6.697  1.00  0.00     0.023 C 
HETATM   18  C1  UNL     1     -12.949 -17.023   7.195  1.00  0.00     0.007 C 
ENDBRANCH  16  17
BRANCH  16  19
HETATM   19  C4  UNL     1     -10.941 -16.701   8.846  1.00  0.00     0.189 C 
BRANCH  19  20
HETATM   20  O1  UNL     1     -10.858 -17.320  10.083  1.00  0.00    -0.399 OA
ATOM     21  H1  UNL     1     -10.392 -16.820  10.741  1.00  0.00     0.209 HD
ENDBRANCH  19  20
ENDBRANCH  16  19
ENDBRANCH  14  16
ENDBRANCH   1  14
BRANCH  12  22
HETATM   22  N5  UNL     1      -8.852 -14.574   5.897  1.00  0.00    -0.366 N 
HETATM   23  C11 UNL     1     -10.136 -14.034   6.277  1.00  0.00     0.124 C 
HETATM   24  C12 UNL     1     -11.114 -14.428   5.224  1.00  0.00     0.021 C 
HETATM   25  C13 UNL     1     -10.345 -15.253   4.243  1.00  0.00     0.021 C 
HETATM   26  C14 UNL     1      -8.921 -14.882   4.473  1.00  0.00     0.124 C 
ENDBRANCH  12  22
BRANCH   9  27
HETATM   27  O2  UNL     1      -4.654 -12.987   7.436  1.00  0.00    -0.338 OA
HETATM   28  C9  UNL     1      -4.543 -11.997   8.437  1.00  0.00     0.211 C 
ENDBRANCH   9  27
TORSDOF 7
ENDMDL
MODEL 4
REMARK VINA RESULT: -6.596940176      2.732      4.860
REMARK  7 active torsions:
REMARK  status: ('A' for Active; 'I' for Inactive)
REMARK    1  A    between atoms: C2_2  and  C3_3 
REMARK    2  A    between atoms: C3_3  and  C4_4 
REMARK    3  A    between atoms: C3_3  and  N1_7 
REMARK    4  A    between atoms: C4_4  and  O1_5 
REMARK    5  A    between atoms: N1_7  and  C5_9 
REMARK    6  A    between atoms: C8_17  and  O2_18 
REMARK    7  A    between atoms: C10_22  and  N5_23 
ROOT
HETATM    1  C5  UNL     1      -8.169 -14.810   6.797  1.00  0.00     0.132 A 
HETATM    2  N2  UNL     1      -6.960 -14.234   6.634  1.00  0.00    -0.284 N 
ATOM      3  H2  UNL     1      -6.774 -13.400   6.078  1.00  0.00     0.188 HD
HETATM    4  N3  UNL     1      -6.053 -14.921   7.307  1.00  0.00    -0.295 N 
ATOM      5  H3  UNL     1      -5.059 -14.699   7.351  1.00  0.00     0.187 HD
HETATM    6  C6  UNL     1      -6.642 -15.955   7.922  1.00  0.00     0.108 A 
HETATM    7  C7  UNL     1      -6.111 -16.926   8.734  1.00  0.00     0.196 A 
HETATM    8  F1  UNL     1      -4.790 -16.982   9.043  1.00  0.00    -0.199 F 
HETATM    9  C8  UNL     1      -6.993 -17.861   9.232  1.00  0.00     0.185 A 
HETATM   10  N4  UNL     1      -8.295 -17.838   8.949  1.00  0.00    -0.320 N 
ATOM     11  H4  UNL     1      -8.897 -18.559   9.349  1.00  0.00     0.169 HD
HETATM   12  C10 UNL     1      -8.860 -16.880   8.139  1.00  0.00     0.121 A 
HETATM   13  C15 UNL     1      -8.010 -15.936   7.630  1.00  0.00     0.084 A 
ENDROOT
BRANCH   1  14
HETATM   14  N1  UNL     1      -9.304 -14.490   6.355  1.00  0.00    -0.368 N 
ATOM     15  H1  UNL     1      -9.969 -14.160   7.055  1.00  0.00     0.161 HD
BRANCH  14  16
HETATM   16  C3  UNL     1      -9.793 -14.524   5.011  1.00  0.00     0.106 C 
BRANCH  16  17
HETATM   17  C2  UNL     1     -11.230 -14.924   4.869  1.00  0.00     0.023 C 
HETATM   18  C1  UNL     1     -12.079 -14.018   5.736  1.00  0.00     0.007 C 
ENDBRANCH  16  17
BRANCH  16  19
HETATM   19  C4  UNL     1      -8.844 -15.245   4.093  1.00  0.00     0.189 C 
BRANCH  19  20
HETATM   20  O1  UNL     1      -9.401 -15.629   2.884  1.00  0.00    -0.399 OA
ATOM     21  H1  UNL     1      -9.323 -16.556   2.694  1.00  0.00     0.209 HD
ENDBRANCH  19  20
ENDBRANCH  16  19
ENDBRANCH  14  16
ENDBRANCH   1  14
BRANCH  12  22
HETATM   22  N5  UNL     1     -10.234 -16.926   7.846  1.00  0.00    -0.366 N 
HETATM   23  C11 UNL     1     -11.349 -16.319   8.535  1.00  0.00     0.124 C 
HETATM   24  C12 UNL     1     -12.584 -17.027   8.094  1.00  0.00     0.021 C 
HETATM   25  C13 UNL     1     -12.127 -18.095   7.154  1.00  0.00     0.021 C 
HETATM   26  C14 UNL     1     -10.780 -17.649   6.702  1.00  0.00     0.124 C 
ENDBRANCH  12  22
BRANCH   9  27
HETATM   27  O2  UNL     1      -6.500 -18.851  10.051  1.00  0.00    -0.338 OA
HETATM   28  C9  UNL     1      -6.142 -20.136   9.592  1.00  0.00     0.211 C 
ENDBRANCH   9  27
TORSDOF 7
ENDMDL
MODEL 5
REMARK VINA RESULT: -6.440745028      1.812      5.392
REMARK  7 active torsions:
REMARK  status: ('A' for Active; 'I' for Inactive)
REMARK    1  A    between atoms: C2_2  and  C3_3 
REMARK    2  A    between atoms: C3_3  and  C4_4 
REMARK    3  A    between atoms: C3_3  and  N1_7 
REMARK    4  A    between atoms: C4_4  and  O1_5 
REMARK    5  A    between atoms: N1_7  and  C5_9 
REMARK    6  A    between atoms: C8_17  and  O2_18 
REMARK    7  A    between atoms: C10_22  and  N5_23 
ROOT
HETATM    1  C5  UNL     1      -7.840 -14.610   6.653  1.00  0.00     0.132 A 
HETATM    2  N2  UNL     1      -8.355 -13.499   6.088  1.00  0.00    -0.284 N 
ATOM      3  H2  UNL     1      -7.825 -12.662   5.844  1.00  0.00     0.188 HD
HETATM    4  N3  UNL     1      -9.652 -13.663   5.900  1.00  0.00    -0.295 N 
ATOM      5  H3  UNL     1     -10.280 -12.972   5.488  1.00  0.00     0.187 HD
HETATM    6  C6  UNL     1     -10.017 -14.877   6.334  1.00  0.00     0.108 A 
HETATM    7  C7  UNL     1     -11.245 -15.489   6.335  1.00  0.00     0.196 A 
HETATM    8  F1  UNL     1     -12.365 -14.887   5.862  1.00  0.00    -0.199 F 
HETATM    9  C8  UNL     1     -11.293 -16.768   6.848  1.00  0.00     0.185 A 
HETATM   10  N4  UNL     1     -10.215 -17.390   7.322  1.00  0.00    -0.320 N 
ATOM     11  H4  UNL     1     -10.316 -18.337   7.689  1.00  0.00     0.169 HD
HETATM   12  C10 UNL     1      -8.969 -16.806   7.337  1.00  0.00     0.121 A 
HETATM   13  C15 UNL     1      -8.887 -15.536   6.833  1.00  0.00     0.084 A 
ENDROOT
BRANCH   1  14
HETATM   14  N1  UNL     1      -6.661 -14.897   6.991  1.00  0.00    -0.368 N 
ATOM     15  H1  UNL     1      -6.244 -15.687   6.498  1.00  0.00     0.161 HD
BRANCH  14  16
HETATM   16  C3  UNL     1      -5.824 -14.272   7.969  1.00  0.00     0.106 C 
BRANCH  16  17
HETATM   17  C2  UNL     1      -5.291 -12.926   7.581  1.00  0.00     0.023 C 
HETATM   18  C1  UNL     1      -5.190 -12.064   8.821  1.00  0.00     0.007 C 
ENDBRANCH  16  17
BRANCH  16  19
HETATM   19  C4  UNL     1      -4.795 -15.225   8.510  1.00  0.00     0.189 C 
BRANCH  19  20
HETATM   20  O1  UNL     1      -3.532 -15.075   7.960  1.00  0.00    -0.399 OA
ATOM     21  H1  UNL     1      -2.906 -14.643   8.528  1.00  0.00     0.209 HD
ENDBRANCH  19  20
ENDBRANCH  16  19
ENDBRANCH  14  16
ENDBRANCH   1  14
BRANCH  12  22
HETATM   22  N5  UNL     1      -7.873 -17.496   7.882  1.00  0.00    -0.366 N 
HETATM   23  C11 UNL     1      -6.782 -18.173   7.220  1.00  0.00     0.124 C 
HETATM   24  C12 UNL     1      -6.161 -19.094   8.214  1.00  0.00     0.021 C 
HETATM   25  C13 UNL     1      -6.969 -18.950   9.462  1.00  0.00     0.021 C 
HETATM   26  C14 UNL     1      -7.656 -17.637   9.318  1.00  0.00     0.124 C 
ENDBRANCH  12  22
BRANCH   9  27
HETATM   27  O2  UNL     1     -12.507 -17.417   6.865  1.00  0.00    -0.338 OA
HETATM   28  C9  UNL     1     -13.408 -17.357   7.950  1.00  0.00     0.211 C 
ENDBRANCH   9  27
TORSDOF 7
ENDMDL
