MODEL 1
REMARK VINA RESULT: -6.749364302      0.000      0.000
REMARK  7 active torsions:
REMARK  status: ('A' for Active; 'I' for Inactive)
REMARK    1  A    between atoms: C2_2  and  N1_4 
REMARK    2  A    between atoms: C6_9  and  N3_10 
REMARK    3  A    between atoms: C7_15  and  O1_16 
REMARK    4  A    between atoms: O1_16  and  C8_17 
REMARK    5  A    between atoms: C8_17  and  C9_18 
REMARK    6  A    between atoms: C9_18  and  C10_19 
REMARK    7  A    between atoms: C10_19  and  O2_20 
ROOT
HETATM    1  N1  UNL     1      -8.982 -14.165   4.463  1.00  0.00     0.142 N 
HETATM    2  C4  UNL     1      -9.609 -15.437   4.901  1.00  0.00     0.336 C 
HETATM    3  C5  UNL     1      -8.595 -15.904   5.898  1.00  0.00     0.070 A 
HETATM    4  N2  UNL     1      -8.218 -17.103   6.343  1.00  0.00    -0.193 N 
ATOM      5  H2  UNL     1      -8.681 -17.936   5.980  1.00  0.00     0.184 HD
HETATM    6  C6  UNL     1      -7.240 -17.243   7.259  1.00  0.00     0.678 A 
HETATM    7  N4  UNL     1      -6.621 -16.154   7.744  1.00  0.00    -0.170 N 
ATOM      8  H4  UNL     1      -5.881 -16.272   8.437  1.00  0.00     0.186 HD
HETATM    9  C7  UNL     1      -6.952 -14.887   7.335  1.00  0.00     0.171 A 
HETATM   10  C14 UNL     1      -7.941 -14.759   6.412  1.00  0.00     0.088 A 
HETATM   11  C15 UNL     1      -8.615 -13.637   5.760  1.00  0.00     0.329 C 
HETATM   12  C16 UNL     1      -8.046 -12.300   5.826  1.00  0.00     0.093 C 
HETATM   13  F1  UNL     1      -9.876 -13.547   6.438  1.00  0.00    -0.203 F 
ENDROOT
BRANCH   9  14
HETATM   14  O1  UNL     1      -6.268 -13.816   7.877  1.00  0.00    -0.334 OA
BRANCH  14  15
HETATM   15  C8  UNL     1      -4.913 -14.040   8.229  1.00  0.00     0.189 C 
BRANCH  15  16
HETATM   16  C9  UNL     1      -4.145 -12.803   8.554  1.00  0.00     0.003 C 
HETATM   17  C11 UNL     1      -4.900 -11.840   9.400  1.00  0.00     0.014 C 
HETATM   18  C12 UNL     1      -3.647 -11.695  10.266  1.00  0.00     0.002 C 
HETATM   19  C13 UNL     1      -3.111 -12.981   9.659  1.00  0.00     0.014 C 
BRANCH  16  20
HETATM   20  C10 UNL     1      -3.446 -12.192   7.354  1.00  0.00     0.175 C 
BRANCH  20  21
HETATM   21  O2  UNL     1      -3.841 -12.904   6.225  1.00  0.00    -0.400 OA
ATOM     22  H2  UNL     1      -3.316 -12.602   5.494  1.00  0.00     0.209 HD
ENDBRANCH  20  21
ENDBRANCH  16  20
ENDBRANCH  15  16
ENDBRANCH  14  15
ENDBRANCH   9  14
BRANCH   6  23
HETATM   23  N3  UNL     1      -6.851 -18.394   7.712  1.00  0.00    -0.234 N 
ATOM     24  H32 UNL     1      -7.340 -19.219   7.365  1.00  0.00     0.174 HD
ATOM     25  H31 UNL     1      -6.093 -18.502   8.386  1.00  0.00     0.174 HD
ENDBRANCH   6  23
BRANCH   1  26
HETATM   26  C2  UNL     1      -7.869 -14.448   3.591  1.00  0.00     0.220 C 
HETATM   27  C1  UNL     1      -8.342 -15.309   2.399  1.00  0.00     0.042 C 
HETATM   28  C3  UNL     1      -7.421 -13.155   2.949  1.00  0.00     0.042 C 
ENDBRANCH   1  26
TORSDOF 7
ENDMDL
MODEL 2
REMARK VINA RESULT: -6.685048892      0.792      1.193
REMARK  7 active torsions:
REMARK  status: ('A' for Active; 'I' for Inactive)
REMARK    1  A    between atoms: C2_2  and  N1_4 
REMARK    2  A    between atoms: C6_9  and  N3_10 
REMARK    3  A    between atoms: C7_15  and  O1_16 
REMARK    4  A    between atoms: O1_16  and  C8_17 
REMARK    5  A    between atoms: C8_17  and  C9_18 
REMARK    6  A    between atoms: C9_18  and  C10_19 
REMARK    7  A    between atoms: C10_19  and  O2_20 
ROOT
HETATM    1  N1  UNL     1      -9.038 -14.176   4.573  1.00  0.00     0.142 N 
HETATM    2  C4  UNL     1      -9.623 -15.475   4.985  1.00  0.00     0.336 C 
HETATM    3  C5  UNL     1      -8.587 -15.936   5.962  1.00  0.00     0.070 A 
HETATM    4  N2  UNL     1      -8.171 -17.134   6.375  1.00  0.00    -0.193 N 
ATOM      5  H2  UNL     1      -8.613 -17.971   5.996  1.00  0.00     0.184 HD
HETATM    6  C6  UNL     1      -7.181 -17.267   7.279  1.00  0.00     0.678 A 
HETATM    7  N4  UNL     1      -6.589 -16.172   7.784  1.00  0.00    -0.170 N 
ATOM      8  H4  UNL     1      -5.840 -16.285   8.468  1.00  0.00     0.186 HD
HETATM    9  C7  UNL     1      -6.961 -14.906   7.409  1.00  0.00     0.171 A 
HETATM   10  C14 UNL     1      -7.961 -14.785   6.497  1.00  0.00     0.088 A 
HETATM   11  C15 UNL     1      -8.674 -13.668   5.879  1.00  0.00     0.329 C 
HETATM   12  C16 UNL     1      -8.144 -12.317   5.972  1.00  0.00     0.093 C 
HETATM   13  F1  UNL     1      -9.931 -13.632   6.569  1.00  0.00    -0.203 F 
ENDROOT
BRANCH   9  14
HETATM   14  O1  UNL     1      -6.303 -13.828   7.970  1.00  0.00    -0.334 OA
BRANCH  14  15
HETATM   15  C8  UNL     1      -5.010 -13.541   7.466  1.00  0.00     0.189 C 
BRANCH  15  16
HETATM   16  C9  UNL     1      -4.097 -12.879   8.444  1.00  0.00     0.003 C 
HETATM   17  C11 UNL     1      -3.299 -11.771   7.854  1.00  0.00     0.014 C 
HETATM   18  C12 UNL     1      -3.662 -10.926   9.076  1.00  0.00     0.002 C 
HETATM   19  C13 UNL     1      -4.790 -11.897   9.380  1.00  0.00     0.014 C 
BRANCH  16  20
HETATM   20  C10 UNL     1      -3.308 -13.857   9.294  1.00  0.00     0.175 C 
BRANCH  20  21
HETATM   21  O2  UNL     1      -3.987 -15.072   9.284  1.00  0.00    -0.400 OA
ATOM     22  H2  UNL     1      -4.822 -14.933   8.853  1.00  0.00     0.209 HD
ENDBRANCH  20  21
ENDBRANCH  16  20
ENDBRANCH  15  16
ENDBRANCH  14  15
ENDBRANCH   9  14
BRANCH   6  23
HETATM   23  N3  UNL     1      -6.755 -18.416   7.701  1.00  0.00    -0.234 N 
ATOM     24  H32 UNL     1      -6.073 -18.902   7.118  1.00  0.00     0.174 HD
ATOM     25  H31 UNL     1      -7.068 -18.842   8.573  1.00  0.00     0.174 HD
ENDBRANCH   6  23
BRANCH   1  26
HETATM   26  C2  UNL     1      -7.925 -14.405   3.685  1.00  0.00     0.220 C 
HETATM   27  C1  UNL     1      -8.373 -15.287   2.499  1.00  0.00     0.042 C 
HETATM   28  C3  UNL     1      -7.548 -13.092   3.037  1.00  0.00     0.042 C 
ENDBRANCH   1  26
TORSDOF 7
ENDMDL
MODEL 3
REMARK VINA RESULT: -6.668868816      2.994      4.181
REMARK  7 active torsions:
REMARK  status: ('A' for Active; 'I' for Inactive)
REMARK    1  A    between atoms: C2_2  and  N1_4 
REMARK    2  A    between atoms: C6_9  and  N3_10 
REMARK    3  A    between atoms: C7_15  and  O1_16 
REMARK    4  A    between atoms: O1_16  and  C8_17 
REMARK    5  A    between atoms: C8_17  and  C9_18 
REMARK    6  A    between atoms: C9_18  and  C10_19 
REMARK    7  A    between atoms: C10_19  and  O2_20 
ROOT
HETATM    1  N1  UNL     1      -9.574 -14.171   4.687  1.00  0.00     0.142 N 
HETATM    2  C4  UNL     1     -11.001 -14.317   5.063  1.00  0.00     0.336 C 
HETATM    3  C5  UNL     1     -10.914 -15.485   5.995  1.00  0.00     0.070 A 
HETATM    4  N2  UNL     1     -11.761 -16.452   6.350  1.00  0.00    -0.193 N 
ATOM      5  H2  UNL     1     -12.699 -16.462   5.950  1.00  0.00     0.184 HD
HETATM    6  C6  UNL     1     -11.409 -17.416   7.223  1.00  0.00     0.678 A 
HETATM    7  N4  UNL     1     -10.175 -17.415   7.755  1.00  0.00    -0.170 N 
ATOM      8  H4  UNL     1      -9.920 -18.151   8.415  1.00  0.00     0.186 HD
HETATM    9  C7  UNL     1      -9.248 -16.455   7.439  1.00  0.00     0.171 A 
HETATM   10  C14 UNL     1      -9.615 -15.487   6.559  1.00  0.00     0.088 A 
HETATM   11  C15 UNL     1      -8.980 -14.292   6.003  1.00  0.00     0.329 C 
HETATM   12  C16 UNL     1      -7.546 -14.095   6.134  1.00  0.00     0.093 C 
HETATM   13  F1  UNL     1      -9.581 -13.209   6.726  1.00  0.00    -0.203 F 
ENDROOT
BRANCH   9  14
HETATM   14  O1  UNL     1      -7.999 -16.522   8.024  1.00  0.00    -0.334 OA
BRANCH  14  15
HETATM   15  C8  UNL     1      -7.089 -17.459   7.475  1.00  0.00     0.189 C 
BRANCH  15  16
HETATM   16  C9  UNL     1      -6.266 -18.189   8.484  1.00  0.00     0.003 C 
HETATM   17  C11 UNL     1      -7.075 -18.860   9.536  1.00  0.00     0.014 C 
HETATM   18  C12 UNL     1      -6.207 -20.104   9.339  1.00  0.00     0.002 C 
HETATM   19  C13 UNL     1      -5.745 -19.539   8.007  1.00  0.00     0.014 C 
BRANCH  16  20
HETATM   20  C10 UNL     1      -5.085 -17.386   8.996  1.00  0.00     0.175 C 
BRANCH  20  21
HETATM   21  O2  UNL     1      -5.128 -16.134   8.388  1.00  0.00    -0.400 OA
ATOM     22  H2  UNL     1      -4.698 -16.208   7.545  1.00  0.00     0.209 HD
ENDBRANCH  20  21
ENDBRANCH  16  20
ENDBRANCH  15  16
ENDBRANCH  14  15
ENDBRANCH   9  14
BRANCH   6  23
HETATM   23  N3  UNL     1     -12.209 -18.368   7.588  1.00  0.00    -0.234 N 
ATOM     24  H32 UNL     1     -13.207 -18.218   7.445  1.00  0.00     0.174 HD
ATOM     25  H31 UNL     1     -11.884 -19.242   8.004  1.00  0.00     0.174 HD
ENDBRANCH   6  23
BRANCH   1  26
HETATM   26  C2  UNL     1      -9.207 -15.215   3.763  1.00  0.00     0.220 C 
HETATM   27  C1  UNL     1     -10.271 -15.328   2.649  1.00  0.00     0.042 C 
HETATM   28  C3  UNL     1      -7.957 -14.790   3.027  1.00  0.00     0.042 C 
ENDBRANCH   1  26
TORSDOF 7
ENDMDL
MODEL 4
REMARK VINA RESULT: -6.637353023      3.875      6.221
REMARK  7 active torsions:
REMARK  status: ('A' for Active; 'I' for Inactive)
REMARK    1  A    between atoms: C2_2  and  N1_4 
REMARK    2  A    between atoms: C6_9  and  N3_10 
REMARK    3  A    between atoms: C7_15  and  O1_16 
REMARK    4  A    between atoms: O1_16  and  C8_17 
REMARK    5  A    between atoms: C8_17  and  C9_18 
REMARK    6  A    between atoms: C9_18  and  C10_19 
REMARK    7  A    between atoms: C10_19  and  O2_20 
ROOT
HETATM    1  N1  UNL     1     -10.858 -17.601   8.170  1.00  0.00     0.142 N 
HETATM    2  C4  UNL     1     -12.194 -17.555   7.527  1.00  0.00     0.336 C 
HETATM    3  C5  UNL     1     -12.104 -16.239   6.819  1.00  0.00     0.070 A 
HETATM    4  N2  UNL     1     -13.001 -15.328   6.442  1.00  0.00    -0.193 N 
ATOM      5  H2  UNL     1     -13.989 -15.495   6.632  1.00  0.00     0.184 HD
HETATM    6  C6  UNL     1     -12.637 -14.192   5.816  1.00  0.00     0.678 A 
HETATM    7  N4  UNL     1     -11.338 -13.959   5.561  1.00  0.00    -0.170 N 
ATOM      8  H4  UNL     1     -11.074 -13.095   5.087  1.00  0.00     0.186 HD
HETATM    9  C7  UNL     1     -10.357 -14.848   5.919  1.00  0.00     0.171 A 
HETATM   10  C14 UNL     1     -10.737 -15.991   6.549  1.00  0.00     0.088 A 
HETATM   11  C15 UNL     1     -10.050 -17.184   7.042  1.00  0.00     0.329 C 
HETATM   12  C16 UNL     1      -8.603 -17.190   7.187  1.00  0.00     0.093 C 
HETATM   13  F1  UNL     1     -10.338 -18.185   6.056  1.00  0.00    -0.203 F 
ENDROOT
BRANCH   9  14
HETATM   14  O1  UNL     1      -9.043 -14.537   5.627  1.00  0.00    -0.334 OA
BRANCH  14  15
HETATM   15  C8  UNL     1      -8.547 -14.989   4.378  1.00  0.00     0.189 C 
BRANCH  15  16
HETATM   16  C9  UNL     1      -8.058 -13.905   3.476  1.00  0.00     0.003 C 
HETATM   17  C11 UNL     1      -7.103 -14.380   2.440  1.00  0.00     0.014 C 
HETATM   18  C12 UNL     1      -7.892 -13.567   1.412  1.00  0.00     0.002 C 
HETATM   19  C13 UNL     1      -9.050 -13.499   2.393  1.00  0.00     0.014 C 
BRANCH  16  20
HETATM   20  C10 UNL     1      -7.632 -12.650   4.215  1.00  0.00     0.175 C 
BRANCH  20  21
HETATM   21  O2  UNL     1      -6.670 -13.015   5.152  1.00  0.00    -0.400 OA
ATOM     22  H2  UNL     1      -6.642 -12.338   5.817  1.00  0.00     0.209 HD
ENDBRANCH  20  21
ENDBRANCH  16  20
ENDBRANCH  15  16
ENDBRANCH  14  15
ENDBRANCH   9  14
BRANCH   6  23
HETATM   23  N3  UNL     1     -13.484 -13.287   5.436  1.00  0.00    -0.234 N 
ATOM     24  H32 UNL     1     -14.325 -13.610   4.958  1.00  0.00     0.174 HD
ATOM     25  H31 UNL     1     -13.344 -12.289   5.594  1.00  0.00     0.174 HD
ENDBRANCH   6  23
BRANCH   1  26
HETATM   26  C2  UNL     1     -10.830 -16.700   9.295  1.00  0.00     0.220 C 
HETATM   27  C1  UNL     1     -12.259 -16.508   9.849  1.00  0.00     0.042 C 
HETATM   28  C3  UNL     1     -10.089 -17.370  10.430  1.00  0.00     0.042 C 
ENDBRANCH   1  26
TORSDOF 7
ENDMDL
MODEL 5
REMARK VINA RESULT: -6.576870460      0.741      1.312
REMARK  7 active torsions:
REMARK  status: ('A' for Active; 'I' for Inactive)
REMARK    1  A    between atoms: C2_2  and  N1_4 
REMARK    2  A    between atoms: C6_9  and  N3_10 
REMARK    3  A    between atoms: C7_15  and  O1_16 
REMARK    4  A    between atoms: O1_16  and  C8_17 
REMARK    5  A    between atoms: C8_17  and  C9_18 
REMARK    6  A    between atoms: C9_18  and  C10_19 
REMARK    7  A    between atoms: C10_19  and  O2_20 
ROOT
HETATM    1  N1  UNL     1      -8.971 -14.149   4.457  1.00  0.00     0.142 N 
HETATM    2  C4  UNL     1      -9.609 -15.413   4.897  1.00  0.00     0.336 C 
HETATM    3  C5  UNL     1      -8.605 -15.882   5.903  1.00  0.00     0.070 A 
HETATM    4  N2  UNL     1      -8.239 -17.082   6.356  1.00  0.00    -0.193 N 
ATOM      5  H2  UNL     1      -8.706 -17.913   5.995  1.00  0.00     0.184 HD
HETATM    6  C6  UNL     1      -7.268 -17.224   7.279  1.00  0.00     0.678 A 
HETATM    7  N4  UNL     1      -6.644 -16.137   7.763  1.00  0.00    -0.170 N 
ATOM      8  H4  UNL     1      -5.910 -16.257   8.461  1.00  0.00     0.186 HD
HETATM    9  C7  UNL     1      -6.964 -14.870   7.345  1.00  0.00     0.171 A 
HETATM   10  C14 UNL     1      -7.946 -14.739   6.415  1.00  0.00     0.088 A 
HETATM   11  C15 UNL     1      -8.608 -13.616   5.754  1.00  0.00     0.329 C 
HETATM   12  C16 UNL     1      -8.030 -12.283   5.816  1.00  0.00     0.093 C 
HETATM   13  F1  UNL     1      -9.873 -13.514   6.423  1.00  0.00    -0.203 F 
ENDROOT
BRANCH   9  14
HETATM   14  O1  UNL     1      -6.275 -13.801   7.885  1.00  0.00    -0.334 OA
BRANCH  14  15
HETATM   15  C8  UNL     1      -4.927 -14.035   8.254  1.00  0.00     0.189 C 
BRANCH  15  16
HETATM   16  C9  UNL     1      -4.160 -12.805   8.612  1.00  0.00     0.003 C 
HETATM   17  C11 UNL     1      -3.069 -13.050   9.591  1.00  0.00     0.014 C 
HETATM   18  C12 UNL     1      -2.151 -12.206   8.704  1.00  0.00     0.002 C 
HETATM   19  C13 UNL     1      -3.140 -12.378   7.564  1.00  0.00     0.014 C 
BRANCH  16  20
HETATM   20  C10 UNL     1      -5.043 -11.610   8.920  1.00  0.00     0.175 C 
BRANCH  20  21
HETATM   21  O2  UNL     1      -5.705 -11.869  10.117  1.00  0.00    -0.400 OA
ATOM     22  H2  UNL     1      -5.786 -12.811  10.204  1.00  0.00     0.209 HD
ENDBRANCH  20  21
ENDBRANCH  16  20
ENDBRANCH  15  16
ENDBRANCH  14  15
ENDBRANCH   9  14
BRANCH   6  23
HETATM   23  N3  UNL     1      -6.891 -18.375   7.741  1.00  0.00    -0.234 N 
ATOM     24  H32 UNL     1      -6.815 -18.468   8.753  1.00  0.00     0.174 HD
ATOM     25  H31 UNL     1      -6.672 -19.172   7.142  1.00  0.00     0.174 HD
ENDBRANCH   6  23
BRANCH   1  26
HETATM   26  C2  UNL     1      -7.855 -14.444   3.594  1.00  0.00     0.220 C 
HETATM   27  C1  UNL     1      -8.328 -15.300   2.398  1.00  0.00     0.042 C 
HETATM   28  C3  UNL     1      -7.387 -13.156   2.954  1.00  0.00     0.042 C 
ENDBRANCH   1  26
TORSDOF 7
ENDMDL
