MODEL 1
REMARK VINA RESULT: -7.355441477      0.000      0.000
REMARK  17 active torsions:
REMARK  status: ('A' for Active; 'I' for Inactive)
REMARK    1  A    between atoms: C2_2  and  O1_3 
REMARK    2  A    between atoms: O1_3  and  C3_4 
REMARK    3  A    between atoms: C3_4  and  C4_6 
REMARK    4  A    between atoms: C5_7  and  C6_8 
REMARK    5  A    between atoms: C7_10  and  O4_11 
REMARK    6  A    between atoms: O4_11  and  C8_12 
REMARK    7  A    between atoms: C9_13  and  O5_14 
REMARK    8  A    between atoms: C10_16  and  O6_17 
REMARK    9  A    between atoms: C11_19  and  O7_20 
REMARK   10  A    between atoms: C12_22  and  O8_23 
REMARK   11  A    between atoms: O8_23  and  C13_24 
REMARK   12  A    between atoms: C16_28  and  O10_29 
REMARK   13  A    between atoms: C17_31  and  O11_32 
REMARK   14  A    between atoms: C18_34  and  O12_35 
REMARK   15  A    between atoms: C19_37  and  O13_38 
REMARK   16  A    between atoms: C20_41  and  O15_42 
REMARK   17  A    between atoms: C20_41  and  C21_44 
ROOT
HETATM    1  C8  UNL     1      37.984   0.200  13.444  1.00  0.00     0.189 C 
HETATM    2  C9  UNL     1      38.108   0.703  12.047  1.00  0.00     0.181 C 
HETATM    3  C10 UNL     1      36.738   0.648  11.414  1.00  0.00     0.180 C 
HETATM    4  C11 UNL     1      36.354  -0.780  11.236  1.00  0.00     0.181 C 
HETATM    5  C12 UNL     1      36.497  -1.626  12.488  1.00  0.00     0.187 C 
HETATM    6  C19 UNL     1      37.626  -1.280  13.362  1.00  0.00     0.181 C 
ENDROOT
BRANCH   1   7
HETATM    7  O4  UNL     1      39.155   0.255  14.164  1.00  0.00    -0.328 OA
BRANCH   7   8
HETATM    8  C7  UNL     1      39.302   1.430  14.938  1.00  0.00     0.417 C 
HETATM    9  O3  UNL     1      40.470   2.082  14.645  1.00  0.00    -0.327 OA
HETATM   10  C6  UNL     1      40.520   3.378  15.193  1.00  0.00     0.181 C 
HETATM   11  C23 UNL     1      40.394   3.188  16.674  1.00  0.00     0.190 A 
HETATM   12  C22 UNL     1      41.084   1.832  16.931  1.00  0.00     0.223 A 
HETATM   13  O17 UNL     1      41.383   2.974  17.558  1.00  0.00    -0.366 OA
HETATM   14  C20 UNL     1      39.974   0.888  17.145  1.00  0.00     0.250 C 
HETATM   15  O14 UNL     1      39.004   1.115  16.203  1.00  0.00    -0.292 OA
BRANCH  10  16
HETATM   16  C5  UNL     1      39.493   4.278  14.670  1.00  0.00     0.014 C 
HETATM   17  C4  UNL     1      38.958   4.058  13.493  1.00  0.00     0.081 C 
BRANCH  17  18
HETATM   18  C3  UNL     1      37.933   4.903  12.900  1.00  0.00     0.282 C 
HETATM   19  O2  UNL     1      37.117   4.344  12.097  1.00  0.00    -0.260 OA
BRANCH  18  20
HETATM   20  O1  UNL     1      37.819   6.249  13.174  1.00  0.00    -0.319 OA
BRANCH  20  21
HETATM   21  C2  UNL     1      36.780   6.763  13.980  1.00  0.00     0.174 C 
HETATM   22  C1  UNL     1      37.306   7.311  15.273  1.00  0.00     0.034 C 
ENDBRANCH  20  21
ENDBRANCH  18  20
ENDBRANCH  17  18
ENDBRANCH  10  16
BRANCH  14  23
HETATM   23  O15 UNL     1      39.439   0.976  18.450  1.00  0.00    -0.358 OA
ATOM     24  H15 UNL     1      40.116   1.199  19.079  1.00  0.00     0.213 HD
ENDBRANCH  14  23
BRANCH  14  25
HETATM   25  C21 UNL     1      40.494  -0.501  16.961  1.00  0.00     0.302 C 
HETATM   26  O16 UNL     1      39.777  -1.467  16.832  1.00  0.00    -0.301 OA
ENDBRANCH  14  25
ENDBRANCH   7   8
ENDBRANCH   1   7
BRANCH   2  27
HETATM   27  O5  UNL     1      38.996  -0.088  11.349  1.00  0.00    -0.390 OA
ATOM     28  H5  UNL     1      39.585  -0.518  11.958  1.00  0.00     0.210 HD
ENDBRANCH   2  27
BRANCH   6  29
HETATM   29  O13 UNL     1      37.295  -1.623  14.694  1.00  0.00    -0.390 OA
ATOM     30  H13 UNL     1      37.853  -2.368  14.883  1.00  0.00     0.210 HD
ENDBRANCH   6  29
BRANCH   3  31
HETATM   31  O6  UNL     1      36.749   1.265  10.169  1.00  0.00    -0.390 OA
ATOM     32  H6  UNL     1      36.573   2.194  10.255  1.00  0.00     0.210 HD
ENDBRANCH   3  31
BRANCH   5  33
HETATM   33  O8  UNL     1      36.678  -2.933  12.017  1.00  0.00    -0.348 OA
BRANCH  33  34
HETATM   34  C13 UNL     1      35.624  -3.794  12.366  1.00  0.00     0.292 C 
HETATM   35  O9  UNL     1      35.204  -4.333  11.149  1.00  0.00    -0.351 OA
HETATM   36  C14 UNL     1      34.457  -5.474  11.242  1.00  0.00     0.152 C 
HETATM   37  C15 UNL     1      33.166  -5.310  11.981  1.00  0.00     0.042 C 
HETATM   38  C16 UNL     1      35.253  -6.625  11.845  1.00  0.00     0.178 C 
HETATM   39  C17 UNL     1      35.644  -6.189  13.216  1.00  0.00     0.183 C 
HETATM   40  C18 UNL     1      36.157  -4.797  13.335  1.00  0.00     0.204 C 
BRANCH  38  41
HETATM   41  O10 UNL     1      34.355  -7.694  11.958  1.00  0.00    -0.390 OA
ATOM     42  H10 UNL     1      34.432  -8.186  11.149  1.00  0.00     0.210 HD
ENDBRANCH  38  41
BRANCH  39  43
HETATM   43  O11 UNL     1      36.649  -7.053  13.690  1.00  0.00    -0.390 OA
ATOM     44  H11 UNL     1      37.494  -6.699  13.438  1.00  0.00     0.210 HD
ENDBRANCH  39  43
BRANCH  40  45
HETATM   45  O12 UNL     1      35.791  -4.336  14.630  1.00  0.00    -0.388 OA
ATOM     46  H12 UNL     1      34.851  -4.203  14.611  1.00  0.00     0.210 HD
ENDBRANCH  40  45
ENDBRANCH  33  34
ENDBRANCH   5  33
BRANCH   4  47
HETATM   47  O7  UNL     1      35.007  -0.825  10.877  1.00  0.00    -0.390 OA
ATOM     48  H7  UNL     1      34.556  -1.392  11.491  1.00  0.00     0.210 HD
ENDBRANCH   4  47
TORSDOF 17
ENDMDL
MODEL 2
REMARK VINA RESULT: -7.274214364      1.296      1.958
REMARK  17 active torsions:
REMARK  status: ('A' for Active; 'I' for Inactive)
REMARK    1  A    between atoms: C2_2  and  O1_3 
REMARK    2  A    between atoms: O1_3  and  C3_4 
REMARK    3  A    between atoms: C3_4  and  C4_6 
REMARK    4  A    between atoms: C5_7  and  C6_8 
REMARK    5  A    between atoms: C7_10  and  O4_11 
REMARK    6  A    between atoms: O4_11  and  C8_12 
REMARK    7  A    between atoms: C9_13  and  O5_14 
REMARK    8  A    between atoms: C10_16  and  O6_17 
REMARK    9  A    between atoms: C11_19  and  O7_20 
REMARK   10  A    between atoms: C12_22  and  O8_23 
REMARK   11  A    between atoms: O8_23  and  C13_24 
REMARK   12  A    between atoms: C16_28  and  O10_29 
REMARK   13  A    between atoms: C17_31  and  O11_32 
REMARK   14  A    between atoms: C18_34  and  O12_35 
REMARK   15  A    between atoms: C19_37  and  O13_38 
REMARK   16  A    between atoms: C20_41  and  O15_42 
REMARK   17  A    between atoms: C20_41  and  C21_44 
ROOT
HETATM    1  C8  UNL     1      37.300  -1.189  14.133  1.00  0.00     0.189 C 
HETATM    2  C9  UNL     1      37.681  -0.314  12.988  1.00  0.00     0.181 C 
HETATM    3  C10 UNL     1      36.582  -0.403  11.956  1.00  0.00     0.180 C 
HETATM    4  C11 UNL     1      36.592  -1.770  11.367  1.00  0.00     0.181 C 
HETATM    5  C12 UNL     1      36.578  -2.892  12.390  1.00  0.00     0.187 C 
HETATM    6  C19 UNL     1      37.321  -2.629  13.630  1.00  0.00     0.181 C 
ENDROOT
BRANCH   1   7
HETATM    7  O4  UNL     1      38.189  -1.155  15.183  1.00  0.00    -0.328 OA
BRANCH   7   8
HETATM    8  C7  UNL     1      38.584   0.150  15.562  1.00  0.00     0.417 C 
HETATM    9  O3  UNL     1      39.769   0.506  14.975  1.00  0.00    -0.327 OA
HETATM   10  C6  UNL     1      40.051   1.879  15.115  1.00  0.00     0.181 C 
HETATM   11  C23 UNL     1      40.114   2.123  16.592  1.00  0.00     0.190 A 
HETATM   12  C22 UNL     1      40.666   0.800  17.161  1.00  0.00     0.223 A 
HETATM   13  O17 UNL     1      41.185   2.009  17.395  1.00  0.00    -0.366 OA
HETATM   14  C20 UNL     1      39.492   0.135  17.752  1.00  0.00     0.250 C 
HETATM   15  O14 UNL     1      38.432   0.243  16.887  1.00  0.00    -0.292 OA
BRANCH  10  16
HETATM   16  C5  UNL     1      39.076   2.749  14.460  1.00  0.00     0.014 C 
HETATM   17  C4  UNL     1      39.157   2.981  13.171  1.00  0.00     0.081 C 
BRANCH  17  18
HETATM   18  C3  UNL     1      38.230   3.834  12.443  1.00  0.00     0.282 C 
HETATM   19  O2  UNL     1      37.079   3.349  12.189  1.00  0.00    -0.260 OA
BRANCH  18  20
HETATM   20  O1  UNL     1      38.548   5.111  12.034  1.00  0.00    -0.319 OA
BRANCH  20  21
HETATM   21  C2  UNL     1      38.873   6.131  12.954  1.00  0.00     0.174 C 
HETATM   22  C1  UNL     1      37.754   6.376  13.922  1.00  0.00     0.034 C 
ENDBRANCH  20  21
ENDBRANCH  18  20
ENDBRANCH  17  18
ENDBRANCH  10  16
BRANCH  14  23
HETATM   23  O15 UNL     1      39.161   0.658  19.021  1.00  0.00    -0.358 OA
ATOM     24  H15 UNL     1      39.766   1.346  19.272  1.00  0.00     0.213 HD
ENDBRANCH  14  23
BRANCH  14  25
HETATM   25  C21 UNL     1      39.810  -1.316  17.927  1.00  0.00     0.302 C 
HETATM   26  O16 UNL     1      40.796  -1.840  17.460  1.00  0.00    -0.301 OA
ENDBRANCH  14  25
ENDBRANCH   7   8
ENDBRANCH   1   7
BRANCH   2  27
HETATM   27  O5  UNL     1      38.879  -0.745  12.458  1.00  0.00    -0.390 OA
ATOM     28  H5  UNL     1      39.033  -0.311  11.627  1.00  0.00     0.210 HD
ENDBRANCH   2  27
BRANCH   6  29
HETATM   29  O13 UNL     1      36.728  -3.364  14.683  1.00  0.00    -0.390 OA
ATOM     30  H13 UNL     1      37.127  -4.223  14.613  1.00  0.00     0.210 HD
ENDBRANCH   6  29
BRANCH   3  31
HETATM   31  O6  UNL     1      36.790   0.522  10.940  1.00  0.00    -0.390 OA
ATOM     32  H6  UNL     1      36.790   0.093  10.092  1.00  0.00     0.210 HD
ENDBRANCH   3  31
BRANCH   5  33
HETATM   33  O8  UNL     1      37.169  -3.980  11.735  1.00  0.00    -0.348 OA
BRANCH  33  34
HETATM   34  C13 UNL     1      36.388  -5.146  11.792  1.00  0.00     0.292 C 
HETATM   35  O9  UNL     1      36.679  -5.694  13.042  1.00  0.00    -0.351 OA
HETATM   36  C14 UNL     1      35.778  -6.613  13.501  1.00  0.00     0.152 C 
HETATM   37  C15 UNL     1      35.642  -7.831  12.643  1.00  0.00     0.042 C 
HETATM   38  C16 UNL     1      34.407  -5.993  13.737  1.00  0.00     0.178 C 
HETATM   39  C17 UNL     1      33.947  -5.484  12.413  1.00  0.00     0.183 C 
HETATM   40  C18 UNL     1      34.960  -4.747  11.610  1.00  0.00     0.204 C 
BRANCH  38  41
HETATM   41  O10 UNL     1      33.569  -7.048  14.122  1.00  0.00    -0.390 OA
ATOM     42  H10 UNL     1      32.711  -6.663  14.255  1.00  0.00     0.210 HD
ENDBRANCH  38  41
BRANCH  39  43
HETATM   43  O11 UNL     1      32.858  -4.616  12.622  1.00  0.00    -0.390 OA
ATOM     44  H11 UNL     1      32.807  -4.015  11.888  1.00  0.00     0.210 HD
ENDBRANCH  39  43
BRANCH  40  45
HETATM   45  O12 UNL     1      34.650  -4.983  10.243  1.00  0.00    -0.388 OA
ATOM     46  H12 UNL     1      35.073  -5.801  10.010  1.00  0.00     0.210 HD
ENDBRANCH  40  45
ENDBRANCH  33  34
ENDBRANCH   5  33
BRANCH   4  47
HETATM   47  O7  UNL     1      35.439  -1.919  10.597  1.00  0.00    -0.390 OA
ATOM     48  H7  UNL     1      35.454  -2.786  10.206  1.00  0.00     0.210 HD
ENDBRANCH   4  47
TORSDOF 17
ENDMDL
MODEL 3
REMARK VINA RESULT: -7.249426799      1.946      2.455
REMARK  17 active torsions:
REMARK  status: ('A' for Active; 'I' for Inactive)
REMARK    1  A    between atoms: C2_2  and  O1_3 
REMARK    2  A    between atoms: O1_3  and  C3_4 
REMARK    3  A    between atoms: C3_4  and  C4_6 
REMARK    4  A    between atoms: C5_7  and  C6_8 
REMARK    5  A    between atoms: C7_10  and  O4_11 
REMARK    6  A    between atoms: O4_11  and  C8_12 
REMARK    7  A    between atoms: C9_13  and  O5_14 
REMARK    8  A    between atoms: C10_16  and  O6_17 
REMARK    9  A    between atoms: C11_19  and  O7_20 
REMARK   10  A    between atoms: C12_22  and  O8_23 
REMARK   11  A    between atoms: O8_23  and  C13_24 
REMARK   12  A    between atoms: C16_28  and  O10_29 
REMARK   13  A    between atoms: C17_31  and  O11_32 
REMARK   14  A    between atoms: C18_34  and  O12_35 
REMARK   15  A    between atoms: C19_37  and  O13_38 
REMARK   16  A    between atoms: C20_41  and  O15_42 
REMARK   17  A    between atoms: C20_41  and  C21_44 
ROOT
HETATM    1  C8  UNL     1      37.767   0.331  13.515  1.00  0.00     0.189 C 
HETATM    2  C9  UNL     1      37.976   0.829  12.126  1.00  0.00     0.181 C 
HETATM    3  C10 UNL     1      36.653   0.743  11.403  1.00  0.00     0.180 C 
HETATM    4  C11 UNL     1      36.310  -0.693  11.208  1.00  0.00     0.181 C 
HETATM    5  C12 UNL     1      36.385  -1.530  12.472  1.00  0.00     0.187 C 
HETATM    6  C19 UNL     1      37.445  -1.157  13.419  1.00  0.00     0.181 C 
ENDROOT
BRANCH   1   7
HETATM    7  O4  UNL     1      38.885   0.413  14.312  1.00  0.00    -0.328 OA
BRANCH   7   8
HETATM    8  C7  UNL     1      39.564   1.651  14.228  1.00  0.00     0.417 C 
HETATM    9  O3  UNL     1      40.839   1.494  13.751  1.00  0.00    -0.327 OA
HETATM   10  C6  UNL     1      41.442   2.717  13.405  1.00  0.00     0.181 C 
HETATM   11  C23 UNL     1      41.461   3.523  14.667  1.00  0.00     0.190 A 
HETATM   12  C22 UNL     1      41.626   2.465  15.777  1.00  0.00     0.223 A 
HETATM   13  O17 UNL     1      42.412   3.534  15.617  1.00  0.00    -0.366 OA
HETATM   14  C20 UNL     1      40.285   2.347  16.376  1.00  0.00     0.250 C 
HETATM   15  O14 UNL     1      39.349   2.304  15.375  1.00  0.00    -0.292 OA
BRANCH  10  16
HETATM   16  C5  UNL     1      40.763   3.422  12.319  1.00  0.00     0.014 C 
HETATM   17  C4  UNL     1      41.147   4.627  11.969  1.00  0.00     0.081 C 
BRANCH  17  18
HETATM   18  C3  UNL     1      40.526   5.396  10.901  1.00  0.00     0.282 C 
HETATM   19  O2  UNL     1      39.346   5.827  11.112  1.00  0.00    -0.260 OA
BRANCH  18  20
HETATM   20  O1  UNL     1      41.157   5.666   9.706  1.00  0.00    -0.319 OA
BRANCH  20  21
HETATM   21  C2  UNL     1      42.343   5.005   9.321  1.00  0.00     0.174 C 
HETATM   22  C1  UNL     1      42.738   5.354   7.918  1.00  0.00     0.034 C 
ENDBRANCH  20  21
ENDBRANCH  18  20
ENDBRANCH  17  18
ENDBRANCH  10  16
BRANCH  14  23
HETATM   23  O15 UNL     1      40.007   3.396  17.280  1.00  0.00    -0.358 OA
ATOM     24  H15 UNL     1      40.811   3.795  17.594  1.00  0.00     0.213 HD
ENDBRANCH  14  23
BRANCH  14  25
HETATM   25  C21 UNL     1      40.220   1.062  17.138  1.00  0.00     0.302 C 
HETATM   26  O16 UNL     1      39.210   0.652  17.663  1.00  0.00    -0.301 OA
ENDBRANCH  14  25
ENDBRANCH   7   8
ENDBRANCH   1   7
BRANCH   2  27
HETATM   27  O5  UNL     1      38.924   0.052  11.495  1.00  0.00    -0.390 OA
ATOM     28  H5  UNL     1      39.574   0.612  11.086  1.00  0.00     0.210 HD
ENDBRANCH   2  27
BRANCH   6  29
HETATM   29  O13 UNL     1      37.032  -1.499  14.727  1.00  0.00    -0.390 OA
ATOM     30  H13 UNL     1      37.763  -1.995  15.075  1.00  0.00     0.210 HD
ENDBRANCH   6  29
BRANCH   3  31
HETATM   31  O6  UNL     1      36.736   1.353  10.157  1.00  0.00    -0.390 OA
ATOM     32  H6  UNL     1      36.103   2.059  10.087  1.00  0.00     0.210 HD
ENDBRANCH   3  31
BRANCH   5  33
HETATM   33  O8  UNL     1      36.623  -2.836  12.023  1.00  0.00    -0.348 OA
BRANCH  33  34
HETATM   34  C13 UNL     1      35.597  -3.731  12.368  1.00  0.00     0.292 C 
HETATM   35  O9  UNL     1      35.195  -4.279  11.149  1.00  0.00    -0.351 OA
HETATM   36  C14 UNL     1      34.485  -5.443  11.238  1.00  0.00     0.152 C 
HETATM   37  C15 UNL     1      33.190  -5.325  11.977  1.00  0.00     0.042 C 
HETATM   38  C16 UNL     1      35.318  -6.570  11.835  1.00  0.00     0.178 C 
HETATM   39  C17 UNL     1      35.695  -6.128  13.208  1.00  0.00     0.183 C 
HETATM   40  C18 UNL     1      36.163  -4.721  13.333  1.00  0.00     0.204 C 
BRANCH  38  41
HETATM   41  O10 UNL     1      34.455  -7.669  11.944  1.00  0.00    -0.390 OA
ATOM     42  H10 UNL     1      34.985  -8.435  11.755  1.00  0.00     0.210 HD
ENDBRANCH  38  41
BRANCH  39  43
HETATM   43  O11 UNL     1      36.728  -6.962  13.678  1.00  0.00    -0.390 OA
ATOM     44  H11 UNL     1      37.371  -6.422  14.124  1.00  0.00     0.210 HD
ENDBRANCH  39  43
BRANCH  40  45
HETATM   45  O12 UNL     1      35.783  -4.277  14.630  1.00  0.00    -0.388 OA
ATOM     46  H12 UNL     1      35.182  -4.930  14.970  1.00  0.00     0.210 HD
ENDBRANCH  40  45
ENDBRANCH  33  34
ENDBRANCH   5  33
BRANCH   4  47
HETATM   47  O7  UNL     1      34.992  -0.767  10.759  1.00  0.00    -0.390 OA
ATOM     48  H7  UNL     1      34.684  -1.657  10.889  1.00  0.00     0.210 HD
ENDBRANCH   4  47
TORSDOF 17
ENDMDL
MODEL 4
REMARK VINA RESULT: -7.236749755      3.390      5.755
REMARK  17 active torsions:
REMARK  status: ('A' for Active; 'I' for Inactive)
REMARK    1  A    between atoms: C2_2  and  O1_3 
REMARK    2  A    between atoms: O1_3  and  C3_4 
REMARK    3  A    between atoms: C3_4  and  C4_6 
REMARK    4  A    between atoms: C5_7  and  C6_8 
REMARK    5  A    between atoms: C7_10  and  O4_11 
REMARK    6  A    between atoms: O4_11  and  C8_12 
REMARK    7  A    between atoms: C9_13  and  O5_14 
REMARK    8  A    between atoms: C10_16  and  O6_17 
REMARK    9  A    between atoms: C11_19  and  O7_20 
REMARK   10  A    between atoms: C12_22  and  O8_23 
REMARK   11  A    between atoms: O8_23  and  C13_24 
REMARK   12  A    between atoms: C16_28  and  O10_29 
REMARK   13  A    between atoms: C17_31  and  O11_32 
REMARK   14  A    between atoms: C18_34  and  O12_35 
REMARK   15  A    between atoms: C19_37  and  O13_38 
REMARK   16  A    between atoms: C20_41  and  O15_42 
REMARK   17  A    between atoms: C20_41  and  C21_44 
ROOT
HETATM    1  C8  UNL     1      39.763   2.518  13.220  1.00  0.00     0.189 C 
HETATM    2  C9  UNL     1      39.171   2.497  14.588  1.00  0.00     0.181 C 
HETATM    3  C10 UNL     1      40.059   1.642  15.460  1.00  0.00     0.180 C 
HETATM    4  C11 UNL     1      39.946   0.226  15.012  1.00  0.00     0.181 C 
HETATM    5  C12 UNL     1      40.155   0.025  13.522  1.00  0.00     0.187 C 
HETATM    6  C19 UNL     1      39.656   1.104  12.659  1.00  0.00     0.181 C 
ENDROOT
BRANCH   1   7
HETATM    7  O4  UNL     1      39.085   3.318  12.330  1.00  0.00    -0.328 OA
BRANCH   7   8
HETATM    8  C7  UNL     1      39.836   4.420  11.857  1.00  0.00     0.417 C 
HETATM    9  O3  UNL     1      41.029   4.536  12.519  1.00  0.00    -0.327 OA
HETATM   10  C6  UNL     1      41.906   5.446  11.899  1.00  0.00     0.181 C 
HETATM   11  C23 UNL     1      41.186   6.759  11.904  1.00  0.00     0.190 A 
HETATM   12  C22 UNL     1      40.346   6.713  13.197  1.00  0.00     0.223 A 
HETATM   13  O17 UNL     1      41.194   7.693  12.871  1.00  0.00    -0.366 OA
HETATM   14  C20 UNL     1      38.973   6.446  12.736  1.00  0.00     0.250 C 
HETATM   15  O14 UNL     1      39.005   5.464  11.778  1.00  0.00    -0.292 OA
BRANCH  10  16
HETATM   16  C5  UNL     1      42.308   5.050  10.550  1.00  0.00     0.014 C 
HETATM   17  C4  UNL     1      42.627   5.961   9.661  1.00  0.00     0.081 C 
BRANCH  17  18
HETATM   18  C3  UNL     1      43.036   5.654   8.299  1.00  0.00     0.282 C 
HETATM   19  O2  UNL     1      43.315   4.438   8.041  1.00  0.00    -0.260 OA
BRANCH  18  20
HETATM   20  O1  UNL     1      43.126   6.608   7.308  1.00  0.00    -0.319 OA
BRANCH  20  21
HETATM   21  C2  UNL     1      42.335   6.551   6.141  1.00  0.00     0.174 C 
HETATM   22  C1  UNL     1      40.872   6.554   6.467  1.00  0.00     0.034 C 
ENDBRANCH  20  21
ENDBRANCH  18  20
ENDBRANCH  17  18
ENDBRANCH  10  16
BRANCH  14  23
HETATM   23  O15 UNL     1      38.336   7.607  12.246  1.00  0.00    -0.358 OA
ATOM     24  H15 UNL     1      38.836   7.994  11.536  1.00  0.00     0.213 HD
ENDBRANCH  14  23
BRANCH  14  25
HETATM   25  C21 UNL     1      38.174   5.945  13.896  1.00  0.00     0.302 C 
HETATM   26  O16 UNL     1      37.022   5.587  13.804  1.00  0.00    -0.301 OA
ENDBRANCH  14  25
ENDBRANCH   7   8
ENDBRANCH   1   7
BRANCH   2  27
HETATM   27  O5  UNL     1      37.897   1.972  14.531  1.00  0.00    -0.390 OA
ATOM     28  H5  UNL     1      37.650   1.644  15.388  1.00  0.00     0.210 HD
ENDBRANCH   2  27
BRANCH   6  29
HETATM   29  O13 UNL     1      40.438   1.147  11.481  1.00  0.00    -0.390 OA
ATOM     30  H13 UNL     1      39.810   0.996  10.785  1.00  0.00     0.210 HD
ENDBRANCH   6  29
BRANCH   3  31
HETATM   31  O6  UNL     1      39.661   1.721  16.789  1.00  0.00    -0.390 OA
ATOM     32  H6  UNL     1      40.397   1.566  17.369  1.00  0.00     0.210 HD
ENDBRANCH   3  31
BRANCH   5  33
HETATM   33  O8  UNL     1      39.458  -1.152  13.219  1.00  0.00    -0.348 OA
BRANCH  33  34
HETATM   34  C13 UNL     1      38.093  -0.933  12.971  1.00  0.00     0.292 C 
HETATM   35  O9  UNL     1      37.909  -1.360  11.655  1.00  0.00    -0.351 OA
HETATM   36  C14 UNL     1      36.614  -1.611  11.298  1.00  0.00     0.152 C 
HETATM   37  C15 UNL     1      35.708  -0.424  11.377  1.00  0.00     0.042 C 
HETATM   38  C16 UNL     1      36.021  -2.766  12.094  1.00  0.00     0.178 C 
HETATM   39  C17 UNL     1      36.055  -2.348  13.525  1.00  0.00     0.183 C 
HETATM   40  C18 UNL     1      37.316  -1.708  13.986  1.00  0.00     0.204 C 
BRANCH  38  41
HETATM   41  O10 UNL     1      34.682  -2.862  11.692  1.00  0.00    -0.390 OA
ATOM     42  H10 UNL     1      34.645  -3.590  11.082  1.00  0.00     0.210 HD
ENDBRANCH  38  41
BRANCH  39  43
HETATM   43  O11 UNL     1      35.838  -3.484  14.327  1.00  0.00    -0.390 OA
ATOM     44  H11 UNL     1      36.581  -3.587  14.911  1.00  0.00     0.210 HD
ENDBRANCH  39  43
BRANCH  40  45
HETATM   45  O12 UNL     1      36.958  -0.784  15.006  1.00  0.00    -0.388 OA
ATOM     46  H12 UNL     1      36.786  -1.300  15.785  1.00  0.00     0.210 HD
ENDBRANCH  40  45
ENDBRANCH  33  34
ENDBRANCH   5  33
BRANCH   4  47
HETATM   47  O7  UNL     1      40.936  -0.514  15.657  1.00  0.00    -0.390 OA
ATOM     48  H7  UNL     1      41.011  -1.353  15.218  1.00  0.00     0.210 HD
ENDBRANCH   4  47
TORSDOF 17
ENDMDL
MODEL 5
REMARK VINA RESULT: -7.127660333      0.783      1.090
REMARK  17 active torsions:
REMARK  status: ('A' for Active; 'I' for Inactive)
REMARK    1  A    between atoms: C2_2  and  O1_3 
REMARK    2  A    between atoms: O1_3  and  C3_4 
REMARK    3  A    between atoms: C3_4  and  C4_6 
REMARK    4  A    between atoms: C5_7  and  C6_8 
REMARK    5  A    between atoms: C7_10  and  O4_11 
REMARK    6  A    between atoms: O4_11  and  C8_12 
REMARK    7  A    between atoms: C9_13  and  O5_14 
REMARK    8  A    between atoms: C10_16  and  O6_17 
REMARK    9  A    between atoms: C11_19  and  O7_20 
REMARK   10  A    between atoms: C12_22  and  O8_23 
REMARK   11  A    between atoms: O8_23  and  C13_24 
REMARK   12  A    between atoms: C16_28  and  O10_29 
REMARK   13  A    between atoms: C17_31  and  O11_32 
REMARK   14  A    between atoms: C18_34  and  O12_35 
REMARK   15  A    between atoms: C19_37  and  O13_38 
REMARK   16  A    between atoms: C20_41  and  O15_42 
REMARK   17  A    between atoms: C20_41  and  C21_44 
ROOT
HETATM    1  C8  UNL     1      38.107   0.150  13.409  1.00  0.00     0.189 C 
HETATM    2  C9  UNL     1      38.212   0.658  12.012  1.00  0.00     0.181 C 
HETATM    3  C10 UNL     1      36.826   0.645  11.413  1.00  0.00     0.180 C 
HETATM    4  C11 UNL     1      36.396  -0.769  11.237  1.00  0.00     0.181 C 
HETATM    5  C12 UNL     1      36.545  -1.627  12.480  1.00  0.00     0.187 C 
HETATM    6  C19 UNL     1      37.704  -1.319  13.329  1.00  0.00     0.181 C 
ENDROOT
BRANCH   1   7
HETATM    7  O4  UNL     1      39.296   0.166  14.101  1.00  0.00    -0.328 OA
BRANCH   7   8
HETATM    8  C7  UNL     1      39.400   1.215  15.046  1.00  0.00     0.417 C 
HETATM    9  O3  UNL     1      40.650   1.773  15.042  1.00  0.00    -0.327 OA
HETATM   10  C6  UNL     1      40.707   2.978  15.768  1.00  0.00     0.181 C 
HETATM   11  C23 UNL     1      40.308   2.619  17.166  1.00  0.00     0.190 A 
HETATM   12  C22 UNL     1      40.831   1.178  17.340  1.00  0.00     0.223 A 
HETATM   13  O17 UNL     1      41.106   2.196  18.161  1.00  0.00    -0.366 OA
HETATM   14  C20 UNL     1      39.628   0.335  17.235  1.00  0.00     0.250 C 
HETATM   15  O14 UNL     1      38.860   0.777  16.188  1.00  0.00    -0.292 OA
BRANCH  10  16
HETATM   16  C5  UNL     1      39.864   4.038  15.216  1.00  0.00     0.014 C 
HETATM   17  C4  UNL     1      40.144   4.565  14.048  1.00  0.00     0.081 C 
BRANCH  17  18
HETATM   18  C3  UNL     1      39.358   5.621  13.428  1.00  0.00     0.282 C 
HETATM   19  O2  UNL     1      39.785   6.814  13.565  1.00  0.00    -0.260 OA
BRANCH  18  20
HETATM   20  O1  UNL     1      38.203   5.378  12.716  1.00  0.00    -0.319 OA
BRANCH  20  21
HETATM   21  C2  UNL     1      36.963   5.163  13.354  1.00  0.00     0.174 C 
HETATM   22  C1  UNL     1      36.601   3.709  13.378  1.00  0.00     0.034 C 
ENDBRANCH  20  21
ENDBRANCH  18  20
ENDBRANCH  17  18
ENDBRANCH  10  16
BRANCH  14  23
HETATM   23  O15 UNL     1      38.881   0.314  18.434  1.00  0.00    -0.358 OA
ATOM     24  H15 UNL     1      39.356   0.742  19.137  1.00  0.00     0.213 HD
ENDBRANCH  14  23
BRANCH  14  25
HETATM   25  C21 UNL     1      40.059  -1.067  16.944  1.00  0.00     0.302 C 
HETATM   26  O16 UNL     1      39.282  -1.966  16.713  1.00  0.00    -0.301 OA
ENDBRANCH  14  25
ENDBRANCH   7   8
ENDBRANCH   1   7
BRANCH   2  27
HETATM   27  O5  UNL     1      39.060  -0.156  11.289  1.00  0.00    -0.390 OA
ATOM     28  H5  UNL     1      38.586  -0.541  10.560  1.00  0.00     0.210 HD
ENDBRANCH   2  27
BRANCH   6  29
HETATM   29  O13 UNL     1      37.396  -1.659  14.666  1.00  0.00    -0.390 OA
ATOM     30  H13 UNL     1      38.092  -2.256  14.916  1.00  0.00     0.210 HD
ENDBRANCH   6  29
BRANCH   3  31
HETATM   31  O6  UNL     1      36.825   1.269  10.171  1.00  0.00    -0.390 OA
ATOM     32  H6  UNL     1      36.826   2.214  10.271  1.00  0.00     0.210 HD
ENDBRANCH   3  31
BRANCH   5  33
HETATM   33  O8  UNL     1      36.676  -2.936  11.999  1.00  0.00    -0.348 OA
BRANCH  33  34
HETATM   34  C13 UNL     1      35.603  -3.766  12.363  1.00  0.00     0.292 C 
HETATM   35  O9  UNL     1      35.173  -4.321  11.157  1.00  0.00    -0.351 OA
HETATM   36  C14 UNL     1      34.400  -5.442  11.273  1.00  0.00     0.152 C 
HETATM   37  C15 UNL     1      33.113  -5.236  12.006  1.00  0.00     0.042 C 
HETATM   38  C16 UNL     1      35.171  -6.598  11.899  1.00  0.00     0.178 C 
HETATM   39  C17 UNL     1      35.570  -6.143  13.262  1.00  0.00     0.183 C 
HETATM   40  C18 UNL     1      36.113  -4.761  13.353  1.00  0.00     0.204 C 
BRANCH  38  41
HETATM   41  O10 UNL     1      34.249  -7.645  12.033  1.00  0.00    -0.390 OA
ATOM     42  H10 UNL     1      34.742  -8.382  12.375  1.00  0.00     0.210 HD
ENDBRANCH  38  41
BRANCH  39  43
HETATM   43  O11 UNL     1      36.555  -7.019  13.754  1.00  0.00    -0.390 OA
ATOM     44  H11 UNL     1      36.309  -7.288  14.632  1.00  0.00     0.210 HD
ENDBRANCH  39  43
BRANCH  40  45
HETATM   45  O12 UNL     1      35.757  -4.265  14.638  1.00  0.00    -0.388 OA
ATOM     46  H12 UNL     1      36.573  -4.078  15.088  1.00  0.00     0.210 HD
ENDBRANCH  40  45
ENDBRANCH  33  34
ENDBRANCH   5  33
BRANCH   4  47
HETATM   47  O7  UNL     1      35.040  -0.773  10.910  1.00  0.00    -0.390 OA
ATOM     48  H7  UNL     1      34.838  -1.605  10.497  1.00  0.00     0.210 HD
ENDBRANCH   4  47
TORSDOF 17
ENDMDL
