MODEL 1
REMARK VINA RESULT: -5.856714968      0.000      0.000
REMARK  5 active torsions:
REMARK  status: ('A' for Active; 'I' for Inactive)
REMARK    1  A    between atoms: C9_9  and  O1_10 
REMARK    2  A    between atoms: C10_12  and  N1_13 
REMARK    3  A    between atoms: N1_13  and  C11_15 
REMARK    4  A    between atoms: C11_15  and  C12_16 
REMARK    5  A    between atoms: C12_16  and  O2_17 
ROOT
HETATM    1  C1  UNL     1     -39.512  12.811  16.522  1.00  0.00     0.015 C 
HETATM    2  C2  UNL     1     -38.951  14.127  16.067  1.00  0.00    -0.041 C 
HETATM    3  C3  UNL     1     -37.929  14.635  17.061  1.00  0.00     0.014 C 
HETATM    4  C4  UNL     1     -37.496  15.979  16.612  1.00  0.00    -0.011 C 
HETATM    5  C5  UNL     1     -36.760  15.845  15.292  1.00  0.00     0.016 C 
HETATM    6  C6  UNL     1     -37.764  15.324  14.266  1.00  0.00    -0.015 C 
HETATM    7  C7  UNL     1     -37.000  15.113  12.979  1.00  0.00     0.018 C 
HETATM    8  C8  UNL     1     -38.286  13.978  14.704  1.00  0.00     0.021 C 
HETATM    9  C9  UNL     1     -38.817  16.377  14.131  1.00  0.00     0.154 C 
HETATM   10  C10 UNL     1     -39.620  16.483  15.426  1.00  0.00     0.057 C 
HETATM   11  C13 UNL     1     -38.643  16.964  16.457  1.00  0.00     0.038 C 
HETATM   12  C14 UNL     1     -40.074  15.078  15.888  1.00  0.00     0.042 C 
ENDROOT
BRANCH  10  13
HETATM   13  N1  UNL     1     -40.827  17.165  15.267  1.00  0.00    -0.388 N 
ATOM     14  H1  UNL     1     -41.665  16.589  15.184  1.00  0.00     0.159 HD
BRANCH  13  15
HETATM   15  C11 UNL     1     -41.012  18.524  15.208  1.00  0.00     0.082 C 
BRANCH  15  16
HETATM   16  C12 UNL     1     -41.934  18.965  14.112  1.00  0.00     0.208 C 
BRANCH  16  17
HETATM   17  O2  UNL     1     -42.185  17.846  13.301  1.00  0.00    -0.396 OA
ATOM     18  H2  UNL     1     -41.915  18.070  12.418  1.00  0.00     0.209 HD
ENDBRANCH  16  17
ENDBRANCH  15  16
ENDBRANCH  13  15
ENDBRANCH  10  13
BRANCH   9  19
HETATM   19  O1  UNL     1     -39.619  16.269  13.029  1.00  0.00    -0.392 OA
ATOM     20  H1  UNL     1     -40.551  16.362  13.190  1.00  0.00     0.210 HD
ENDBRANCH   9  19
TORSDOF 5
ENDMDL
MODEL 2
REMARK VINA RESULT: -5.195244498      0.990      1.036
REMARK  5 active torsions:
REMARK  status: ('A' for Active; 'I' for Inactive)
REMARK    1  A    between atoms: C9_9  and  O1_10 
REMARK    2  A    between atoms: C10_12  and  N1_13 
REMARK    3  A    between atoms: N1_13  and  C11_15 
REMARK    4  A    between atoms: C11_15  and  C12_16 
REMARK    5  A    between atoms: C12_16  and  O2_17 
ROOT
HETATM    1  C1  UNL     1     -39.723  12.772  16.373  1.00  0.00     0.015 C 
HETATM    2  C2  UNL     1     -39.086  14.079  16.002  1.00  0.00    -0.041 C 
HETATM    3  C3  UNL     1     -38.103  14.507  17.069  1.00  0.00     0.014 C 
HETATM    4  C4  UNL     1     -37.593  15.848  16.697  1.00  0.00    -0.011 C 
HETATM    5  C5  UNL     1     -36.789  15.732  15.415  1.00  0.00     0.016 C 
HETATM    6  C6  UNL     1     -37.753  15.291  14.316  1.00  0.00    -0.015 C 
HETATM    7  C7  UNL     1     -36.926  15.095  13.066  1.00  0.00     0.018 C 
HETATM    8  C8  UNL     1     -38.352  13.952  14.672  1.00  0.00     0.021 C 
HETATM    9  C9  UNL     1     -38.755  16.390  14.163  1.00  0.00     0.154 C 
HETATM   10  C10 UNL     1     -39.625  16.482  15.416  1.00  0.00     0.057 C 
HETATM   11  C13 UNL     1     -38.690  16.885  16.517  1.00  0.00     0.038 C 
HETATM   12  C14 UNL     1     -40.159  15.081  15.797  1.00  0.00     0.042 C 
ENDROOT
BRANCH  10  13
HETATM   13  N1  UNL     1     -40.793  17.218  15.216  1.00  0.00    -0.388 N 
ATOM     14  H1  UNL     1     -41.639  16.683  15.021  1.00  0.00     0.159 HD
BRANCH  13  15
HETATM   15  C11 UNL     1     -40.931  18.584  15.254  1.00  0.00     0.082 C 
BRANCH  15  16
HETATM   16  C12 UNL     1     -42.113  19.054  16.047  1.00  0.00     0.208 C 
BRANCH  16  17
HETATM   17  O2  UNL     1     -42.110  20.458  16.010  1.00  0.00    -0.396 OA
ATOM     18  H2  UNL     1     -42.999  20.738  15.825  1.00  0.00     0.209 HD
ENDBRANCH  16  17
ENDBRANCH  15  16
ENDBRANCH  13  15
ENDBRANCH  10  13
BRANCH   9  19
HETATM   19  O1  UNL     1     -39.497  16.356  13.016  1.00  0.00    -0.392 OA
ATOM     20  H1  UNL     1     -39.671  15.490  12.666  1.00  0.00     0.210 HD
ENDBRANCH   9  19
TORSDOF 5
ENDMDL
MODEL 3
REMARK VINA RESULT: -5.048589671      1.046      1.646
REMARK  5 active torsions:
REMARK  status: ('A' for Active; 'I' for Inactive)
REMARK    1  A    between atoms: C9_9  and  O1_10 
REMARK    2  A    between atoms: C10_12  and  N1_13 
REMARK    3  A    between atoms: N1_13  and  C11_15 
REMARK    4  A    between atoms: C11_15  and  C12_16 
REMARK    5  A    between atoms: C12_16  and  O2_17 
ROOT
HETATM    1  C1  UNL     1     -38.755  15.225  17.841  1.00  0.00     0.015 C 
HETATM    2  C2  UNL     1     -38.306  15.422  16.422  1.00  0.00    -0.041 C 
HETATM    3  C3  UNL     1     -36.803  15.590  16.365  1.00  0.00     0.014 C 
HETATM    4  C4  UNL     1     -36.439  15.887  14.960  1.00  0.00    -0.011 C 
HETATM    5  C5  UNL     1     -36.753  14.676  14.102  1.00  0.00     0.016 C 
HETATM    6  C6  UNL     1     -38.266  14.472  14.146  1.00  0.00    -0.015 C 
HETATM    7  C7  UNL     1     -38.558  13.214  13.360  1.00  0.00     0.018 C 
HETATM    8  C8  UNL     1     -38.704  14.224  15.569  1.00  0.00     0.021 C 
HETATM    9  C9  UNL     1     -38.877  15.684  13.519  1.00  0.00     0.154 C 
HETATM   10  C10 UNL     1     -38.633  16.908  14.399  1.00  0.00     0.057 C 
HETATM   11  C13 UNL     1     -37.147  17.108  14.395  1.00  0.00     0.038 C 
HETATM   12  C14 UNL     1     -39.020  16.595  15.865  1.00  0.00     0.042 C 
ENDROOT
BRANCH  10  13
HETATM   13  N1  UNL     1     -39.463  17.984  14.081  1.00  0.00    -0.388 N 
ATOM     14  H1  UNL     1     -39.308  18.423  13.173  1.00  0.00     0.159 HD
BRANCH  13  15
HETATM   15  C11 UNL     1     -40.464  18.518  14.855  1.00  0.00     0.082 C 
BRANCH  15  16
HETATM   16  C12 UNL     1     -41.684  18.915  14.080  1.00  0.00     0.208 C 
BRANCH  16  17
HETATM   17  O2  UNL     1     -42.101  17.788  13.351  1.00  0.00    -0.396 OA
ATOM     18  H2  UNL     1     -42.789  18.072  12.760  1.00  0.00     0.209 HD
ENDBRANCH  16  17
ENDBRANCH  15  16
ENDBRANCH  13  15
ENDBRANCH  10  13
BRANCH   9  19
HETATM   19  O1  UNL     1     -40.187  15.560  13.150  1.00  0.00    -0.392 OA
ATOM     20  H1  UNL     1     -40.565  16.317  12.719  1.00  0.00     0.210 HD
ENDBRANCH   9  19
TORSDOF 5
ENDMDL
MODEL 4
REMARK VINA RESULT: -5.039869221      1.885      3.945
REMARK  5 active torsions:
REMARK  status: ('A' for Active; 'I' for Inactive)
REMARK    1  A    between atoms: C9_9  and  O1_10 
REMARK    2  A    between atoms: C10_12  and  N1_13 
REMARK    3  A    between atoms: N1_13  and  C11_15 
REMARK    4  A    between atoms: C11_15  and  C12_16 
REMARK    5  A    between atoms: C12_16  and  O2_17 
ROOT
HETATM    1  C1  UNL     1     -36.878  15.191  12.691  1.00  0.00     0.015 C 
HETATM    2  C2  UNL     1     -37.542  15.354  14.028  1.00  0.00    -0.041 C 
HETATM    3  C3  UNL     1     -36.517  15.699  15.086  1.00  0.00     0.014 C 
HETATM    4  C4  UNL     1     -37.217  15.738  16.392  1.00  0.00    -0.011 C 
HETATM    5  C5  UNL     1     -38.209  16.886  16.386  1.00  0.00     0.016 C 
HETATM    6  C6  UNL     1     -39.255  16.573  15.318  1.00  0.00    -0.015 C 
HETATM    7  C7  UNL     1     -40.187  17.762  15.261  1.00  0.00     0.018 C 
HETATM    8  C8  UNL     1     -38.588  16.461  13.969  1.00  0.00     0.021 C 
HETATM    9  C9  UNL     1     -39.955  15.328  15.762  1.00  0.00     0.154 C 
HETATM   10  C10 UNL     1     -38.994  14.142  15.711  1.00  0.00     0.057 C 
HETATM   11  C13 UNL     1     -37.939  14.444  16.732  1.00  0.00     0.038 C 
HETATM   12  C14 UNL     1     -38.270  14.102  14.344  1.00  0.00     0.042 C 
ENDROOT
BRANCH  10  13
HETATM   13  N1  UNL     1     -39.645  12.909  15.755  1.00  0.00    -0.388 N 
ATOM     14  H1  UNL     1     -40.229  12.733  16.573  1.00  0.00     0.159 HD
BRANCH  13  15
HETATM   15  C11 UNL     1     -39.588  11.905  14.820  1.00  0.00     0.082 C 
BRANCH  15  16
HETATM   16  C12 UNL     1     -40.927  11.493  14.287  1.00  0.00     0.208 C 
BRANCH  16  17
HETATM   17  O2  UNL     1     -41.403  12.549  13.491  1.00  0.00    -0.396 OA
ATOM     18  H2  UNL     1     -42.271  12.772  13.808  1.00  0.00     0.209 HD
ENDBRANCH  16  17
ENDBRANCH  15  16
ENDBRANCH  13  15
ENDBRANCH  10  13
BRANCH   9  19
HETATM   19  O1  UNL     1     -41.141  15.065  15.137  1.00  0.00    -0.392 OA
ATOM     20  H1  UNL     1     -41.381  14.147  15.083  1.00  0.00     0.210 HD
ENDBRANCH   9  19
TORSDOF 5
ENDMDL
MODEL 5
REMARK VINA RESULT: -4.999546516      1.074      1.346
REMARK  5 active torsions:
REMARK  status: ('A' for Active; 'I' for Inactive)
REMARK    1  A    between atoms: C9_9  and  O1_10 
REMARK    2  A    between atoms: C10_12  and  N1_13 
REMARK    3  A    between atoms: N1_13  and  C11_15 
REMARK    4  A    between atoms: C11_15  and  C12_16 
REMARK    5  A    between atoms: C12_16  and  O2_17 
ROOT
HETATM    1  C1  UNL     1     -41.533  14.469  17.468  1.00  0.00     0.015 C 
HETATM    2  C2  UNL     1     -40.343  14.969  16.700  1.00  0.00    -0.041 C 
HETATM    3  C3  UNL     1     -39.112  14.967  17.578  1.00  0.00     0.014 C 
HETATM    4  C4  UNL     1     -38.005  15.570  16.799  1.00  0.00    -0.011 C 
HETATM    5  C5  UNL     1     -37.678  14.665  15.625  1.00  0.00     0.016 C 
HETATM    6  C6  UNL     1     -38.909  14.638  14.721  1.00  0.00    -0.015 C 
HETATM    7  C7  UNL     1     -38.604  13.667  13.602  1.00  0.00     0.018 C 
HETATM    8  C8  UNL     1     -40.088  14.086  15.484  1.00  0.00     0.021 C 
HETATM    9  C9  UNL     1     -39.100  16.034  14.221  1.00  0.00     0.154 C 
HETATM   10  C10 UNL     1     -39.498  16.953  15.374  1.00  0.00     0.057 C 
HETATM   11  C13 UNL     1     -38.312  16.970  16.292  1.00  0.00     0.038 C 
HETATM   12  C14 UNL     1     -40.657  16.322  16.182  1.00  0.00     0.042 C 
ENDROOT
BRANCH  10  13
HETATM   13  N1  UNL     1     -40.040  18.165  14.945  1.00  0.00    -0.388 N 
ATOM     14  H1  UNL     1     -39.443  18.745  14.355  1.00  0.00     0.159 HD
BRANCH  13  15
HETATM   15  C11 UNL     1     -41.287  18.664  15.229  1.00  0.00     0.082 C 
BRANCH  15  16
HETATM   16  C12 UNL     1     -42.080  19.046  14.016  1.00  0.00     0.208 C 
BRANCH  16  17
HETATM   17  O2  UNL     1     -42.291  17.875  13.269  1.00  0.00    -0.396 OA
ATOM     18  H2  UNL     1     -42.054  18.068  12.369  1.00  0.00     0.209 HD
ENDBRANCH  16  17
ENDBRANCH  15  16
ENDBRANCH  13  15
ENDBRANCH  10  13
BRANCH   9  19
HETATM   19  O1  UNL     1     -39.928  16.164  13.142  1.00  0.00    -0.392 OA
ATOM     20  H1  UNL     1     -40.239  15.350  12.762  1.00  0.00     0.210 HD
ENDBRANCH   9  19
TORSDOF 5
ENDMDL
