MODEL 1
REMARK VINA RESULT: -8.108264814      0.000      0.000
REMARK  11 active torsions:
REMARK  status: ('A' for Active; 'I' for Inactive)
REMARK    1  A    between atoms: O1_2  and  C2_3 
REMARK    2  A    between atoms: C2_3  and  C3_4 
REMARK    3  A    between atoms: C3_4  and  C4_5 
REMARK    4  A    between atoms: C4_5  and  N1_6 
REMARK       I    between atoms: N1_6  and  C5_8 
REMARK    5  A    between atoms: C5_8  and  C6_10 
REMARK    6  A    between atoms: C9_13  and  C10_14 
REMARK    7  A    between atoms: C9_13  and  O3_20 
REMARK    8  A    between atoms: C10_14  and  N2_15 
REMARK    9  A    between atoms: O3_20  and  C15_21 
REMARK   10  A    between atoms: C15_21  and  N4_26 
REMARK   11  A    between atoms: N3_22  and  O4_24 
REMARK       I    between atoms: N4_26  and  C16_28 
ROOT
HETATM    1  C6  UNL     1       2.514   2.878  16.001  1.00  0.00     0.078 C 
HETATM    2  C7  UNL     1       1.727   2.566  17.286  1.00  0.00     0.017 C 
HETATM    3  C8  UNL     1       1.457   3.964  17.883  1.00  0.00     0.041 C 
HETATM    4  C9  UNL     1       2.672   4.396  18.570  1.00  0.00     0.097 C 
HETATM    5  C17 UNL     1       3.765   4.515  17.481  1.00  0.00     0.041 C 
HETATM    6  C18 UNL     1       3.327   4.110  16.123  1.00  0.00     0.017 C 
ENDROOT
BRANCH   4   7
HETATM    7  C10 UNL     1       2.575   5.755  19.181  1.00  0.00     0.310 C 
BRANCH   7   8
HETATM    8  N2  UNL     1       1.263   6.228  19.442  1.00  0.00     0.091 N 
HETATM    9  C11 UNL     1       1.330   7.671  19.829  1.00  0.00     0.272 C 
HETATM   10  C12 UNL     1       2.072   7.652  21.144  1.00  0.00     0.032 C 
HETATM   11  C13 UNL     1       1.627   6.349  21.729  1.00  0.00     0.032 C 
HETATM   12  C14 UNL     1       0.687   5.747  20.680  1.00  0.00     0.272 C 
ENDBRANCH   7   8
ENDBRANCH   4   7
BRANCH   4  13
HETATM   13  O3  UNL     1       3.224   3.449  19.465  1.00  0.00    -0.307 OA
BRANCH  13  14
HETATM   14  C15 UNL     1       3.898   3.722  20.614  1.00  0.00     0.248 C 
HETATM   15  N3  UNL     1       4.979   4.360  20.536  1.00  0.00    -0.232 N 
ATOM     16  H3  UNL     1       5.327   4.656  19.624  1.00  0.00     0.198 HD
BRANCH  15  17
HETATM   17  O4  UNL     1       5.692   4.659  21.665  1.00  0.00    -0.287 OA
ATOM     18  H4  UNL     1       5.867   3.989  22.316  1.00  0.00     0.244 HD
ENDBRANCH  15  17
BRANCH  14  19
HETATM   19  N4  UNL     1       3.416   3.307  21.903  1.00  0.00    -0.275 N 
HETATM   20  C16 UNL     1       4.178   2.369  22.614  1.00  0.00     0.335 C 
HETATM   21  N5  UNL     1       3.760   1.926  23.885  1.00  0.00    -0.040 NA
HETATM   22  O5  UNL     1       5.233   1.917  22.129  1.00  0.00    -0.251 OA
ATOM     23  H4  UNL     1       2.549   3.682  22.287  1.00  0.00     0.173 HD
ENDBRANCH  14  19
ENDBRANCH  13  14
ENDBRANCH   4  13
BRANCH   1  24
HETATM   24  C5  UNL     1       3.187   1.698  15.486  1.00  0.00     0.221 C 
HETATM   25  N1  UNL     1       3.805   0.748  16.296  1.00  0.00    -0.361 N 
ATOM     26  H1  UNL     1       3.777   0.881  17.306  1.00  0.00     0.162 HD
HETATM   27  O2  UNL     1       3.204   1.547  14.220  1.00  0.00    -0.273 OA
BRANCH  25  28
HETATM   28  C4  UNL     1       4.483  -0.413  15.778  1.00  0.00     0.124 C 
BRANCH  28  29
HETATM   29  C3  UNL     1       3.673  -1.665  15.759  1.00  0.00     0.046 C 
BRANCH  29  30
HETATM   30  C2  UNL     1       4.624  -2.801  16.181  1.00  0.00     0.168 C 
BRANCH  30  31
HETATM   31  O1  UNL     1       5.685  -2.802  15.286  1.00  0.00    -0.396 OA
HETATM   32  C1  UNL     1       6.352  -4.022  15.259  1.00  0.00     0.201 C 
ENDBRANCH  30  31
ENDBRANCH  29  30
ENDBRANCH  28  29
ENDBRANCH  25  28
ENDBRANCH   1  24
TORSDOF 11
ENDMDL
MODEL 2
REMARK VINA RESULT: -8.042387421      3.679      7.756
REMARK  11 active torsions:
REMARK  status: ('A' for Active; 'I' for Inactive)
REMARK    1  A    between atoms: O1_2  and  C2_3 
REMARK    2  A    between atoms: C2_3  and  C3_4 
REMARK    3  A    between atoms: C3_4  and  C4_5 
REMARK    4  A    between atoms: C4_5  and  N1_6 
REMARK       I    between atoms: N1_6  and  C5_8 
REMARK    5  A    between atoms: C5_8  and  C6_10 
REMARK    6  A    between atoms: C9_13  and  C10_14 
REMARK    7  A    between atoms: C9_13  and  O3_20 
REMARK    8  A    between atoms: C10_14  and  N2_15 
REMARK    9  A    between atoms: O3_20  and  C15_21 
REMARK   10  A    between atoms: C15_21  and  N4_26 
REMARK   11  A    between atoms: N3_22  and  O4_24 
REMARK       I    between atoms: N4_26  and  C16_28 
ROOT
HETATM    1  C6  UNL     1      -0.430   6.853  21.419  1.00  0.00     0.078 C 
HETATM    2  C7  UNL     1       1.093   7.062  21.499  1.00  0.00     0.017 C 
HETATM    3  C8  UNL     1       1.593   6.538  20.136  1.00  0.00     0.041 C 
HETATM    4  C9  UNL     1       1.652   5.081  20.214  1.00  0.00     0.097 C 
HETATM    5  C17 UNL     1       0.198   4.601  20.435  1.00  0.00     0.041 C 
HETATM    6  C18 UNL     1      -0.795   5.693  20.575  1.00  0.00     0.017 C 
ENDROOT
BRANCH   4   7
HETATM    7  C10 UNL     1       2.095   4.420  18.950  1.00  0.00     0.310 C 
BRANCH   7   8
HETATM    8  N2  UNL     1       2.634   5.278  17.956  1.00  0.00     0.091 N 
HETATM    9  C11 UNL     1       1.705   5.316  16.785  1.00  0.00     0.272 C 
HETATM   10  C12 UNL     1       1.757   3.908  16.242  1.00  0.00     0.032 C 
HETATM   11  C13 UNL     1       3.168   3.514  16.548  1.00  0.00     0.032 C 
HETATM   12  C14 UNL     1       3.774   4.734  17.249  1.00  0.00     0.272 C 
ENDBRANCH   7   8
ENDBRANCH   4   7
BRANCH   4  13
HETATM   13  O3  UNL     1       2.327   4.567  21.347  1.00  0.00    -0.307 OA
BRANCH  13  14
HETATM   14  C15 UNL     1       3.633   4.193  21.408  1.00  0.00     0.248 C 
HETATM   15  N3  UNL     1       4.510   5.093  21.447  1.00  0.00    -0.232 N 
ATOM     16  H3  UNL     1       4.230   6.074  21.432  1.00  0.00     0.198 HD
BRANCH  15  17
HETATM   17  O4  UNL     1       5.838   4.767  21.510  1.00  0.00    -0.287 OA
ATOM     18  H4  UNL     1       6.502   5.447  21.508  1.00  0.00     0.244 HD
ENDBRANCH  15  17
BRANCH  14  19
HETATM   19  N4  UNL     1       4.036   2.814  21.429  1.00  0.00    -0.275 N 
HETATM   20  C16 UNL     1       4.033   2.151  22.664  1.00  0.00     0.335 C 
HETATM   21  N5  UNL     1       4.414   0.797  22.748  1.00  0.00    -0.040 NA
HETATM   22  O5  UNL     1       3.693   2.753  23.701  1.00  0.00    -0.251 OA
ATOM     23  H4  UNL     1       4.315   2.334  20.573  1.00  0.00     0.173 HD
ENDBRANCH  14  19
ENDBRANCH  13  14
ENDBRANCH   4  13
BRANCH   1  24
HETATM   24  C5  UNL     1      -1.050   6.931  22.730  1.00  0.00     0.221 C 
HETATM   25  N1  UNL     1      -2.424   7.049  22.927  1.00  0.00    -0.361 N 
ATOM     26  H1  UNL     1      -3.030   7.074  22.108  1.00  0.00     0.162 HD
HETATM   27  O2  UNL     1      -0.275   6.889  23.742  1.00  0.00    -0.273 OA
BRANCH  25  28
HETATM   28  C4  UNL     1      -3.032   7.139  24.230  1.00  0.00     0.124 C 
BRANCH  28  29
HETATM   29  C3  UNL     1      -4.246   6.295  24.424  1.00  0.00     0.046 C 
BRANCH  29  30
HETATM   30  C2  UNL     1      -3.740   4.876  24.742  1.00  0.00     0.168 C 
BRANCH  30  31
HETATM   31  O1  UNL     1      -3.493   4.246  23.530  1.00  0.00    -0.396 OA
HETATM   32  C1  UNL     1      -4.550   3.434  23.132  1.00  0.00     0.201 C 
ENDBRANCH  30  31
ENDBRANCH  29  30
ENDBRANCH  28  29
ENDBRANCH  25  28
ENDBRANCH   1  24
TORSDOF 11
ENDMDL
MODEL 3
REMARK VINA RESULT: -7.920421809      3.334      7.646
REMARK  11 active torsions:
REMARK  status: ('A' for Active; 'I' for Inactive)
REMARK    1  A    between atoms: O1_2  and  C2_3 
REMARK    2  A    between atoms: C2_3  and  C3_4 
REMARK    3  A    between atoms: C3_4  and  C4_5 
REMARK    4  A    between atoms: C4_5  and  N1_6 
REMARK       I    between atoms: N1_6  and  C5_8 
REMARK    5  A    between atoms: C5_8  and  C6_10 
REMARK    6  A    between atoms: C9_13  and  C10_14 
REMARK    7  A    between atoms: C9_13  and  O3_20 
REMARK    8  A    between atoms: C10_14  and  N2_15 
REMARK    9  A    between atoms: O3_20  and  C15_21 
REMARK   10  A    between atoms: C15_21  and  N4_26 
REMARK   11  A    between atoms: N3_22  and  O4_24 
REMARK       I    between atoms: N4_26  and  C16_28 
ROOT
HETATM    1  C6  UNL     1      -0.312   6.418  20.707  1.00  0.00     0.078 C 
HETATM    2  C7  UNL     1       0.917   7.202  20.213  1.00  0.00     0.017 C 
HETATM    3  C8  UNL     1       1.405   6.371  19.006  1.00  0.00     0.041 C 
HETATM    4  C9  UNL     1       2.167   5.239  19.526  1.00  0.00     0.097 C 
HETATM    5  C17 UNL     1       1.171   4.390  20.352  1.00  0.00     0.041 C 
HETATM    6  C18 UNL     1      -0.193   4.965  20.449  1.00  0.00     0.017 C 
ENDROOT
BRANCH   4   7
HETATM    7  C10 UNL     1       2.685   4.318  18.470  1.00  0.00     0.310 C 
BRANCH   7   8
HETATM    8  N2  UNL     1       1.888   4.198  17.302  1.00  0.00     0.091 N 
HETATM    9  C11 UNL     1       1.980   2.798  16.788  1.00  0.00     0.272 C 
HETATM   10  C12 UNL     1       3.423   2.667  16.363  1.00  0.00     0.032 C 
HETATM   11  C13 UNL     1       3.734   4.057  15.906  1.00  0.00     0.032 C 
HETATM   12  C14 UNL     1       2.440   4.845  16.131  1.00  0.00     0.272 C 
ENDBRANCH   7   8
ENDBRANCH   4   7
BRANCH   4  13
HETATM   13  O3  UNL     1       3.161   5.570  20.478  1.00  0.00    -0.307 OA
BRANCH  13  14
HETATM   14  C15 UNL     1       3.120   5.311  21.812  1.00  0.00     0.248 C 
HETATM   15  N3  UNL     1       2.964   6.277  22.603  1.00  0.00    -0.232 N 
ATOM     16  H3  UNL     1       2.874   7.223  22.234  1.00  0.00     0.198 HD
BRANCH  15  17
HETATM   17  O4  UNL     1       2.915   6.066  23.954  1.00  0.00    -0.287 OA
ATOM     18  H4  UNL     1       3.618   6.373  24.515  1.00  0.00     0.244 HD
ENDBRANCH  15  17
BRANCH  14  19
HETATM   19  N4  UNL     1       3.247   3.981  22.340  1.00  0.00    -0.275 N 
HETATM   20  C16 UNL     1       4.307   3.191  21.872  1.00  0.00     0.335 C 
HETATM   21  N5  UNL     1       4.488   1.880  22.355  1.00  0.00    -0.040 NA
HETATM   22  O5  UNL     1       5.102   3.642  21.024  1.00  0.00    -0.251 OA
ATOM     23  H4  UNL     1       2.588   3.623  23.031  1.00  0.00     0.173 HD
ENDBRANCH  14  19
ENDBRANCH  13  14
ENDBRANCH   4  13
BRANCH   1  24
HETATM   24  C5  UNL     1      -0.696   6.816  22.049  1.00  0.00     0.221 C 
HETATM   25  N1  UNL     1      -2.005   6.763  22.524  1.00  0.00    -0.361 N 
ATOM     26  H1  UNL     1      -2.733   6.417  21.900  1.00  0.00     0.162 HD
HETATM   27  O2  UNL     1       0.231   7.236  22.818  1.00  0.00    -0.273 OA
BRANCH  25  28
HETATM   28  C4  UNL     1      -2.383   7.172  23.853  1.00  0.00     0.124 C 
BRANCH  28  29
HETATM   29  C3  UNL     1      -2.655   6.058  24.807  1.00  0.00     0.046 C 
BRANCH  29  30
HETATM   30  C2  UNL     1      -3.897   5.324  24.271  1.00  0.00     0.168 C 
BRANCH  30  31
HETATM   31  O1  UNL     1      -3.447   4.258  23.505  1.00  0.00    -0.396 OA
HETATM   32  C1  UNL     1      -4.484   3.429  23.091  1.00  0.00     0.201 C 
ENDBRANCH  30  31
ENDBRANCH  29  30
ENDBRANCH  28  29
ENDBRANCH  25  28
ENDBRANCH   1  24
TORSDOF 11
ENDMDL
MODEL 4
REMARK VINA RESULT: -7.859948364      3.695      7.976
REMARK  11 active torsions:
REMARK  status: ('A' for Active; 'I' for Inactive)
REMARK    1  A    between atoms: O1_2  and  C2_3 
REMARK    2  A    between atoms: C2_3  and  C3_4 
REMARK    3  A    between atoms: C3_4  and  C4_5 
REMARK    4  A    between atoms: C4_5  and  N1_6 
REMARK       I    between atoms: N1_6  and  C5_8 
REMARK    5  A    between atoms: C5_8  and  C6_10 
REMARK    6  A    between atoms: C9_13  and  C10_14 
REMARK    7  A    between atoms: C9_13  and  O3_20 
REMARK    8  A    between atoms: C10_14  and  N2_15 
REMARK    9  A    between atoms: O3_20  and  C15_21 
REMARK   10  A    between atoms: C15_21  and  N4_26 
REMARK   11  A    between atoms: N3_22  and  O4_24 
REMARK       I    between atoms: N4_26  and  C16_28 
ROOT
HETATM    1  C6  UNL     1      -0.057   6.922  21.212  1.00  0.00     0.078 C 
HETATM    2  C7  UNL     1       1.462   7.088  21.392  1.00  0.00     0.017 C 
HETATM    3  C8  UNL     1       2.034   6.589  20.048  1.00  0.00     0.041 C 
HETATM    4  C9  UNL     1       2.052   5.129  20.087  1.00  0.00     0.097 C 
HETATM    5  C17 UNL     1       0.576   4.682  20.204  1.00  0.00     0.041 C 
HETATM    6  C18 UNL     1      -0.398   5.795  20.313  1.00  0.00     0.017 C 
ENDROOT
BRANCH   4   7
HETATM    7  C10 UNL     1       2.558   4.492  18.834  1.00  0.00     0.310 C 
BRANCH   7   8
HETATM    8  N2  UNL     1       1.647   4.446  17.747  1.00  0.00     0.091 N 
HETATM    9  C11 UNL     1       2.052   3.350  16.815  1.00  0.00     0.272 C 
HETATM   10  C12 UNL     1       3.380   3.818  16.270  1.00  0.00     0.032 C 
HETATM   11  C13 UNL     1       3.197   5.303  16.250  1.00  0.00     0.032 C 
HETATM   12  C14 UNL     1       1.786   5.533  16.802  1.00  0.00     0.272 C 
ENDBRANCH   7   8
ENDBRANCH   4   7
BRANCH   4  13
HETATM   13  O3  UNL     1       2.642   4.567  21.245  1.00  0.00    -0.307 OA
BRANCH  13  14
HETATM   14  C15 UNL     1       3.943   4.202  21.391  1.00  0.00     0.248 C 
HETATM   15  N3  UNL     1       4.813   5.108  21.466  1.00  0.00    -0.232 N 
ATOM     16  H3  UNL     1       4.529   6.086  21.416  1.00  0.00     0.198 HD
BRANCH  15  17
HETATM   17  O4  UNL     1       6.135   4.790  21.616  1.00  0.00    -0.287 OA
ATOM     18  H4  UNL     1       6.520   4.081  21.112  1.00  0.00     0.244 HD
ENDBRANCH  15  17
BRANCH  14  19
HETATM   19  N4  UNL     1       4.351   2.826  21.462  1.00  0.00    -0.275 N 
HETATM   20  C16 UNL     1       4.174   2.154  22.679  1.00  0.00     0.335 C 
HETATM   21  N5  UNL     1       4.549   0.802  22.810  1.00  0.00    -0.040 NA
HETATM   22  O5  UNL     1       3.681   2.745  23.660  1.00  0.00    -0.251 OA
ATOM     23  H4  UNL     1       4.755   2.354  20.653  1.00  0.00     0.173 HD
ENDBRANCH  14  19
ENDBRANCH  13  14
ENDBRANCH   4  13
BRANCH   1  24
HETATM   24  C5  UNL     1      -0.756   6.979  22.483  1.00  0.00     0.221 C 
HETATM   25  N1  UNL     1      -2.144   7.033  22.598  1.00  0.00    -0.361 N 
ATOM     26  H1  UNL     1      -2.702   7.022  21.745  1.00  0.00     0.162 HD
HETATM   27  O2  UNL     1      -0.041   6.983  23.539  1.00  0.00    -0.273 OA
BRANCH  25  28
HETATM   28  C4  UNL     1      -2.832   7.103  23.862  1.00  0.00     0.124 C 
BRANCH  28  29
HETATM   29  C3  UNL     1      -3.333   5.800  24.386  1.00  0.00     0.046 C 
BRANCH  29  30
HETATM   30  C2  UNL     1      -3.064   5.812  25.902  1.00  0.00     0.168 C 
BRANCH  30  31
HETATM   31  O1  UNL     1      -2.034   6.715  26.130  1.00  0.00    -0.396 OA
HETATM   32  C1  UNL     1      -1.096   6.229  27.035  1.00  0.00     0.201 C 
ENDBRANCH  30  31
ENDBRANCH  29  30
ENDBRANCH  28  29
ENDBRANCH  25  28
ENDBRANCH   1  24
TORSDOF 11
ENDMDL
MODEL 5
REMARK VINA RESULT: -7.793952331      3.413      7.724
REMARK  11 active torsions:
REMARK  status: ('A' for Active; 'I' for Inactive)
REMARK    1  A    between atoms: O1_2  and  C2_3 
REMARK    2  A    between atoms: C2_3  and  C3_4 
REMARK    3  A    between atoms: C3_4  and  C4_5 
REMARK    4  A    between atoms: C4_5  and  N1_6 
REMARK       I    between atoms: N1_6  and  C5_8 
REMARK    5  A    between atoms: C5_8  and  C6_10 
REMARK    6  A    between atoms: C9_13  and  C10_14 
REMARK    7  A    between atoms: C9_13  and  O3_20 
REMARK    8  A    between atoms: C10_14  and  N2_15 
REMARK    9  A    between atoms: O3_20  and  C15_21 
REMARK   10  A    between atoms: C15_21  and  N4_26 
REMARK   11  A    between atoms: N3_22  and  O4_24 
REMARK       I    between atoms: N4_26  and  C16_28 
ROOT
HETATM    1  C6  UNL     1      -0.104   6.895  20.273  1.00  0.00     0.078 C 
HETATM    2  C7  UNL     1       1.282   7.409  19.845  1.00  0.00     0.017 C 
HETATM    3  C8  UNL     1       1.502   6.732  18.474  1.00  0.00     0.041 C 
HETATM    4  C9  UNL     1       1.936   5.360  18.721  1.00  0.00     0.097 C 
HETATM    5  C17 UNL     1       0.764   4.659  19.446  1.00  0.00     0.041 C 
HETATM    6  C18 UNL     1      -0.390   5.541  19.745  1.00  0.00     0.017 C 
ENDROOT
BRANCH   4   7
HETATM    7  C10 UNL     1       2.164   4.561  17.479  1.00  0.00     0.310 C 
BRANCH   7   8
HETATM    8  N2  UNL     1       3.501   4.151  17.240  1.00  0.00     0.091 N 
HETATM    9  C11 UNL     1       4.105   5.030  16.193  1.00  0.00     0.272 C 
HETATM   10  C12 UNL     1       3.306   4.707  14.953  1.00  0.00     0.032 C 
HETATM   11  C13 UNL     1       2.988   3.261  15.162  1.00  0.00     0.032 C 
HETATM   12  C14 UNL     1       3.625   2.907  16.509  1.00  0.00     0.272 C 
ENDBRANCH   7   8
ENDBRANCH   4   7
BRANCH   4  13
HETATM   13  O3  UNL     1       3.001   5.224  19.643  1.00  0.00    -0.307 OA
BRANCH  13  14
HETATM   14  C15 UNL     1       3.014   4.436  20.751  1.00  0.00     0.248 C 
HETATM   15  N3  UNL     1       3.513   3.285  20.660  1.00  0.00    -0.232 N 
ATOM     16  H3  UNL     1       3.893   2.968  19.768  1.00  0.00     0.198 HD
BRANCH  15  17
HETATM   17  O4  UNL     1       3.549   2.456  21.748  1.00  0.00    -0.287 OA
ATOM     18  H4  UNL     1       2.822   2.430  22.358  1.00  0.00     0.244 HD
ENDBRANCH  15  17
BRANCH  14  19
HETATM   19  N4  UNL     1       2.479   4.875  22.011  1.00  0.00    -0.275 N 
HETATM   20  C16 UNL     1       3.155   5.901  22.686  1.00  0.00     0.335 C 
HETATM   21  N5  UNL     1       2.677   6.378  23.922  1.00  0.00    -0.040 NA
HETATM   22  O5  UNL     1       4.186   6.403  22.197  1.00  0.00    -0.251 OA
ATOM     23  H4  UNL     1       1.636   4.453  22.400  1.00  0.00     0.173 HD
ENDBRANCH  14  19
ENDBRANCH  13  14
ENDBRANCH   4  13
BRANCH   1  24
HETATM   24  C5  UNL     1      -0.339   7.108  21.690  1.00  0.00     0.221 C 
HETATM   25  N1  UNL     1      -1.509   6.725  22.343  1.00  0.00    -0.361 N 
ATOM     26  H1  UNL     1      -2.237   6.261  21.801  1.00  0.00     0.162 HD
HETATM   27  O2  UNL     1       0.587   7.682  22.352  1.00  0.00    -0.273 OA
BRANCH  25  28
HETATM   28  C4  UNL     1      -1.742   6.952  23.747  1.00  0.00     0.124 C 
BRANCH  28  29
HETATM   29  C3  UNL     1      -3.168   6.867  24.176  1.00  0.00     0.046 C 
BRANCH  29  30
HETATM   30  C2  UNL     1      -3.388   5.422  24.661  1.00  0.00     0.168 C 
BRANCH  30  31
HETATM   31  O1  UNL     1      -3.312   4.598  23.547  1.00  0.00    -0.396 OA
HETATM   32  C1  UNL     1      -4.338   3.660  23.513  1.00  0.00     0.201 C 
ENDBRANCH  30  31
ENDBRANCH  29  30
ENDBRANCH  28  29
ENDBRANCH  25  28
ENDBRANCH   1  24
TORSDOF 11
ENDMDL
