MODEL 1
REMARK VINA RESULT: -8.835093596      0.000      0.000
REMARK  8 active torsions:
REMARK  status: ('A' for Active; 'I' for Inactive)
REMARK    1  A    between atoms: C2_2  and  N1_3 
REMARK    2  A    between atoms: N1_3  and  C3_4 
REMARK    3  A    between atoms: N1_3  and  C17_35 
REMARK    4  A    between atoms: C8_15  and  C9_16 
REMARK    5  A    between atoms: C12_25  and  N8_26 
REMARK    6  A    between atoms: N8_26  and  C13_28 
REMARK    7  A    between atoms: C13_28  and  C14_29 
REMARK    8  A    between atoms: C14_29  and  O1_30 
ROOT
HETATM    1  C3  UNL     1       2.397   5.584  20.017  1.00  0.00     0.119 A 
HETATM    2  N2  UNL     1       1.967   6.266  18.888  1.00  0.00    -0.327 N 
ATOM      3  H2  UNL     1       1.329   7.051  19.012  1.00  0.00     0.169 HD
HETATM    4  C4  UNL     1       2.343   5.949  17.651  1.00  0.00     0.121 A 
HETATM    5  N3  UNL     1       1.898   6.636  16.633  1.00  0.00    -0.384 N 
ATOM      6  H31 UNL     1       2.186   6.393  15.685  1.00  0.00     0.157 HD
ATOM      7  H32 UNL     1       1.261   7.413  16.811  1.00  0.00     0.157 HD
HETATM    8  C5  UNL     1       3.201   4.901  17.411  1.00  0.00     0.089 A 
HETATM    9  C6  UNL     1       3.640   4.510  16.104  1.00  0.00     0.103 C 
HETATM   10  N4  UNL     1       4.010   4.200  15.063  1.00  0.00    -0.191 NA
HETATM   11  C7  UNL     1       3.644   4.210  18.490  1.00  0.00     0.045 A 
HETATM   12  C8  UNL     1       3.245   4.547  19.812  1.00  0.00     0.054 A 
ENDROOT
BRANCH  12  13
HETATM   13  C9  UNL     1       3.861   3.757  20.861  1.00  0.00     0.121 A 
HETATM   14  N5  UNL     1       5.149   3.702  21.174  1.00  0.00    -0.326 N 
HETATM   15  C10 UNL     1       5.300   2.804  22.159  1.00  0.00     0.139 A 
ATOM     16  H5  UNL     1       5.895   4.248  20.741  1.00  0.00     0.169 HD
HETATM   17  N6  UNL     1       6.351   2.347  22.854  1.00  0.00    -0.337 N 
HETATM   18  C16 UNL     1       4.074   2.271  22.483  1.00  0.00     0.122 A 
HETATM   19  C11 UNL     1       6.205   1.404  23.830  1.00  0.00     0.183 A 
ATOM     20  H6  UNL     1       7.281   2.712  22.649  1.00  0.00     0.168 HD
HETATM   21  N7  UNL     1       4.977   0.891  24.132  1.00  0.00    -0.337 N 
HETATM   22  C12 UNL     1       3.899   1.322  23.461  1.00  0.00     0.133 A 
ATOM     23  H7  UNL     1       4.880   0.186  24.862  1.00  0.00     0.168 HD
HETATM   24  N9  UNL     1       3.208   2.885  21.660  1.00  0.00    -0.336 N 
ATOM     25  H9  UNL     1       2.202   2.717  21.642  1.00  0.00     0.168 HD
BRANCH  22  26
HETATM   26  N8  UNL     1       2.749   0.836  23.754  1.00  0.00    -0.372 N 
ATOM     27  H8  UNL     1       1.981   1.085  23.131  1.00  0.00     0.161 HD
BRANCH  26  28
HETATM   28  C13 UNL     1       2.422  -0.011  24.847  1.00  0.00     0.147 C 
BRANCH  28  29
HETATM   29  C14 UNL     1       2.843  -1.429  24.523  1.00  0.00     0.186 C 
BRANCH  29  30
HETATM   30  O1  UNL     1       3.936  -1.732  25.303  1.00  0.00    -0.394 OA
HETATM   31  C15 UNL     1       3.670  -1.544  26.662  1.00  0.00     0.201 C 
ENDBRANCH  29  30
ENDBRANCH  28  29
ENDBRANCH  26  28
ENDBRANCH  22  26
ENDBRANCH  12  13
BRANCH   1  32
HETATM   32  N1  UNL     1       1.836   6.033  21.253  1.00  0.00    -0.363 N 
BRANCH  32  33
HETATM   33  C2  UNL     1       0.493   5.751  21.642  1.00  0.00     0.120 C 
HETATM   34  C1  UNL     1      -0.430   5.024  20.769  1.00  0.00     0.026 C 
ENDBRANCH  32  33
BRANCH  32  35
HETATM   35  C17 UNL     1       2.588   6.976  22.033  1.00  0.00     0.077 C 
HETATM   36  C18 UNL     1       2.209   8.405  21.961  1.00  0.00     0.032 C 
HETATM   37  C19 UNL     1       2.579   6.542  23.481  1.00  0.00     0.032 C 
ENDBRANCH  32  35
ENDBRANCH   1  32
TORSDOF 8
ENDMDL
MODEL 2
REMARK VINA RESULT: -8.631492873      1.858      3.085
REMARK  8 active torsions:
REMARK  status: ('A' for Active; 'I' for Inactive)
REMARK    1  A    between atoms: C2_2  and  N1_3 
REMARK    2  A    between atoms: N1_3  and  C3_4 
REMARK    3  A    between atoms: N1_3  and  C17_35 
REMARK    4  A    between atoms: C8_15  and  C9_16 
REMARK    5  A    between atoms: C12_25  and  N8_26 
REMARK    6  A    between atoms: N8_26  and  C13_28 
REMARK    7  A    between atoms: C13_28  and  C14_29 
REMARK    8  A    between atoms: C14_29  and  O1_30 
ROOT
HETATM    1  C3  UNL     1       2.289   5.635  20.120  1.00  0.00     0.119 A 
HETATM    2  N2  UNL     1       2.071   6.373  18.964  1.00  0.00    -0.327 N 
ATOM      3  H2  UNL     1       1.566   7.255  19.043  1.00  0.00     0.169 HD
HETATM    4  C4  UNL     1       2.487   5.990  17.759  1.00  0.00     0.121 A 
HETATM    5  N3  UNL     1       2.247   6.735  16.713  1.00  0.00    -0.384 N 
ATOM      6  H31 UNL     1       2.565   6.442  15.790  1.00  0.00     0.157 HD
ATOM      7  H32 UNL     1       1.737   7.609  16.846  1.00  0.00     0.157 HD
HETATM    8  C5  UNL     1       3.174   4.811  17.581  1.00  0.00     0.089 A 
HETATM    9  C6  UNL     1       3.646   4.344  16.311  1.00  0.00     0.103 C 
HETATM   10  N4  UNL     1       4.041   3.970  15.301  1.00  0.00    -0.191 NA
HETATM   11  C7  UNL     1       3.407   4.063  18.687  1.00  0.00     0.045 A 
HETATM   12  C8  UNL     1       2.965   4.470  19.976  1.00  0.00     0.054 A 
ENDROOT
BRANCH  12  13
HETATM   13  C9  UNL     1       3.354   3.595  21.065  1.00  0.00     0.121 A 
HETATM   14  N5  UNL     1       2.557   3.012  21.951  1.00  0.00    -0.326 N 
HETATM   15  C10 UNL     1       3.324   2.341  22.823  1.00  0.00     0.139 A 
ATOM     16  H5  UNL     1       1.538   3.065  21.967  1.00  0.00     0.169 HD
HETATM   17  N6  UNL     1       3.073   1.585  23.901  1.00  0.00    -0.337 N 
HETATM   18  C16 UNL     1       4.648   2.500  22.483  1.00  0.00     0.122 A 
HETATM   19  C11 UNL     1       4.080   1.007  24.617  1.00  0.00     0.183 A 
ATOM     20  H6  UNL     1       2.106   1.438  24.192  1.00  0.00     0.168 HD
HETATM   21  N7  UNL     1       5.385   1.181  24.259  1.00  0.00    -0.337 N 
HETATM   22  C12 UNL     1       5.681   1.930  23.186  1.00  0.00     0.133 A 
ATOM     23  H7  UNL     1       6.130   0.746  24.803  1.00  0.00     0.168 HD
HETATM   24  N9  UNL     1       4.627   3.281  21.391  1.00  0.00    -0.336 N 
ATOM     25  H9  UNL     1       5.454   3.592  20.881  1.00  0.00     0.168 HD
BRANCH  22  26
HETATM   26  N8  UNL     1       6.910   2.084  22.857  1.00  0.00    -0.372 N 
ATOM     27  H8  UNL     1       7.088   2.362  21.892  1.00  0.00     0.161 HD
BRANCH  26  28
HETATM   28  C13 UNL     1       8.054   1.914  23.682  1.00  0.00     0.147 C 
BRANCH  28  29
HETATM   29  C14 UNL     1       8.936   3.141  23.572  1.00  0.00     0.186 C 
BRANCH  29  30
HETATM   30  O1  UNL     1       9.820   3.119  24.626  1.00  0.00    -0.394 OA
HETATM   31  C15 UNL     1      10.580   1.947  24.639  1.00  0.00     0.201 C 
ENDBRANCH  29  30
ENDBRANCH  28  29
ENDBRANCH  26  28
ENDBRANCH  22  26
ENDBRANCH  12  13
BRANCH   1  32
HETATM   32  N1  UNL     1       1.713   6.181  21.310  1.00  0.00    -0.363 N 
BRANCH  32  33
HETATM   33  C2  UNL     1       0.329   6.054  21.628  1.00  0.00     0.120 C 
HETATM   34  C1  UNL     1      -0.596   5.302  20.779  1.00  0.00     0.026 C 
ENDBRANCH  32  33
BRANCH  32  35
HETATM   35  C17 UNL     1       2.519   7.063  22.107  1.00  0.00     0.077 C 
HETATM   36  C18 UNL     1       2.236   8.514  22.048  1.00  0.00     0.032 C 
HETATM   37  C19 UNL     1       2.468   6.614  23.549  1.00  0.00     0.032 C 
ENDBRANCH  32  35
ENDBRANCH   1  32
TORSDOF 8
ENDMDL
MODEL 3
REMARK VINA RESULT: -8.620681116      0.413      1.400
REMARK  8 active torsions:
REMARK  status: ('A' for Active; 'I' for Inactive)
REMARK    1  A    between atoms: C2_2  and  N1_3 
REMARK    2  A    between atoms: N1_3  and  C3_4 
REMARK    3  A    between atoms: N1_3  and  C17_35 
REMARK    4  A    between atoms: C8_15  and  C9_16 
REMARK    5  A    between atoms: C12_25  and  N8_26 
REMARK    6  A    between atoms: N8_26  and  C13_28 
REMARK    7  A    between atoms: C13_28  and  C14_29 
REMARK    8  A    between atoms: C14_29  and  O1_30 
ROOT
HETATM    1  C3  UNL     1       2.490   5.623  20.029  1.00  0.00     0.119 A 
HETATM    2  N2  UNL     1       2.052   6.300  18.899  1.00  0.00    -0.327 N 
ATOM      3  H2  UNL     1       1.453   7.116  19.026  1.00  0.00     0.169 HD
HETATM    4  C4  UNL     1       2.373   5.941  17.658  1.00  0.00     0.121 A 
HETATM    5  N3  UNL     1       1.924   6.626  16.639  1.00  0.00    -0.384 N 
ATOM      6  H31 UNL     1       2.170   6.352  15.688  1.00  0.00     0.157 HD
ATOM      7  H32 UNL     1       1.328   7.434  16.821  1.00  0.00     0.157 HD
HETATM    8  C5  UNL     1       3.176   4.852  17.413  1.00  0.00     0.089 A 
HETATM    9  C6  UNL     1       3.554   4.415  16.101  1.00  0.00     0.103 C 
HETATM   10  N4  UNL     1       3.875   4.067  15.057  1.00  0.00    -0.191 NA
HETATM   11  C7  UNL     1       3.624   4.165  18.493  1.00  0.00     0.045 A 
HETATM   12  C8  UNL     1       3.284   4.546  19.819  1.00  0.00     0.054 A 
ENDROOT
BRANCH  12  13
HETATM   13  C9  UNL     1       3.899   3.752  20.865  1.00  0.00     0.121 A 
HETATM   14  N5  UNL     1       5.187   3.700  21.183  1.00  0.00    -0.326 N 
HETATM   15  C10 UNL     1       5.338   2.795  22.161  1.00  0.00     0.139 A 
ATOM     16  H5  UNL     1       5.931   4.252  20.756  1.00  0.00     0.169 HD
HETATM   17  N6  UNL     1       6.388   2.338  22.858  1.00  0.00    -0.337 N 
HETATM   18  C16 UNL     1       4.112   2.255  22.477  1.00  0.00     0.122 A 
HETATM   19  C11 UNL     1       6.243   1.388  23.826  1.00  0.00     0.183 A 
ATOM     20  H6  UNL     1       7.317   2.709  22.659  1.00  0.00     0.168 HD
HETATM   21  N7  UNL     1       5.015   0.868  24.120  1.00  0.00    -0.337 N 
HETATM   22  C12 UNL     1       3.938   1.298  23.448  1.00  0.00     0.133 A 
ATOM     23  H7  UNL     1       4.919   0.157  24.845  1.00  0.00     0.168 HD
HETATM   24  N9  UNL     1       3.247   2.871  21.656  1.00  0.00    -0.336 N 
ATOM     25  H9  UNL     1       2.242   2.699  21.632  1.00  0.00     0.168 HD
BRANCH  22  26
HETATM   26  N8  UNL     1       2.790   0.805  23.733  1.00  0.00    -0.372 N 
ATOM     27  H8  UNL     1       2.034   1.011  23.080  1.00  0.00     0.161 HD
BRANCH  26  28
HETATM   28  C13 UNL     1       2.448   0.004  24.856  1.00  0.00     0.147 C 
BRANCH  28  29
HETATM   29  C14 UNL     1       2.821  -1.436  24.573  1.00  0.00     0.186 C 
BRANCH  29  30
HETATM   30  O1  UNL     1       3.979  -1.713  25.263  1.00  0.00    -0.394 OA
HETATM   31  C15 UNL     1       3.750  -1.814  26.638  1.00  0.00     0.201 C 
ENDBRANCH  29  30
ENDBRANCH  28  29
ENDBRANCH  26  28
ENDBRANCH  22  26
ENDBRANCH  12  13
BRANCH   1  32
HETATM   32  N1  UNL     1       1.989   6.123  21.272  1.00  0.00    -0.363 N 
BRANCH  32  33
HETATM   33  C2  UNL     1       2.839   6.602  22.312  1.00  0.00     0.120 C 
HETATM   34  C1  UNL     1       2.330   6.904  23.651  1.00  0.00     0.026 C 
ENDBRANCH  32  33
BRANCH  32  35
HETATM   35  C17 UNL     1       0.594   5.941  21.560  1.00  0.00     0.077 C 
HETATM   36  C18 UNL     1      -0.335   7.050  21.252  1.00  0.00     0.032 C 
HETATM   37  C19 UNL     1       0.104   4.688  20.870  1.00  0.00     0.032 C 
ENDBRANCH  32  35
ENDBRANCH   1  32
TORSDOF 8
ENDMDL
MODEL 4
REMARK VINA RESULT: -8.432581537      1.948      3.452
REMARK  8 active torsions:
REMARK  status: ('A' for Active; 'I' for Inactive)
REMARK    1  A    between atoms: C2_2  and  N1_3 
REMARK    2  A    between atoms: N1_3  and  C3_4 
REMARK    3  A    between atoms: N1_3  and  C17_35 
REMARK    4  A    between atoms: C8_15  and  C9_16 
REMARK    5  A    between atoms: C12_25  and  N8_26 
REMARK    6  A    between atoms: N8_26  and  C13_28 
REMARK    7  A    between atoms: C13_28  and  C14_29 
REMARK    8  A    between atoms: C14_29  and  O1_30 
ROOT
HETATM    1  C3  UNL     1       2.292   5.474  20.359  1.00  0.00     0.119 A 
HETATM    2  N2  UNL     1       2.057   6.242  19.227  1.00  0.00    -0.327 N 
ATOM      3  H2  UNL     1       1.526   7.106  19.332  1.00  0.00     0.169 HD
HETATM    4  C4  UNL     1       2.487   5.910  18.012  1.00  0.00     0.121 A 
HETATM    5  N3  UNL     1       2.228   6.682  16.990  1.00  0.00    -0.384 N 
ATOM      6  H31 UNL     1       2.557   6.428  16.059  1.00  0.00     0.157 HD
ATOM      7  H32 UNL     1       1.693   7.536  17.148  1.00  0.00     0.157 HD
HETATM    8  C5  UNL     1       3.207   4.758  17.799  1.00  0.00     0.089 A 
HETATM    9  C6  UNL     1       3.696   4.346  16.515  1.00  0.00     0.103 C 
HETATM   10  N4  UNL     1       4.104   4.016  15.496  1.00  0.00    -0.191 NA
HETATM   11  C7  UNL     1       3.458   3.982  18.881  1.00  0.00     0.045 A 
HETATM   12  C8  UNL     1       3.001   4.334  20.180  1.00  0.00     0.054 A 
ENDROOT
BRANCH  12  13
HETATM   13  C9  UNL     1       3.412   3.435  21.242  1.00  0.00     0.121 A 
HETATM   14  N5  UNL     1       2.628   2.787  22.094  1.00  0.00    -0.326 N 
HETATM   15  C10 UNL     1       3.411   2.116  22.952  1.00  0.00     0.139 A 
ATOM     16  H5  UNL     1       1.608   2.798  22.097  1.00  0.00     0.169 HD
HETATM   17  N6  UNL     1       3.177   1.311  23.997  1.00  0.00    -0.337 N 
HETATM   18  C16 UNL     1       4.731   2.342  22.637  1.00  0.00     0.122 A 
HETATM   19  C11 UNL     1       4.197   0.748  24.707  1.00  0.00     0.183 A 
ATOM     20  H6  UNL     1       2.214   1.114  24.268  1.00  0.00     0.168 HD
HETATM   21  N7  UNL     1       5.499   0.989  24.374  1.00  0.00    -0.337 N 
HETATM   22  C12 UNL     1       5.778   1.788  23.334  1.00  0.00     0.133 A 
ATOM     23  H7  UNL     1       6.254   0.564  24.913  1.00  0.00     0.168 HD
HETATM   24  N9  UNL     1       4.692   3.161  21.575  1.00  0.00    -0.336 N 
ATOM     25  H9  UNL     1       5.512   3.525  21.088  1.00  0.00     0.168 HD
BRANCH  22  26
HETATM   26  N8  UNL     1       7.004   2.005  23.029  1.00  0.00    -0.372 N 
ATOM     27  H8  UNL     1       7.193   2.228  22.051  1.00  0.00     0.161 HD
BRANCH  26  28
HETATM   28  C13 UNL     1       8.129   1.972  23.895  1.00  0.00     0.147 C 
BRANCH  28  29
HETATM   29  C14 UNL     1       8.963   3.218  23.678  1.00  0.00     0.186 C 
BRANCH  29  30
HETATM   30  O1  UNL     1      10.014   3.180  24.566  1.00  0.00    -0.394 OA
HETATM   31  C15 UNL     1      10.572   1.902  24.651  1.00  0.00     0.201 C 
ENDBRANCH  29  30
ENDBRANCH  28  29
ENDBRANCH  26  28
ENDBRANCH  22  26
ENDBRANCH  12  13
BRANCH   1  32
HETATM   32  N1  UNL     1       1.697   5.964  21.564  1.00  0.00    -0.363 N 
BRANCH  32  33
HETATM   33  C2  UNL     1       2.463   6.355  22.702  1.00  0.00     0.120 C 
HETATM   34  C1  UNL     1       3.117   7.661  22.784  1.00  0.00     0.026 C 
ENDBRANCH  32  33
BRANCH  32  35
HETATM   35  C17 UNL     1       0.271   5.862  21.702  1.00  0.00     0.077 C 
HETATM   36  C18 UNL     1      -0.537   7.092  21.559  1.00  0.00     0.032 C 
HETATM   37  C19 UNL     1      -0.248   4.822  20.736  1.00  0.00     0.032 C 
ENDBRANCH  32  35
ENDBRANCH   1  32
TORSDOF 8
ENDMDL
MODEL 5
REMARK VINA RESULT: -7.762441966      1.356      2.338
REMARK  8 active torsions:
REMARK  status: ('A' for Active; 'I' for Inactive)
REMARK    1  A    between atoms: C2_2  and  N1_3 
REMARK    2  A    between atoms: N1_3  and  C3_4 
REMARK    3  A    between atoms: N1_3  and  C17_35 
REMARK    4  A    between atoms: C8_15  and  C9_16 
REMARK    5  A    between atoms: C12_25  and  N8_26 
REMARK    6  A    between atoms: N8_26  and  C13_28 
REMARK    7  A    between atoms: C13_28  and  C14_29 
REMARK    8  A    between atoms: C14_29  and  O1_30 
ROOT
HETATM    1  C3  UNL     1       2.193   5.774  19.924  1.00  0.00     0.119 A 
HETATM    2  N2  UNL     1       2.003   6.498  18.756  1.00  0.00    -0.327 N 
ATOM      3  H2  UNL     1       1.520   7.394  18.816  1.00  0.00     0.169 HD
HETATM    4  C4  UNL     1       2.420   6.086  17.561  1.00  0.00     0.121 A 
HETATM    5  N3  UNL     1       2.208   6.821  16.501  1.00  0.00    -0.384 N 
ATOM      6  H31 UNL     1       2.526   6.506  15.586  1.00  0.00     0.157 HD
ATOM      7  H32 UNL     1       1.719   7.709  16.616  1.00  0.00     0.157 HD
HETATM    8  C5  UNL     1       3.078   4.888  17.407  1.00  0.00     0.089 A 
HETATM    9  C6  UNL     1       3.549   4.390  16.148  1.00  0.00     0.103 C 
HETATM   10  N4  UNL     1       3.943   3.990  15.148  1.00  0.00    -0.191 NA
HETATM   11  C7  UNL     1       3.283   4.152  18.526  1.00  0.00     0.045 A 
HETATM   12  C8  UNL     1       2.840   4.590  19.804  1.00  0.00     0.054 A 
ENDROOT
BRANCH  12  13
HETATM   13  C9  UNL     1       3.197   3.722  20.910  1.00  0.00     0.121 A 
HETATM   14  N5  UNL     1       2.375   3.155  21.785  1.00  0.00    -0.326 N 
HETATM   15  C10 UNL     1       3.117   2.486  22.679  1.00  0.00     0.139 A 
ATOM     16  H5  UNL     1       1.357   3.218  21.778  1.00  0.00     0.169 HD
HETATM   17  N6  UNL     1       2.836   1.743  23.759  1.00  0.00    -0.337 N 
HETATM   18  C16 UNL     1       4.450   2.630  22.367  1.00  0.00     0.122 A 
HETATM   19  C11 UNL     1       3.821   1.163  24.503  1.00  0.00     0.183 A 
ATOM     20  H6  UNL     1       1.862   1.608  24.030  1.00  0.00     0.168 HD
HETATM   21  N7  UNL     1       5.136   1.322  24.171  1.00  0.00    -0.337 N 
HETATM   22  C12 UNL     1       5.462   2.057  23.098  1.00  0.00     0.133 A 
ATOM     23  H7  UNL     1       5.864   0.885  24.736  1.00  0.00     0.168 HD
HETATM   24  N9  UNL     1       4.459   3.400  21.267  1.00  0.00    -0.336 N 
ATOM     25  H9  UNL     1       5.300   3.698  20.771  1.00  0.00     0.168 HD
BRANCH  22  26
HETATM   26  N8  UNL     1       6.699   2.197  22.794  1.00  0.00    -0.372 N 
ATOM     27  H8  UNL     1       6.898   2.526  21.849  1.00  0.00     0.161 HD
BRANCH  26  28
HETATM   28  C13 UNL     1       7.827   1.946  23.621  1.00  0.00     0.147 C 
BRANCH  28  29
HETATM   29  C14 UNL     1       7.716   0.554  24.207  1.00  0.00     0.186 C 
BRANCH  29  30
HETATM   30  O1  UNL     1       7.945   0.649  25.560  1.00  0.00    -0.394 OA
HETATM   31  C15 UNL     1       7.363  -0.411  26.260  1.00  0.00     0.201 C 
ENDBRANCH  29  30
ENDBRANCH  28  29
ENDBRANCH  26  28
ENDBRANCH  22  26
ENDBRANCH  12  13
BRANCH   1  32
HETATM   32  N1  UNL     1       1.620   6.352  21.100  1.00  0.00    -0.363 N 
BRANCH  32  33
HETATM   33  C2  UNL     1       0.219   6.340  21.366  1.00  0.00     0.120 C 
HETATM   34  C1  UNL     1      -0.663   5.304  20.826  1.00  0.00     0.026 C 
ENDBRANCH  32  33
BRANCH  32  35
HETATM   35  C17 UNL     1       2.467   7.153  21.940  1.00  0.00     0.077 C 
HETATM   36  C18 UNL     1       2.163   8.595  22.068  1.00  0.00     0.032 C 
HETATM   37  C19 UNL     1       2.519   6.540  23.321  1.00  0.00     0.032 C 
ENDBRANCH  32  35
ENDBRANCH   1  32
TORSDOF 8
ENDMDL
