MODEL 1
REMARK VINA RESULT: -6.686204935      0.000      0.000
REMARK  3 active torsions:
REMARK  status: ('A' for Active; 'I' for Inactive)
REMARK    1  A    between atoms: C3_9  and  N3_10 
REMARK    2  A    between atoms: N3_10  and  N4_12 
REMARK    3  A    between atoms: C4_14  and  C5_15 
ROOT
HETATM    1  N3  UNL     1      10.470  13.033  33.907  1.00  0.00    -0.132 N 
ATOM      2  H3  UNL     1       9.771  13.362  34.573  1.00  0.00     0.205 HD
ENDROOT
BRANCH   1   3
HETATM    3  C3  UNL     1      10.945  13.857  33.021  1.00  0.00     0.704 A 
HETATM    4  N2  UNL     1      12.263  14.129  33.027  1.00  0.00    -0.139 N 
HETATM    5  C2  UNL     1      12.768  14.982  32.115  1.00  0.00     0.342 A 
ATOM      6  H2  UNL     1      12.874  13.694  33.718  1.00  0.00     0.189 HD
HETATM    7  N1  UNL     1      12.003  15.582  31.187  1.00  0.00    -0.260 N 
HETATM    8  O2  UNL     1      14.004  15.252  32.103  1.00  0.00    -0.246 OA
HETATM    9  C1  UNL     1      10.690  15.314  31.179  1.00  0.00     0.342 A 
ATOM     10  H1  UNL     1      12.411  16.224  30.508  1.00  0.00     0.175 HD
HETATM   11  O1  UNL     1       9.881  15.820  30.353  1.00  0.00    -0.246 OA
HETATM   12  N8  UNL     1      10.174  14.455  32.094  1.00  0.00    -0.139 N 
ATOM     13  H8  UNL     1       9.174  14.258  32.079  1.00  0.00     0.189 HD
ENDBRANCH   1   3
BRANCH   1  14
HETATM   14  N4  UNL     1      10.899  11.708  33.963  1.00  0.00    -0.295 N 
HETATM   15  C4  UNL     1      10.208  10.738  33.454  1.00  0.00     0.139 C 
ATOM     16  H4  UNL     1      11.787  11.496  34.420  1.00  0.00     0.186 HD
BRANCH  15  17
HETATM   17  C5  UNL     1      10.644   9.360  33.506  1.00  0.00     0.079 A 
HETATM   18  C6  UNL     1      10.599   8.543  34.602  1.00  0.00     0.137 A 
HETATM   19  N5  UNL     1      11.091   7.321  34.276  1.00  0.00    -0.293 N 
HETATM   20  N6  UNL     1      11.435   7.385  33.002  1.00  0.00    -0.022 NA
ATOM     21  H5  UNL     1      11.179   6.512  34.892  1.00  0.00     0.183 HD
HETATM   22  N7  UNL     1      11.173   8.606  32.519  1.00  0.00    -0.282 N 
ATOM     23  H7  UNL     1      11.344   8.915  31.563  1.00  0.00     0.184 HD
ENDBRANCH  15  17
ENDBRANCH   1  14
TORSDOF 3
ENDMDL
MODEL 2
REMARK VINA RESULT: -6.675103362      4.922      6.304
REMARK  3 active torsions:
REMARK  status: ('A' for Active; 'I' for Inactive)
REMARK    1  A    between atoms: C3_9  and  N3_10 
REMARK    2  A    between atoms: N3_10  and  N4_12 
REMARK    3  A    between atoms: C4_14  and  C5_15 
ROOT
HETATM    1  N3  UNL     1       7.948  14.902  30.944  1.00  0.00    -0.132 N 
ATOM      2  H3  UNL     1       7.319  14.107  31.059  1.00  0.00     0.205 HD
ENDROOT
BRANCH   1   3
HETATM    3  C3  UNL     1       7.458  16.061  30.620  1.00  0.00     0.704 A 
HETATM    4  N2  UNL     1       7.717  16.557  29.396  1.00  0.00    -0.139 N 
HETATM    5  C2  UNL     1       7.216  17.757  29.048  1.00  0.00     0.342 A 
ATOM      6  H2  UNL     1       8.290  16.028  28.738  1.00  0.00     0.189 HD
HETATM    7  N1  UNL     1       6.459  18.492  29.880  1.00  0.00    -0.260 N 
HETATM    8  O2  UNL     1       7.447  18.243  27.902  1.00  0.00    -0.246 OA
HETATM    9  C1  UNL     1       6.199  18.002  31.100  1.00  0.00     0.342 A 
ATOM     10  H1  UNL     1       6.091  19.399  29.591  1.00  0.00     0.175 HD
HETATM   11  O1  UNL     1       5.501  18.607  31.959  1.00  0.00    -0.246 OA
HETATM   12  N8  UNL     1       6.701  16.793  31.458  1.00  0.00    -0.139 N 
ATOM     13  H8  UNL     1       6.497  16.429  32.388  1.00  0.00     0.189 HD
ENDBRANCH   1   3
BRANCH   1  14
HETATM   14  N4  UNL     1       9.317  14.725  31.135  1.00  0.00    -0.295 N 
HETATM   15  C4  UNL     1      10.002  15.471  31.944  1.00  0.00     0.139 C 
ATOM     16  H4  UNL     1       9.796  13.984  30.622  1.00  0.00     0.186 HD
BRANCH  15  17
HETATM   17  C5  UNL     1      11.422  15.296  32.151  1.00  0.00     0.079 A 
HETATM   18  C6  UNL     1      12.403  15.512  31.223  1.00  0.00     0.137 A 
HETATM   19  N5  UNL     1      13.615  15.245  31.774  1.00  0.00    -0.293 N 
HETATM   20  N6  UNL     1      13.383  14.870  33.018  1.00  0.00    -0.022 NA
ATOM     21  H5  UNL     1      14.524  15.319  31.317  1.00  0.00     0.183 HD
HETATM   22  N7  UNL     1      12.068  14.894  33.267  1.00  0.00    -0.282 N 
ATOM     23  H7  UNL     1      11.626  14.649  34.153  1.00  0.00     0.184 HD
ENDBRANCH  15  17
ENDBRANCH   1  14
TORSDOF 3
ENDMDL
MODEL 3
REMARK VINA RESULT: -6.672113799      0.046      1.969
REMARK  3 active torsions:
REMARK  status: ('A' for Active; 'I' for Inactive)
REMARK    1  A    between atoms: C3_9  and  N3_10 
REMARK    2  A    between atoms: N3_10  and  N4_12 
REMARK    3  A    between atoms: C4_14  and  C5_15 
ROOT
HETATM    1  N3  UNL     1      10.505  13.031  33.906  1.00  0.00    -0.132 N 
ATOM      2  H3  UNL     1       9.794  13.362  34.558  1.00  0.00     0.205 HD
ENDROOT
BRANCH   1   3
HETATM    3  C3  UNL     1      11.001  13.855  33.031  1.00  0.00     0.704 A 
HETATM    4  N2  UNL     1      10.175  14.425  32.135  1.00  0.00    -0.139 N 
HETATM    5  C2  UNL     1      10.676  15.280  31.223  1.00  0.00     0.342 A 
ATOM      6  H2  UNL     1       9.178  14.210  32.145  1.00  0.00     0.189 HD
HETATM    7  N1  UNL     1      11.982  15.592  31.168  1.00  0.00    -0.260 N 
HETATM    8  O2  UNL     1       9.918  15.828  30.370  1.00  0.00    -0.246 OA
HETATM    9  C1  UNL     1      12.807  15.026  32.058  1.00  0.00     0.342 A 
ATOM     10  H1  UNL     1      12.335  16.243  30.467  1.00  0.00     0.175 HD
HETATM   11  O1  UNL     1      14.049  15.248  32.097  1.00  0.00    -0.246 OA
HETATM   12  N8  UNL     1      12.309  14.163  32.980  1.00  0.00    -0.139 N 
ATOM     13  H8  UNL     1      12.946  13.738  33.654  1.00  0.00     0.189 HD
ENDBRANCH   1   3
BRANCH   1  14
HETATM   14  N4  UNL     1      10.926  11.704  33.968  1.00  0.00    -0.295 N 
HETATM   15  C4  UNL     1      10.226  10.735  33.468  1.00  0.00     0.139 C 
ATOM     16  H4  UNL     1      11.814  11.489  34.421  1.00  0.00     0.186 HD
BRANCH  15  17
HETATM   17  C5  UNL     1      10.653   9.355  33.526  1.00  0.00     0.079 A 
HETATM   18  C6  UNL     1      10.582   8.536  34.619  1.00  0.00     0.137 A 
HETATM   19  N5  UNL     1      11.074   7.312  34.300  1.00  0.00    -0.293 N 
HETATM   20  N6  UNL     1      11.443   7.377  33.034  1.00  0.00    -0.022 NA
ATOM     21  H5  UNL     1      11.145   6.502  34.917  1.00  0.00     0.183 HD
HETATM   22  N7  UNL     1      11.198   8.600  32.548  1.00  0.00    -0.282 N 
ATOM     23  H7  UNL     1      11.389   8.910  31.596  1.00  0.00     0.184 HD
ENDBRANCH  15  17
ENDBRANCH   1  14
TORSDOF 3
ENDMDL
MODEL 4
REMARK VINA RESULT: -6.609749645      4.998      6.345
REMARK  3 active torsions:
REMARK  status: ('A' for Active; 'I' for Inactive)
REMARK    1  A    between atoms: C3_9  and  N3_10 
REMARK    2  A    between atoms: N3_10  and  N4_12 
REMARK    3  A    between atoms: C4_14  and  C5_15 
ROOT
HETATM    1  N3  UNL     1       7.987  14.933  30.958  1.00  0.00    -0.132 N 
ATOM      2  H3  UNL     1       7.352  14.164  31.172  1.00  0.00     0.205 HD
ENDROOT
BRANCH   1   3
HETATM    3  C3  UNL     1       7.498  16.082  30.595  1.00  0.00     0.704 A 
HETATM    4  N2  UNL     1       6.764  16.783  31.479  1.00  0.00    -0.139 N 
HETATM    5  C2  UNL     1       6.252  17.974  31.117  1.00  0.00     0.342 A 
ATOM      6  H2  UNL     1       6.597  16.414  32.415  1.00  0.00     0.189 HD
HETATM    7  N1  UNL     1       6.442  18.500  29.896  1.00  0.00    -0.260 N 
HETATM    8  O2  UNL     1       5.559  18.651  31.933  1.00  0.00    -0.246 OA
HETATM    9  C1  UNL     1       7.171  17.805  29.013  1.00  0.00     0.342 A 
ATOM     10  H1  UNL     1       6.043  19.405  29.647  1.00  0.00     0.175 HD
HETATM   11  O1  UNL     1       7.413  18.204  27.841  1.00  0.00    -0.246 OA
HETATM   12  N8  UNL     1       7.692  16.604  29.371  1.00  0.00    -0.139 N 
ATOM     13  H8  UNL     1       8.246  16.082  28.691  1.00  0.00     0.189 HD
ENDBRANCH   1   3
BRANCH   1  14
HETATM   14  N4  UNL     1       9.363  14.733  31.058  1.00  0.00    -0.295 N 
HETATM   15  C4  UNL     1      10.151  15.615  31.585  1.00  0.00     0.139 C 
ATOM     16  H4  UNL     1       9.762  13.862  30.704  1.00  0.00     0.186 HD
BRANCH  15  17
HETATM   17  C5  UNL     1      11.578  15.418  31.695  1.00  0.00     0.079 A 
HETATM   18  C6  UNL     1      12.237  14.884  32.768  1.00  0.00     0.137 A 
HETATM   19  N5  UNL     1      13.570  14.854  32.513  1.00  0.00    -0.293 N 
HETATM   20  N6  UNL     1      13.729  15.362  31.304  1.00  0.00    -0.022 NA
ATOM     21  H5  UNL     1      14.304  14.508  33.132  1.00  0.00     0.183 HD
HETATM   22  N7  UNL     1      12.541  15.707  30.793  1.00  0.00    -0.282 N 
ATOM     23  H7  UNL     1      12.388  16.121  29.874  1.00  0.00     0.184 HD
ENDBRANCH  15  17
ENDBRANCH   1  14
TORSDOF 3
ENDMDL
MODEL 5
REMARK VINA RESULT: -6.322587964      4.582      6.983
REMARK  3 active torsions:
REMARK  status: ('A' for Active; 'I' for Inactive)
REMARK    1  A    between atoms: C3_9  and  N3_10 
REMARK    2  A    between atoms: N3_10  and  N4_12 
REMARK    3  A    between atoms: C4_14  and  C5_15 
ROOT
HETATM    1  N3  UNL     1       9.835  15.332  34.331  1.00  0.00    -0.132 N 
ATOM      2  H3  UNL     1       9.230  14.627  34.753  1.00  0.00     0.205 HD
ENDROOT
BRANCH   1   3
HETATM    3  C3  UNL     1       9.956  15.376  33.037  1.00  0.00     0.704 A 
HETATM    4  N2  UNL     1       8.866  15.169  32.276  1.00  0.00    -0.139 N 
HETATM    5  C2  UNL     1       8.977  15.211  30.935  1.00  0.00     0.342 A 
ATOM      6  H2  UNL     1       7.963  14.981  32.711  1.00  0.00     0.189 HD
HETATM    7  N1  UNL     1      10.145  15.453  30.315  1.00  0.00    -0.260 N 
HETATM    8  O2  UNL     1       7.965  15.020  30.199  1.00  0.00    -0.246 OA
HETATM    9  C1  UNL     1      11.233  15.658  31.070  1.00  0.00     0.342 A 
ATOM     10  H1  UNL     1      10.202  15.479  29.297  1.00  0.00     0.175 HD
HETATM   11  O1  UNL     1      12.377  15.893  30.593  1.00  0.00    -0.246 OA
HETATM   12  N8  UNL     1      11.128  15.618  32.422  1.00  0.00    -0.139 N 
ATOM     13  H8  UNL     1      11.962  15.775  32.988  1.00  0.00     0.189 HD
ENDBRANCH   1   3
BRANCH   1  14
HETATM   14  N4  UNL     1      10.516  16.230  35.151  1.00  0.00    -0.295 N 
HETATM   15  C4  UNL     1       9.941  16.826  36.147  1.00  0.00     0.139 C 
ATOM     16  H4  UNL     1      11.500  16.423  34.961  1.00  0.00     0.186 HD
BRANCH  15  17
HETATM   17  C5  UNL     1      10.638  17.758  37.004  1.00  0.00     0.079 A 
HETATM   18  C6  UNL     1      10.692  17.710  38.370  1.00  0.00     0.137 A 
HETATM   19  N5  UNL     1      11.437  18.748  38.831  1.00  0.00    -0.293 N 
HETATM   20  N6  UNL     1      11.833  19.423  37.767  1.00  0.00    -0.022 NA
ATOM     21  H5  UNL     1      11.648  18.963  39.805  1.00  0.00     0.183 HD
HETATM   22  N7  UNL     1      11.364  18.843  36.656  1.00  0.00    -0.282 N 
ATOM     23  H7  UNL     1      11.527  19.167  35.703  1.00  0.00     0.184 HD
ENDBRANCH  15  17
ENDBRANCH   1  14
TORSDOF 3
ENDMDL
