MODEL 1
REMARK VINA RESULT: -4.296466958      0.000      0.000
REMARK  1 active torsions:
REMARK  status: ('A' for Active; 'I' for Inactive)
REMARK    1  A    between atoms: C4_4  and  C5_5 
ROOT
HETATM    1  C5  UNL     1      15.690  25.413  23.887  1.00  0.00     0.080 C 
HETATM    2  C6  UNL     1      15.213  25.149  22.479  1.00  0.00     0.051 C 
HETATM    3  C7  UNL     1      16.105  24.090  24.475  1.00  0.00     0.093 C 
HETATM    4  C8  UNL     1      14.925  23.486  25.195  1.00  0.00    -0.017 C 
HETATM    5  N1  UNL     1      14.369  22.509  24.597  1.00  0.00    -0.405 N 
ATOM      6  H11 UNL     1      13.571  22.100  25.084  1.00  0.00     0.155 HD
ATOM      7  H12 UNL     1      14.773  22.237  23.700  1.00  0.00     0.155 HD
HETATM    8  C9  UNL     1      14.346  23.874  26.478  1.00  0.00     0.062 C 
HETATM    9  C10 UNL     1      14.764  25.223  26.975  1.00  0.00    -0.021 C 
HETATM   10  C11 UNL     1      16.065  25.067  27.769  1.00  0.00     0.017 C 
HETATM   11  C12 UNL     1      13.705  25.690  27.963  1.00  0.00     0.017 C 
HETATM   12  C13 UNL     1      15.001  26.241  25.924  1.00  0.00     0.178 C 
HETATM   13  O1  UNL     1      14.639  25.896  24.654  1.00  0.00    -0.375 OA
ENDROOT
BRANCH   1  14
HETATM   14  C4  UNL     1      16.851  26.343  23.846  1.00  0.00     0.013 C 
HETATM   15  C2  UNL     1      16.805  27.546  23.326  1.00  0.00    -0.088 C 
HETATM   16  C1  UNL     1      15.579  28.122  22.714  1.00  0.00     0.042 C 
HETATM   17  C3  UNL     1      18.028  28.384  23.342  1.00  0.00     0.042 C 
ENDBRANCH   1  14
TORSDOF 1
ENDMDL
MODEL 2
REMARK VINA RESULT: -4.240406166      1.840      2.357
REMARK  1 active torsions:
REMARK  status: ('A' for Active; 'I' for Inactive)
REMARK    1  A    between atoms: C4_4  and  C5_5 
ROOT
HETATM    1  C5  UNL     1      15.623  24.542  24.770  1.00  0.00     0.080 C 
HETATM    2  C6  UNL     1      14.992  23.232  24.363  1.00  0.00     0.051 C 
HETATM    3  C7  UNL     1      16.469  24.272  25.985  1.00  0.00     0.093 C 
HETATM    4  C8  UNL     1      15.638  24.512  27.220  1.00  0.00    -0.017 C 
HETATM    5  N1  UNL     1      15.264  23.459  27.832  1.00  0.00    -0.405 N 
ATOM      6  H11 UNL     1      14.702  23.621  28.668  1.00  0.00     0.155 HD
ATOM      7  H12 UNL     1      15.561  22.571  27.428  1.00  0.00     0.155 HD
HETATM    8  C9  UNL     1      15.213  25.782  27.799  1.00  0.00     0.062 C 
HETATM    9  C10 UNL     1      15.339  26.963  26.887  1.00  0.00    -0.021 C 
HETATM   10  C11 UNL     1      16.754  27.535  27.026  1.00  0.00     0.017 C 
HETATM   11  C12 UNL     1      14.386  28.034  27.397  1.00  0.00     0.017 C 
HETATM   12  C13 UNL     1      15.110  26.683  25.450  1.00  0.00     0.178 C 
HETATM   13  O1  UNL     1      14.634  25.441  25.144  1.00  0.00    -0.375 OA
ENDROOT
BRANCH   1  14
HETATM   14  C4  UNL     1      16.470  25.046  23.655  1.00  0.00     0.013 C 
HETATM   15  C2  UNL     1      16.020  25.291  22.448  1.00  0.00    -0.088 C 
HETATM   16  C1  UNL     1      14.601  25.091  22.053  1.00  0.00     0.042 C 
HETATM   17  C3  UNL     1      16.960  25.792  21.417  1.00  0.00     0.042 C 
ENDBRANCH   1  14
TORSDOF 1
ENDMDL
MODEL 3
REMARK VINA RESULT: -4.198056823      3.217      4.825
REMARK  1 active torsions:
REMARK  status: ('A' for Active; 'I' for Inactive)
REMARK    1  A    between atoms: C4_4  and  C5_5 
ROOT
HETATM    1  C5  UNL     1      14.841  26.213  20.267  1.00  0.00     0.080 C 
HETATM    2  C6  UNL     1      14.923  25.624  18.879  1.00  0.00     0.051 C 
HETATM    3  C7  UNL     1      16.156  26.892  20.543  1.00  0.00     0.093 C 
HETATM    4  C8  UNL     1      17.076  25.911  21.225  1.00  0.00    -0.017 C 
HETATM    5  N1  UNL     1      18.010  25.447  20.493  1.00  0.00    -0.405 N 
ATOM      6  H11 UNL     1      18.632  24.784  20.954  1.00  0.00     0.155 HD
ATOM      7  H12 UNL     1      18.039  25.783  19.530  1.00  0.00     0.155 HD
HETATM    8  C9  UNL     1      17.035  25.430  22.603  1.00  0.00     0.062 C 
HETATM    9  C10 UNL     1      15.747  25.689  23.322  1.00  0.00    -0.021 C 
HETATM   10  C11 UNL     1      15.817  27.081  23.958  1.00  0.00     0.017 C 
HETATM   11  C12 UNL     1      15.659  24.691  24.467  1.00  0.00     0.017 C 
HETATM   12  C13 UNL     1      14.529  25.644  22.478  1.00  0.00     0.178 C 
HETATM   13  O1  UNL     1      14.695  25.196  21.199  1.00  0.00    -0.375 OA
ENDROOT
BRANCH   1  14
HETATM   14  C4  UNL     1      13.731  27.204  20.315  1.00  0.00     0.013 C 
HETATM   15  C2  UNL     1      12.469  26.896  20.137  1.00  0.00    -0.088 C 
HETATM   16  C1  UNL     1      11.999  25.513  19.865  1.00  0.00     0.042 C 
HETATM   17  C3  UNL     1      11.449  27.971  20.207  1.00  0.00     0.042 C 
ENDBRANCH   1  14
TORSDOF 1
ENDMDL
MODEL 4
REMARK VINA RESULT: -4.116636696      3.455      5.433
REMARK  1 active torsions:
REMARK  status: ('A' for Active; 'I' for Inactive)
REMARK    1  A    between atoms: C4_4  and  C5_5 
ROOT
HETATM    1  C5  UNL     1      14.416  26.057  20.098  1.00  0.00     0.080 C 
HETATM    2  C6  UNL     1      12.927  25.927  20.312  1.00  0.00     0.051 C 
HETATM    3  C7  UNL     1      15.069  24.881  20.775  1.00  0.00     0.093 C 
HETATM    4  C8  UNL     1      15.435  25.272  22.185  1.00  0.00    -0.017 C 
HETATM    5  N1  UNL     1      14.691  24.777  23.093  1.00  0.00    -0.405 N 
ATOM      6  H11 UNL     1      14.938  25.041  24.047  1.00  0.00     0.155 HD
ATOM      7  H12 UNL     1      13.932  24.173  22.777  1.00  0.00     0.155 HD
HETATM    8  C9  UNL     1      16.521  26.136  22.638  1.00  0.00     0.062 C 
HETATM    9  C10 UNL     1      17.136  26.986  21.569  1.00  0.00    -0.021 C 
HETATM   10  C11 UNL     1      18.248  26.181  20.889  1.00  0.00     0.017 C 
HETATM   11  C12 UNL     1      17.811  28.163  22.259  1.00  0.00     0.017 C 
HETATM   12  C13 UNL     1      16.207  27.447  20.511  1.00  0.00     0.178 C 
HETATM   13  O1  UNL     1      14.880  27.206  20.723  1.00  0.00    -0.375 OA
ENDROOT
BRANCH   1  14
HETATM   14  C4  UNL     1      14.706  26.036  18.639  1.00  0.00     0.013 C 
HETATM   15  C2  UNL     1      14.189  26.880  17.779  1.00  0.00    -0.088 C 
HETATM   16  C1  UNL     1      13.247  27.963  18.167  1.00  0.00     0.042 C 
HETATM   17  C3  UNL     1      14.552  26.762  16.346  1.00  0.00     0.042 C 
ENDBRANCH   1  14
TORSDOF 1
ENDMDL
MODEL 5
REMARK VINA RESULT: -4.002733856      3.415      5.055
REMARK  1 active torsions:
REMARK  status: ('A' for Active; 'I' for Inactive)
REMARK    1  A    between atoms: C4_4  and  C5_5 
ROOT
HETATM    1  C5  UNL     1      14.634  25.617  20.284  1.00  0.00     0.080 C 
HETATM    2  C6  UNL     1      14.909  25.228  18.851  1.00  0.00     0.051 C 
HETATM    3  C7  UNL     1      15.431  26.861  20.571  1.00  0.00     0.093 C 
HETATM    4  C8  UNL     1      16.769  26.461  21.141  1.00  0.00    -0.017 C 
HETATM    5  N1  UNL     1      17.755  26.585  20.343  1.00  0.00    -0.405 N 
ATOM      6  H11 UNL     1      18.660  26.315  20.728  1.00  0.00     0.155 HD
ATOM      7  H12 UNL     1      17.540  26.938  19.410  1.00  0.00     0.155 HD
HETATM    8  C9  UNL     1      17.077  25.957  22.475  1.00  0.00     0.062 C 
HETATM    9  C10 UNL     1      15.892  25.476  23.255  1.00  0.00    -0.021 C 
HETATM   10  C11 UNL     1      15.284  26.668  23.999  1.00  0.00     0.017 C 
HETATM   11  C12 UNL     1      16.408  24.517  24.318  1.00  0.00     0.017 C 
HETATM   12  C13 UNL     1      14.814  24.853  22.451  1.00  0.00     0.178 C 
HETATM   13  O1  UNL     1      15.095  24.622  21.136  1.00  0.00    -0.375 OA
ENDROOT
BRANCH   1  14
HETATM   14  C4  UNL     1      13.180  25.889  20.449  1.00  0.00     0.013 C 
HETATM   15  C2  UNL     1      12.479  26.633  19.627  1.00  0.00    -0.088 C 
HETATM   16  C1  UNL     1      13.061  27.293  18.430  1.00  0.00     0.042 C 
HETATM   17  C3  UNL     1      11.034  26.834  19.894  1.00  0.00     0.042 C 
ENDBRANCH   1  14
TORSDOF 1
ENDMDL
