MODEL 1
REMARK VINA RESULT: -8.582788363      0.000      0.000
REMARK  1 active torsions:
REMARK  status: ('A' for Active; 'I' for Inactive)
REMARK    1  A    between atoms: C10_14  and  N2_15 
REMARK       I    between atoms: N2_15  and  C11_17 
REMARK       I    between atoms: N4_19  and  C12_21 
REMARK       I    between atoms: C12_21  and  N6_25 
ROOT
HETATM    1  C1  UNL     1     -44.425   1.576 -15.455  1.00  0.00     0.049 C 
HETATM    2  C2  UNL     1     -43.190   2.358 -15.687  1.00  0.00    -0.054 A 
HETATM    3  C3  UNL     1     -41.960   1.778 -15.605  1.00  0.00     0.008 A 
HETATM    4  C4  UNL     1     -40.809   2.515 -15.825  1.00  0.00     0.017 A 
HETATM    5  C5  UNL     1     -40.835   3.879 -16.137  1.00  0.00     0.033 A 
HETATM    6  C6  UNL     1     -42.068   4.430 -16.211  1.00  0.00     0.100 A 
HETATM    7  C7  UNL     1     -43.214   3.718 -15.999  1.00  0.00    -0.032 A 
HETATM    8  C8  UNL     1     -44.554   4.350 -16.087  1.00  0.00     0.050 C 
HETATM    9  S1  UNL     1     -41.856   6.111 -16.607  1.00  0.00     0.267 S 
HETATM   10  O1  UNL     1     -42.443   6.428 -17.956  1.00  0.00    -0.200 OA
HETATM   11  O2  UNL     1     -42.404   7.014 -15.543  1.00  0.00    -0.200 OA
HETATM   12  N1  UNL     1     -40.156   6.125 -16.683  1.00  0.00    -0.260 N 
HETATM   13  C9  UNL     1     -39.289   7.256 -16.980  1.00  0.00     0.171 C 
HETATM   14  C10 UNL     1     -39.732   4.756 -16.386  1.00  0.00     0.131 A 
ENDROOT
BRANCH  14  15
HETATM   15  N2  UNL     1     -38.476   4.549 -16.392  1.00  0.00    -0.315 N 
HETATM   16  C11 UNL     1     -37.699   3.641 -15.729  1.00  0.00     0.208 C 
HETATM   17  N3  UNL     1     -37.437   2.338 -16.318  1.00  0.00    -0.063 NA
HETATM   18  N4  UNL     1     -37.127   3.867 -14.573  1.00  0.00    -0.164 N 
HETATM   19  C12 UNL     1     -36.350   2.847 -13.994  1.00  0.00     0.675 C 
ATOM     20  H4  UNL     1     -37.243   4.764 -14.102  1.00  0.00     0.187 HD
HETATM   21  N5  UNL     1     -36.650   2.353 -12.858  1.00  0.00    -0.235 N 
HETATM   22  N6  UNL     1     -35.216   2.383 -14.719  1.00  0.00    -0.227 N 
ATOM     23  H52 UNL     1     -37.463   2.686 -12.338  1.00  0.00     0.174 HD
ATOM     24  H51 UNL     1     -36.087   1.614 -12.438  1.00  0.00     0.174 HD
HETATM   25  C13 UNL     1     -34.856   0.969 -14.725  1.00  0.00     0.168 C 
HETATM   26  C14 UNL     1     -34.424   3.366 -15.455  1.00  0.00     0.168 C 
ATOM     27  H2  UNL     1     -37.954   5.175 -17.005  1.00  0.00     0.170 HD
ENDBRANCH  14  15
TORSDOF 1
ENDMDL
MODEL 2
REMARK VINA RESULT: -8.470434132      3.870      7.616
REMARK  1 active torsions:
REMARK  status: ('A' for Active; 'I' for Inactive)
REMARK    1  A    between atoms: C10_14  and  N2_15 
REMARK       I    between atoms: N2_15  and  C11_17 
REMARK       I    between atoms: N4_19  and  C12_21 
REMARK       I    between atoms: C12_21  and  N6_25 
ROOT
HETATM    1  C1  UNL     1     -41.580   0.950 -16.144  1.00  0.00     0.049 C 
HETATM    2  C2  UNL     1     -41.893   2.393 -16.033  1.00  0.00    -0.054 A 
HETATM    3  C3  UNL     1     -43.178   2.833 -15.940  1.00  0.00     0.008 A 
HETATM    4  C4  UNL     1     -43.463   4.184 -15.835  1.00  0.00     0.017 A 
HETATM    5  C5  UNL     1     -42.466   5.166 -15.820  1.00  0.00     0.033 A 
HETATM    6  C6  UNL     1     -41.199   4.702 -15.915  1.00  0.00     0.100 A 
HETATM    7  C7  UNL     1     -40.900   3.373 -16.018  1.00  0.00    -0.032 A 
HETATM    8  C8  UNL     1     -39.499   2.893 -16.120  1.00  0.00     0.050 C 
HETATM    9  S1  UNL     1     -40.143   6.083 -15.877  1.00  0.00     0.267 S 
HETATM   10  O1  UNL     1     -39.271   6.065 -14.650  1.00  0.00    -0.200 OA
HETATM   11  O2  UNL     1     -39.328   6.205 -17.129  1.00  0.00    -0.200 OA
HETATM   12  N1  UNL     1     -41.335   7.290 -15.736  1.00  0.00    -0.260 N 
HETATM   13  C9  UNL     1     -41.136   8.730 -15.651  1.00  0.00     0.171 C 
HETATM   14  C10 UNL     1     -42.617   6.584 -15.718  1.00  0.00     0.131 A 
ENDROOT
BRANCH  14  15
HETATM   15  N2  UNL     1     -43.653   7.316 -15.618  1.00  0.00    -0.315 N 
HETATM   16  C11 UNL     1     -44.366   8.020 -16.548  1.00  0.00     0.208 C 
HETATM   17  N3  UNL     1     -45.465   7.384 -17.257  1.00  0.00    -0.063 NA
HETATM   18  N4  UNL     1     -44.149   9.276 -16.846  1.00  0.00    -0.164 N 
HETATM   19  C12 UNL     1     -44.955   9.886 -17.825  1.00  0.00     0.675 C 
ATOM     20  H4  UNL     1     -43.410   9.801 -16.379  1.00  0.00     0.187 HD
HETATM   21  N5  UNL     1     -44.449  10.365 -18.892  1.00  0.00    -0.235 N 
HETATM   22  N6  UNL     1     -46.357   9.952 -17.585  1.00  0.00    -0.227 N 
ATOM     23  H52 UNL     1     -43.444  10.318 -19.064  1.00  0.00     0.174 HD
ATOM     24  H51 UNL     1     -45.033  10.807 -19.601  1.00  0.00     0.174 HD
HETATM   25  C13 UNL     1     -47.314   9.763 -18.670  1.00  0.00     0.168 C 
HETATM   26  C14 UNL     1     -46.806  10.213 -16.220  1.00  0.00     0.168 C 
ATOM     27  H2  UNL     1     -44.019   7.392 -14.669  1.00  0.00     0.170 HD
ENDBRANCH  14  15
TORSDOF 1
ENDMDL
MODEL 3
REMARK VINA RESULT: -8.356598210      1.815      3.778
REMARK  1 active torsions:
REMARK  status: ('A' for Active; 'I' for Inactive)
REMARK    1  A    between atoms: C10_14  and  N2_15 
REMARK       I    between atoms: N2_15  and  C11_17 
REMARK       I    between atoms: N4_19  and  C12_21 
REMARK       I    between atoms: C12_21  and  N6_25 
ROOT
HETATM    1  C1  UNL     1     -40.489   9.419 -17.239  1.00  0.00     0.049 C 
HETATM    2  C2  UNL     1     -40.308   7.978 -16.953  1.00  0.00    -0.054 A 
HETATM    3  C3  UNL     1     -39.080   7.392 -17.018  1.00  0.00     0.008 A 
HETATM    4  C4  UNL     1     -38.918   6.044 -16.749  1.00  0.00     0.017 A 
HETATM    5  C5  UNL     1     -39.988   5.211 -16.400  1.00  0.00     0.033 A 
HETATM    6  C6  UNL     1     -41.195   5.818 -16.343  1.00  0.00     0.100 A 
HETATM    7  C7  UNL     1     -41.373   7.146 -16.605  1.00  0.00    -0.032 A 
HETATM    8  C8  UNL     1     -42.712   7.784 -16.535  1.00  0.00     0.050 C 
HETATM    9  S1  UNL     1     -42.358   4.603 -15.896  1.00  0.00     0.267 S 
HETATM   10  O1  UNL     1     -42.969   4.906 -14.555  1.00  0.00    -0.200 OA
HETATM   11  O2  UNL     1     -43.409   4.414 -16.948  1.00  0.00    -0.200 OA
HETATM   12  N1  UNL     1     -41.290   3.284 -15.775  1.00  0.00    -0.260 N 
HETATM   13  C9  UNL     1     -41.613   1.908 -15.424  1.00  0.00     0.171 C 
HETATM   14  C10 UNL     1     -39.964   3.813 -16.098  1.00  0.00     0.131 A 
ENDROOT
BRANCH  14  15
HETATM   15  N2  UNL     1     -39.007   2.975 -16.065  1.00  0.00    -0.315 N 
HETATM   16  C11 UNL     1     -37.764   3.032 -15.498  1.00  0.00     0.208 C 
HETATM   17  N3  UNL     1     -37.568   2.593 -14.127  1.00  0.00    -0.063 NA
HETATM   18  N4  UNL     1     -36.689   3.442 -16.123  1.00  0.00    -0.164 N 
HETATM   19  C12 UNL     1     -35.466   3.453 -15.425  1.00  0.00     0.675 C 
ATOM     20  H4  UNL     1     -36.736   3.748 -17.095  1.00  0.00     0.187 HD
HETATM   21  N5  UNL     1     -34.818   4.536 -15.247  1.00  0.00    -0.235 N 
HETATM   22  N6  UNL     1     -34.976   2.214 -14.924  1.00  0.00    -0.227 N 
ATOM     23  H52 UNL     1     -35.170   5.424 -15.607  1.00  0.00     0.174 HD
ATOM     24  H51 UNL     1     -33.933   4.544 -14.742  1.00  0.00     0.174 HD
HETATM   25  C13 UNL     1     -34.309   2.139 -13.629  1.00  0.00     0.168 C 
HETATM   26  C14 UNL     1     -35.163   1.021 -15.746  1.00  0.00     0.168 C 
ATOM     27  H2  UNL     1     -39.203   2.099 -16.550  1.00  0.00     0.170 HD
ENDBRANCH  14  15
TORSDOF 1
ENDMDL
MODEL 4
REMARK VINA RESULT: -8.306669256      3.749      7.544
REMARK  1 active torsions:
REMARK  status: ('A' for Active; 'I' for Inactive)
REMARK    1  A    between atoms: C10_14  and  N2_15 
REMARK       I    between atoms: N2_15  and  C11_17 
REMARK       I    between atoms: N4_19  and  C12_21 
REMARK       I    between atoms: C12_21  and  N6_25 
ROOT
HETATM    1  C1  UNL     1     -36.700   5.180 -15.686  1.00  0.00     0.049 C 
HETATM    2  C2  UNL     1     -38.179   5.120 -15.672  1.00  0.00    -0.054 A 
HETATM    3  C3  UNL     1     -38.931   6.239 -15.477  1.00  0.00     0.008 A 
HETATM    4  C4  UNL     1     -40.314   6.176 -15.466  1.00  0.00     0.017 A 
HETATM    5  C5  UNL     1     -41.015   4.979 -15.649  1.00  0.00     0.033 A 
HETATM    6  C6  UNL     1     -40.245   3.883 -15.840  1.00  0.00     0.100 A 
HETATM    7  C7  UNL     1     -38.880   3.927 -15.855  1.00  0.00    -0.032 A 
HETATM    8  C8  UNL     1     -38.062   2.707 -16.066  1.00  0.00     0.050 C 
HETATM    9  S1  UNL     1     -41.320   2.531 -16.043  1.00  0.00     0.267 S 
HETATM   10  O1  UNL     1     -41.199   1.945 -17.424  1.00  0.00    -0.200 OA
HETATM   11  O2  UNL     1     -41.120   1.487 -14.985  1.00  0.00    -0.200 OA
HETATM   12  N1  UNL     1     -42.792   3.370 -15.883  1.00  0.00    -0.260 N 
HETATM   13  C9  UNL     1     -44.140   2.822 -15.951  1.00  0.00     0.171 C 
HETATM   14  C10 UNL     1     -42.430   4.771 -15.661  1.00  0.00     0.131 A 
ENDROOT
BRANCH  14  15
HETATM   15  N2  UNL     1     -43.402   5.579 -15.514  1.00  0.00    -0.315 N 
HETATM   16  C11 UNL     1     -43.849   6.617 -16.284  1.00  0.00     0.208 C 
HETATM   17  N3  UNL     1     -44.826   6.378 -17.333  1.00  0.00    -0.063 NA
HETATM   18  N4  UNL     1     -43.473   7.862 -16.130  1.00  0.00    -0.164 N 
HETATM   19  C12 UNL     1     -44.008   8.839 -16.990  1.00  0.00     0.675 C 
ATOM     20  H4  UNL     1     -42.806   8.118 -15.402  1.00  0.00     0.187 HD
HETATM   21  N5  UNL     1     -43.256   9.532 -17.750  1.00  0.00    -0.235 N 
HETATM   22  N6  UNL     1     -45.420   9.027 -16.985  1.00  0.00    -0.227 N 
ATOM     23  H52 UNL     1     -42.244   9.397 -17.753  1.00  0.00     0.174 HD
ATOM     24  H51 UNL     1     -43.644  10.240 -18.373  1.00  0.00     0.174 HD
HETATM   25  C13 UNL     1     -46.145   9.301 -18.220  1.00  0.00     0.168 C 
HETATM   26  C14 UNL     1     -46.117   8.939 -15.705  1.00  0.00     0.168 C 
ATOM     27  H2  UNL     1     -43.948   5.425 -14.666  1.00  0.00     0.170 HD
ENDBRANCH  14  15
TORSDOF 1
ENDMDL
MODEL 5
REMARK VINA RESULT: -7.606136772      4.346      7.328
REMARK  1 active torsions:
REMARK  status: ('A' for Active; 'I' for Inactive)
REMARK    1  A    between atoms: C10_14  and  N2_15 
REMARK       I    between atoms: N2_15  and  C11_17 
REMARK       I    between atoms: N4_19  and  C12_21 
REMARK       I    between atoms: C12_21  and  N6_25 
ROOT
HETATM    1  C1  UNL     1     -44.223   8.848 -17.539  1.00  0.00     0.049 C 
HETATM    2  C2  UNL     1     -44.047   7.463 -17.047  1.00  0.00    -0.054 A 
HETATM    3  C3  UNL     1     -45.105   6.728 -16.607  1.00  0.00     0.008 A 
HETATM    4  C4  UNL     1     -44.933   5.433 -16.149  1.00  0.00     0.017 A 
HETATM    5  C5  UNL     1     -43.681   4.808 -16.110  1.00  0.00     0.033 A 
HETATM    6  C6  UNL     1     -42.648   5.559 -16.553  1.00  0.00     0.100 A 
HETATM    7  C7  UNL     1     -42.799   6.838 -17.008  1.00  0.00    -0.032 A 
HETATM    8  C8  UNL     1     -41.645   7.639 -17.487  1.00  0.00     0.050 C 
HETATM    9  S1  UNL     1     -41.211   4.588 -16.413  1.00  0.00     0.267 S 
HETATM   10  O1  UNL     1     -40.617   4.302 -17.766  1.00  0.00    -0.200 OA
HETATM   11  O2  UNL     1     -40.203   5.202 -15.489  1.00  0.00    -0.200 OA
HETATM   12  N1  UNL     1     -41.933   3.185 -15.776  1.00  0.00    -0.260 N 
HETATM   13  C9  UNL     1     -41.279   1.936 -15.410  1.00  0.00     0.171 C 
HETATM   14  C10 UNL     1     -43.362   3.486 -15.666  1.00  0.00     0.131 A 
ENDROOT
BRANCH  14  15
HETATM   15  N2  UNL     1     -44.092   2.553 -15.203  1.00  0.00    -0.315 N 
HETATM   16  C11 UNL     1     -44.835   1.585 -15.820  1.00  0.00     0.208 C 
HETATM   17  N3  UNL     1     -44.232   0.304 -16.150  1.00  0.00    -0.063 NA
HETATM   18  N4  UNL     1     -46.101   1.713 -16.127  1.00  0.00    -0.164 N 
HETATM   19  C12 UNL     1     -46.752   0.639 -16.763  1.00  0.00     0.675 C 
ATOM     20  H4  UNL     1     -46.605   2.573 -15.911  1.00  0.00     0.187 HD
HETATM   21  N5  UNL     1     -47.271   0.774 -17.920  1.00  0.00    -0.235 N 
HETATM   22  N6  UNL     1     -46.813  -0.604 -16.072  1.00  0.00    -0.227 N 
ATOM     23  H52 UNL     1     -47.228   1.666 -18.414  1.00  0.00     0.174 HD
ATOM     24  H51 UNL     1     -47.743  -0.004 -18.380  1.00  0.00     0.174 HD
HETATM   25  C13 UNL     1     -46.671  -1.867 -16.787  1.00  0.00     0.168 C 
HETATM   26  C14 UNL     1     -47.022  -0.575 -14.627  1.00  0.00     0.168 C 
ATOM     27  H2  UNL     1     -44.132   2.521 -14.184  1.00  0.00     0.170 HD
ENDBRANCH  14  15
TORSDOF 1
ENDMDL
