MODEL 1
REMARK VINA RESULT: -10.638299763      0.000      0.000
REMARK  3 active torsions:
REMARK  status: ('A' for Active; 'I' for Inactive)
REMARK    1  A    between atoms: C8_10  and  O3_11 
REMARK    2  A    between atoms: C20_24  and  O4_25 
REMARK    3  A    between atoms: C27_33  and  N1_34 
ROOT
HETATM    1  C1  UNL     1      35.782 117.878  53.097  1.00  0.00     0.012 C 
HETATM    2  C2  UNL     1      36.969 118.780  53.414  1.00  0.00     0.006 C 
HETATM    3  C3  UNL     1      37.147 119.826  52.318  1.00  0.00     0.012 C 
HETATM    4  C4  UNL     1      38.593 119.901  51.872  1.00  0.00     0.074 C 
HETATM    5  C5  UNL     1      39.009 118.604  51.244  1.00  0.00     0.189 C 
HETATM    6  O1  UNL     1      38.311 117.592  51.946  1.00  0.00    -0.351 OA
HETATM    7  C6  UNL     1      38.212 117.888  53.299  1.00  0.00     0.176 C 
HETATM    8  O2  UNL     1      40.377 118.391  51.292  1.00  0.00    -0.342 OA
HETATM    9  C7  UNL     1      40.718 117.140  50.828  1.00  0.00     0.164 C 
HETATM   10  C8  UNL     1      41.523 116.300  51.844  1.00  0.00     0.157 C 
HETATM   11  C9  UNL     1      42.614 115.610  51.033  1.00  0.00    -0.001 C 
HETATM   12  C10 UNL     1      42.391 114.107  51.421  1.00  0.00     0.019 C 
HETATM   13  C11 UNL     1      41.977 115.661  49.728  1.00  0.00     0.009 C 
HETATM   14  C12 UNL     1      42.420 115.337  48.428  1.00  0.00     0.007 C 
HETATM   15  C13 UNL     1      42.532 116.688  47.693  1.00  0.00     0.006 C 
HETATM   16  C14 UNL     1      42.156 117.746  48.703  1.00  0.00    -0.002 C 
HETATM   17  C15 UNL     1      43.174 118.601  49.294  1.00  0.00     0.011 C 
HETATM   18  C16 UNL     1      44.601 118.370  49.133  1.00  0.00    -0.001 C 
HETATM   19  C17 UNL     1      45.350 117.671  50.225  1.00  0.00    -0.004 C 
HETATM   20  C18 UNL     1      46.749 117.667  49.554  1.00  0.00     0.013 C 
HETATM   21  C19 UNL     1      46.834 119.100  49.068  1.00  0.00     0.023 C 
HETATM   22  C20 UNL     1      47.610 119.904  50.078  1.00  0.00     0.123 C 
HETATM   23  C21 UNL     1      46.706 121.078  50.397  1.00  0.00     0.033 C 
HETATM   24  C22 UNL     1      45.277 120.557  50.193  1.00  0.00     0.012 C 
HETATM   25  C23 UNL     1      45.438 119.662  49.044  1.00  0.00    -0.034 C 
HETATM   26  C24 UNL     1      45.138 120.270  47.700  1.00  0.00     0.016 C 
HETATM   27  C25 UNL     1      44.983 116.220  50.354  1.00  0.00     0.003 C 
HETATM   28  C26 UNL     1      46.072 115.429  50.999  1.00  0.00     0.042 C 
HETATM   29  C27 UNL     1      44.947 114.733  51.810  1.00  0.00     0.233 C 
HETATM   30  C32 UNL     1      44.005 115.855  51.416  1.00  0.00     0.001 C 
HETATM   31  C33 UNL     1      44.268 116.863  52.565  1.00  0.00     0.019 C 
HETATM   32  C34 UNL     1      41.209 116.994  49.511  1.00  0.00    -0.000 C 
HETATM   33  C35 UNL     1      39.988 116.768  48.587  1.00  0.00     0.040 C 
HETATM   34  C36 UNL     1      38.713 117.275  49.092  1.00  0.00    -0.018 C 
HETATM   35  C37 UNL     1      38.560 118.537  49.810  1.00  0.00    -0.026 C 
HETATM   36  C38 UNL     1      38.928 119.796  49.076  1.00  0.00     0.049 C 
ENDROOT
BRANCH  10  37
HETATM   37  O3  UNL     1      41.772 117.140  52.835  1.00  0.00    -0.392 OA
ATOM     38  H3  UNL     1      41.501 116.669  53.615  1.00  0.00     0.210 HD
ENDBRANCH  10  37
BRANCH  29  39
HETATM   39  N1  UNL     1      45.527 114.679  53.133  1.00  0.00     0.098 N 
HETATM   40  C28 UNL     1      46.562 113.615  53.179  1.00  0.00     0.299 C 
HETATM   41  C29 UNL     1      46.640 112.967  54.531  1.00  0.00     0.198 C 
HETATM   42  O5  UNL     1      45.511 112.234  54.874  1.00  0.00    -0.388 OA
HETATM   43  C30 UNL     1      44.412 112.794  54.223  1.00  0.00     0.198 C 
HETATM   44  C31 UNL     1      44.698 114.303  54.221  1.00  0.00     0.299 C 
ENDBRANCH  29  39
BRANCH  22  45
HETATM   45  O4  UNL     1      48.785 120.327  49.445  1.00  0.00    -0.395 OA
ATOM     46  H4  UNL     1      49.201 120.954  50.026  1.00  0.00     0.210 HD
ENDBRANCH  22  45
TORSDOF 3
ENDMDL
MODEL 2
REMARK VINA RESULT: -9.151479861      2.634      5.792
REMARK  3 active torsions:
REMARK  status: ('A' for Active; 'I' for Inactive)
REMARK    1  A    between atoms: C8_10  and  O3_11 
REMARK    2  A    between atoms: C20_24  and  O4_25 
REMARK    3  A    between atoms: C27_33  and  N1_34 
ROOT
HETATM    1  C1  UNL     1      39.850 124.124  50.532  1.00  0.00     0.012 C 
HETATM    2  C2  UNL     1      40.070 123.330  51.813  1.00  0.00     0.006 C 
HETATM    3  C3  UNL     1      41.536 123.393  52.231  1.00  0.00     0.012 C 
HETATM    4  C4  UNL     1      42.062 122.012  52.566  1.00  0.00     0.074 C 
HETATM    5  C5  UNL     1      42.041 121.140  51.345  1.00  0.00     0.189 C 
HETATM    6  O1  UNL     1      40.904 121.539  50.603  1.00  0.00    -0.351 OA
HETATM    7  C6  UNL     1      39.841 121.861  51.437  1.00  0.00     0.176 C 
HETATM    8  O2  UNL     1      41.993 119.788  51.644  1.00  0.00    -0.342 OA
HETATM    9  C7  UNL     1      41.843 119.018  50.513  1.00  0.00     0.164 C 
HETATM   10  C8  UNL     1      40.610 118.088  50.554  1.00  0.00     0.157 C 
HETATM   11  C9  UNL     1      41.079 116.759  49.973  1.00  0.00    -0.001 C 
HETATM   12  C10 UNL     1      40.022 116.522  48.838  1.00  0.00     0.019 C 
HETATM   13  C11 UNL     1      42.212 117.247  49.205  1.00  0.00     0.009 C 
HETATM   14  C12 UNL     1      43.238 116.599  48.486  1.00  0.00     0.007 C 
HETATM   15  C13 UNL     1      44.523 116.857  49.299  1.00  0.00     0.006 C 
HETATM   16  C14 UNL     1      44.098 117.652  50.510  1.00  0.00    -0.002 C 
HETATM   17  C15 UNL     1      44.043 117.028  51.824  1.00  0.00     0.011 C 
HETATM   18  C16 UNL     1      44.175 115.594  52.031  1.00  0.00    -0.001 C 
HETATM   19  C17 UNL     1      42.936 114.770  52.205  1.00  0.00    -0.004 C 
HETATM   20  C18 UNL     1      43.621 113.386  52.355  1.00  0.00     0.013 C 
HETATM   21  C19 UNL     1      44.723 113.721  53.341  1.00  0.00     0.023 C 
HETATM   22  C20 UNL     1      44.257 113.349  54.725  1.00  0.00     0.123 C 
HETATM   23  C21 UNL     1      44.461 114.611  55.541  1.00  0.00     0.033 C 
HETATM   24  C22 UNL     1      44.302 115.768  54.544  1.00  0.00     0.012 C 
HETATM   25  C23 UNL     1      44.911 115.214  53.332  1.00  0.00    -0.034 C 
HETATM   26  C24 UNL     1      46.359 115.562  53.116  1.00  0.00     0.016 C 
HETATM   27  C25 UNL     1      42.122 114.659  50.947  1.00  0.00     0.003 C 
HETATM   28  C26 UNL     1      41.259 113.442  50.952  1.00  0.00     0.042 C 
HETATM   29  C27 UNL     1      40.143 114.356  50.379  1.00  0.00     0.233 C 
HETATM   30  C32 UNL     1      40.949 115.566  50.811  1.00  0.00     0.001 C 
HETATM   31  C33 UNL     1      40.422 115.757  52.257  1.00  0.00     0.019 C 
HETATM   32  C34 UNL     1      42.971 118.379  49.950  1.00  0.00    -0.000 C 
HETATM   33  C35 UNL     1      43.599 119.365  48.935  1.00  0.00     0.040 C 
HETATM   34  C36 UNL     1      43.302 120.779  49.163  1.00  0.00    -0.018 C 
HETATM   35  C37 UNL     1      43.245 121.401  50.483  1.00  0.00    -0.026 C 
HETATM   36  C38 UNL     1      44.504 121.389  51.305  1.00  0.00     0.049 C 
ENDROOT
BRANCH  10  37
HETATM   37  O3  UNL     1      40.143 118.222  51.784  1.00  0.00    -0.392 OA
ATOM     38  H3  UNL     1      40.142 117.338  52.132  1.00  0.00     0.210 HD
ENDBRANCH  10  37
BRANCH  29  39
HETATM   39  N1  UNL     1      38.989 113.922  51.134  1.00  0.00     0.098 N 
HETATM   40  C28 UNL     1      38.623 112.540  50.733  1.00  0.00     0.299 C 
HETATM   41  C29 UNL     1      37.142 112.308  50.812  1.00  0.00     0.198 C 
HETATM   42  O5  UNL     1      36.404 113.041  49.891  1.00  0.00    -0.388 OA
HETATM   43  C30 UNL     1      37.102 114.214  49.606  1.00  0.00     0.198 C 
HETATM   44  C31 UNL     1      37.759 114.600  50.940  1.00  0.00     0.299 C 
ENDBRANCH  29  39
BRANCH  22  45
HETATM   45  O4  UNL     1      45.092 112.318  55.172  1.00  0.00    -0.395 OA
ATOM     46  H4  UNL     1      45.787 112.725  55.676  1.00  0.00     0.210 HD
ENDBRANCH  22  45
TORSDOF 3
ENDMDL
MODEL 3
REMARK VINA RESULT: -8.509641411      2.845      8.082
REMARK  3 active torsions:
REMARK  status: ('A' for Active; 'I' for Inactive)
REMARK    1  A    between atoms: C8_10  and  O3_11 
REMARK    2  A    between atoms: C20_24  and  O4_25 
REMARK    3  A    between atoms: C27_33  and  N1_34 
ROOT
HETATM    1  C1  UNL     1      46.763 113.833  51.842  1.00  0.00     0.012 C 
HETATM    2  C2  UNL     1      45.730 114.095  52.931  1.00  0.00     0.006 C 
HETATM    3  C3  UNL     1      44.549 113.140  52.782  1.00  0.00     0.012 C 
HETATM    4  C4  UNL     1      43.235 113.890  52.863  1.00  0.00     0.074 C 
HETATM    5  C5  UNL     1      43.112 114.844  51.713  1.00  0.00     0.189 C 
HETATM    6  O1  UNL     1      44.424 115.308  51.451  1.00  0.00    -0.351 OA
HETATM    7  C6  UNL     1      45.145 115.480  52.626  1.00  0.00     0.176 C 
HETATM    8  O2  UNL     1      42.253 115.900  51.972  1.00  0.00    -0.342 OA
HETATM    9  C7  UNL     1      42.257 116.827  50.955  1.00  0.00     0.164 C 
HETATM   10  C8  UNL     1      42.608 118.258  51.421  1.00  0.00     0.157 C 
HETATM   11  C9  UNL     1      41.652 119.179  50.673  1.00  0.00    -0.001 C 
HETATM   12  C10 UNL     1      42.648 120.187  50.000  1.00  0.00     0.019 C 
HETATM   13  C11 UNL     1      41.339 118.304  49.556  1.00  0.00     0.009 C 
HETATM   14  C12 UNL     1      40.415 118.393  48.493  1.00  0.00     0.007 C 
HETATM   15  C13 UNL     1      39.362 117.304  48.784  1.00  0.00     0.006 C 
HETATM   16  C14 UNL     1      39.773 116.663  50.088  1.00  0.00    -0.002 C 
HETATM   17  C15 UNL     1      39.036 116.936  51.313  1.00  0.00     0.011 C 
HETATM   18  C16 UNL     1      38.023 117.974  51.418  1.00  0.00    -0.001 C 
HETATM   19  C17 UNL     1      38.399 119.296  52.013  1.00  0.00    -0.004 C 
HETATM   20  C18 UNL     1      37.023 119.996  51.864  1.00  0.00     0.013 C 
HETATM   21  C19 UNL     1      36.097 118.914  52.385  1.00  0.00     0.023 C 
HETATM   22  C20 UNL     1      35.793 119.199  53.832  1.00  0.00     0.123 C 
HETATM   23  C21 UNL     1      36.137 117.909  54.550  1.00  0.00     0.033 C 
HETATM   24  C22 UNL     1      37.251 117.265  53.713  1.00  0.00     0.012 C 
HETATM   25  C23 UNL     1      36.847 117.609  52.347  1.00  0.00    -0.034 C 
HETATM   26  C24 UNL     1      36.045 116.561  51.624  1.00  0.00     0.016 C 
HETATM   27  C25 UNL     1      39.328 120.090  51.139  1.00  0.00     0.003 C 
HETATM   28  C26 UNL     1      39.245 121.552  51.428  1.00  0.00     0.042 C 
HETATM   29  C27 UNL     1      40.794 121.556  51.330  1.00  0.00     0.233 C 
HETATM   30  C32 UNL     1      40.780 120.045  51.468  1.00  0.00     0.001 C 
HETATM   31  C33 UNL     1      40.835 119.901  53.011  1.00  0.00     0.019 C 
HETATM   32  C34 UNL     1      41.216 116.821  50.000  1.00  0.00    -0.000 C 
HETATM   33  C35 UNL     1      41.650 115.877  48.852  1.00  0.00     0.040 C 
HETATM   34  C36 UNL     1      42.639 114.861  49.211  1.00  0.00    -0.018 C 
HETATM   35  C37 UNL     1      42.640 114.131  50.476  1.00  0.00    -0.026 C 
HETATM   36  C38 UNL     1      41.444 113.273  50.777  1.00  0.00     0.049 C 
ENDROOT
BRANCH  10  37
HETATM   37  O3  UNL     1      42.653 118.168  52.740  1.00  0.00    -0.392 OA
ATOM     38  H3  UNL     1      43.088 117.339  52.904  1.00  0.00     0.210 HD
ENDBRANCH  10  37
BRANCH  29  39
HETATM   39  N1  UNL     1      41.158 122.402  52.444  1.00  0.00     0.098 N 
HETATM   40  C28 UNL     1      41.117 123.824  52.023  1.00  0.00     0.299 C 
HETATM   41  C29 UNL     1      42.148 124.651  52.736  1.00  0.00     0.198 C 
HETATM   42  O5  UNL     1      43.459 124.329  52.407  1.00  0.00    -0.388 OA
HETATM   43  C30 UNL     1      43.500 122.983  52.042  1.00  0.00     0.198 C 
HETATM   44  C31 UNL     1      42.474 122.306  52.964  1.00  0.00     0.299 C 
ENDBRANCH  29  39
BRANCH  22  45
HETATM   45  O4  UNL     1      34.422 119.472  53.913  1.00  0.00    -0.395 OA
ATOM     46  H4  UNL     1      34.041 119.222  53.079  1.00  0.00     0.210 HD
ENDBRANCH  22  45
TORSDOF 3
ENDMDL
MODEL 4
REMARK VINA RESULT: -8.467083945      2.197      7.109
REMARK  3 active torsions:
REMARK  status: ('A' for Active; 'I' for Inactive)
REMARK    1  A    between atoms: C8_10  and  O3_11 
REMARK    2  A    between atoms: C20_24  and  O4_25 
REMARK    3  A    between atoms: C27_33  and  N1_34 
ROOT
HETATM    1  C1  UNL     1      45.553 124.653  51.140  1.00  0.00     0.012 C 
HETATM    2  C2  UNL     1      45.579 123.671  52.305  1.00  0.00     0.006 C 
HETATM    3  C3  UNL     1      46.776 122.732  52.180  1.00  0.00     0.012 C 
HETATM    4  C4  UNL     1      46.355 121.291  52.384  1.00  0.00     0.074 C 
HETATM    5  C5  UNL     1      45.411 120.868  51.297  1.00  0.00     0.189 C 
HETATM    6  O1  UNL     1      44.647 122.016  50.979  1.00  0.00    -0.351 OA
HETATM    7  C6  UNL     1      44.358 122.764  52.113  1.00  0.00     0.176 C 
HETATM    8  O2  UNL     1      44.594 119.811  51.667  1.00  0.00    -0.342 OA
HETATM    9  C7  UNL     1      43.653 119.529  50.704  1.00  0.00     0.164 C 
HETATM   10  C8  UNL     1      42.199 119.577  51.224  1.00  0.00     0.157 C 
HETATM   11  C9  UNL     1      41.496 118.383  50.588  1.00  0.00    -0.001 C 
HETATM   12  C10 UNL     1      40.261 119.069  49.909  1.00  0.00     0.019 C 
HETATM   13  C11 UNL     1      42.377 118.197  49.447  1.00  0.00     0.009 C 
HETATM   14  C12 UNL     1      42.464 117.200  48.451  1.00  0.00     0.007 C 
HETATM   15  C13 UNL     1      43.778 116.449  48.748  1.00  0.00     0.006 C 
HETATM   16  C14 UNL     1      44.355 117.091  49.987  1.00  0.00    -0.002 C 
HETATM   17  C15 UNL     1      44.308 116.403  51.269  1.00  0.00     0.011 C 
HETATM   18  C16 UNL     1      43.538 115.191  51.494  1.00  0.00    -0.001 C 
HETATM   19  C17 UNL     1      42.188 115.297  52.135  1.00  0.00    -0.004 C 
HETATM   20  C18 UNL     1      41.822 113.790  52.111  1.00  0.00     0.013 C 
HETATM   21  C19 UNL     1      43.108 113.178  52.630  1.00  0.00     0.023 C 
HETATM   22  C20 UNL     1      42.956 112.924  54.107  1.00  0.00     0.123 C 
HETATM   23  C21 UNL     1      44.158 113.606  54.730  1.00  0.00     0.033 C 
HETATM   24  C22 UNL     1      44.494 114.773  53.791  1.00  0.00     0.012 C 
HETATM   25  C23 UNL     1      44.201 114.201  52.474  1.00  0.00    -0.034 C 
HETATM   26  C24 UNL     1      45.378 113.609  51.747  1.00  0.00     0.016 C 
HETATM   27  C25 UNL     1      41.168 115.953  51.249  1.00  0.00     0.003 C 
HETATM   28  C26 UNL     1      39.777 115.560  51.621  1.00  0.00     0.042 C 
HETATM   29  C27 UNL     1      39.411 117.055  51.426  1.00  0.00     0.233 C 
HETATM   30  C32 UNL     1      40.888 117.397  51.482  1.00  0.00     0.001 C 
HETATM   31  C33 UNL     1      41.074 117.598  53.009  1.00  0.00     0.019 C 
HETATM   32  C34 UNL     1      43.865 118.449  49.817  1.00  0.00    -0.000 C 
HETATM   33  C35 UNL     1      44.637 119.001  48.595  1.00  0.00     0.040 C 
HETATM   34  C36 UNL     1      45.409 120.220  48.835  1.00  0.00    -0.018 C 
HETATM   35  C37 UNL     1      46.166 120.482  50.055  1.00  0.00    -0.026 C 
HETATM   36  C38 UNL     1      47.290 119.538  50.385  1.00  0.00     0.049 C 
ENDROOT
BRANCH  10  37
HETATM   37  O3  UNL     1      42.327 119.738  52.530  1.00  0.00    -0.392 OA
ATOM     38  H3  UNL     1      41.972 120.605  52.695  1.00  0.00     0.210 HD
ENDBRANCH  10  37
BRANCH  29  39
HETATM   39  N1  UNL     1      38.546 117.298  52.559  1.00  0.00     0.098 N 
HETATM   40  C28 UNL     1      37.137 117.038  52.174  1.00  0.00     0.299 C 
HETATM   41  C29 UNL     1      36.182 117.939  52.902  1.00  0.00     0.198 C 
HETATM   42  O5  UNL     1      36.293 119.280  52.558  1.00  0.00    -0.388 OA
HETATM   43  C30 UNL     1      37.608 119.521  52.159  1.00  0.00     0.198 C 
HETATM   44  C31 UNL     1      38.454 118.618  53.069  1.00  0.00     0.299 C 
ENDBRANCH  29  39
BRANCH  22  45
HETATM   45  O4  UNL     1      43.012 111.537  54.289  1.00  0.00    -0.395 OA
ATOM     46  H4  UNL     1      43.595 111.194  53.622  1.00  0.00     0.210 HD
ENDBRANCH  22  45
TORSDOF 3
ENDMDL
MODEL 5
REMARK VINA RESULT: -8.353454510      7.698     10.764
REMARK  3 active torsions:
REMARK  status: ('A' for Active; 'I' for Inactive)
REMARK    1  A    between atoms: C8_10  and  O3_11 
REMARK    2  A    between atoms: C20_24  and  O4_25 
REMARK    3  A    between atoms: C27_33  and  N1_34 
ROOT
HETATM    1  C1  UNL     1      34.959 105.020  59.837  1.00  0.00     0.012 C 
HETATM    2  C2  UNL     1      34.579 106.434  59.413  1.00  0.00     0.006 C 
HETATM    3  C3  UNL     1      33.763 106.400  58.124  1.00  0.00     0.012 C 
HETATM    4  C4  UNL     1      34.295 107.404  57.122  1.00  0.00     0.074 C 
HETATM    5  C5  UNL     1      35.690 107.036  56.711  1.00  0.00     0.189 C 
HETATM    6  O1  UNL     1      36.296 106.468  57.857  1.00  0.00    -0.351 OA
HETATM    7  C6  UNL     1      35.894 107.118  59.018  1.00  0.00     0.176 C 
HETATM    8  O2  UNL     1      36.422 108.117  56.244  1.00  0.00    -0.342 OA
HETATM    9  C7  UNL     1      37.734 107.780  55.997  1.00  0.00     0.164 C 
HETATM   10  C8  UNL     1      38.753 108.651  56.764  1.00  0.00     0.157 C 
HETATM   11  C9  UNL     1      39.870 108.947  55.770  1.00  0.00    -0.001 C 
HETATM   12  C10 UNL     1      41.134 108.464  56.564  1.00  0.00     0.019 C 
HETATM   13  C11 UNL     1      39.659 107.825  54.869  1.00  0.00     0.009 C 
HETATM   14  C12 UNL     1      40.218 107.475  53.622  1.00  0.00     0.007 C 
HETATM   15  C13 UNL     1      39.073 107.653  52.604  1.00  0.00     0.006 C 
HETATM   16  C14 UNL     1      37.888 108.157  53.392  1.00  0.00    -0.002 C 
HETATM   17  C15 UNL     1      37.466 109.546  53.291  1.00  0.00     0.011 C 
HETATM   18  C16 UNL     1      38.251 110.570  52.620  1.00  0.00    -0.001 C 
HETATM   19  C17 UNL     1      39.114 111.477  53.443  1.00  0.00    -0.004 C 
HETATM   20  C18 UNL     1      39.715 112.311  52.281  1.00  0.00     0.013 C 
HETATM   21  C19 UNL     1      38.467 112.611  51.473  1.00  0.00     0.023 C 
HETATM   22  C20 UNL     1      37.969 113.981  51.852  1.00  0.00     0.123 C 
HETATM   23  C21 UNL     1      36.514 113.762  52.220  1.00  0.00     0.033 C 
HETATM   24  C22 UNL     1      36.442 112.323  52.751  1.00  0.00     0.012 C 
HETATM   25  C23 UNL     1      37.403 111.631  51.888  1.00  0.00    -0.034 C 
HETATM   26  C24 UNL     1      36.817 110.946  50.682  1.00  0.00     0.016 C 
HETATM   27  C25 UNL     1      40.290 110.772  54.056  1.00  0.00     0.003 C 
HETATM   28  C26 UNL     1      41.401 111.718  54.367  1.00  0.00     0.042 C 
HETATM   29  C27 UNL     1      41.541 110.951  55.709  1.00  0.00     0.233 C 
HETATM   30  C32 UNL     1      40.168 110.349  55.478  1.00  0.00     0.001 C 
HETATM   31  C33 UNL     1      39.271 111.428  56.139  1.00  0.00     0.019 C 
HETATM   32  C34 UNL     1      38.149 107.518  54.672  1.00  0.00    -0.000 C 
HETATM   33  C35 UNL     1      37.937 106.007  54.413  1.00  0.00     0.040 C 
HETATM   34  C36 UNL     1      36.936 105.357  55.258  1.00  0.00    -0.018 C 
HETATM   35  C37 UNL     1      35.671 105.972  55.649  1.00  0.00    -0.026 C 
HETATM   36  C38 UNL     1      34.711 106.332  54.549  1.00  0.00     0.049 C 
ENDROOT
BRANCH  10  37
HETATM   37  O3  UNL     1      38.015 109.590  57.333  1.00  0.00    -0.392 OA
ATOM     38  H3  UNL     1      37.955 110.272  56.673  1.00  0.00     0.210 HD
ENDBRANCH  10  37
BRANCH  29  39
HETATM   39  N1  UNL     1      41.731 112.033  56.650  1.00  0.00     0.098 N 
HETATM   40  C28 UNL     1      43.106 112.575  56.512  1.00  0.00     0.299 C 
HETATM   41  C29 UNL     1      43.647 113.070  57.822  1.00  0.00     0.198 C 
HETATM   42  O5  UNL     1      43.866 112.068  58.759  1.00  0.00    -0.388 OA
HETATM   43  C30 UNL     1      42.968 111.031  58.507  1.00  0.00     0.198 C 
HETATM   44  C31 UNL     1      41.689 111.739  58.036  1.00  0.00     0.299 C 
ENDBRANCH  29  39
BRANCH  22  45
HETATM   45  O4  UNL     1      38.086 114.785  50.712  1.00  0.00    -0.395 OA
ATOM     46  H4  UNL     1      37.306 115.325  50.674  1.00  0.00     0.210 HD
ENDBRANCH  22  45
TORSDOF 3
ENDMDL
