MODEL 1
REMARK VINA RESULT: -10.564970755      0.000      0.000
REMARK  5 active torsions:
REMARK  status: ('A' for Active; 'I' for Inactive)
REMARK    1  A    between atoms: N1_1  and  C1_5 
REMARK    2  A    between atoms: N2_11  and  C7_12 
REMARK    3  A    between atoms: C7_12  and  O1_13 
REMARK    4  A    between atoms: C7_12  and  C8_15 
REMARK    5  A    between atoms: C23_32  and  C24_33 
ROOT
HETATM    1  C1  UNL     1      36.812 119.687  52.510  1.00  0.00     0.274 C 
HETATM    2  C2  UNL     1      37.674 118.983  51.486  1.00  0.00     0.042 C 
HETATM    3  C3  UNL     1      37.070 117.665  51.107  1.00  0.00     0.002 C 
HETATM    4  C4  UNL     1      38.090 116.842  50.325  1.00  0.00     0.002 C 
HETATM    5  C5  UNL     1      37.725 115.373  50.338  1.00  0.00     0.020 C 
HETATM    6  C6  UNL     1      38.366 114.772  51.581  1.00  0.00     0.124 C 
HETATM    7  N2  UNL     1      38.359 113.314  51.535  1.00  0.00    -0.364 N 
HETATM    8  C17 UNL     1      39.410 112.695  50.803  1.00  0.00     0.124 C 
HETATM    9  C18 UNL     1      40.546 113.614  50.403  1.00  0.00     0.020 C 
HETATM   10  C19 UNL     1      41.621 113.674  51.457  1.00  0.00     0.002 C 
HETATM   11  C20 UNL     1      42.867 114.353  50.928  1.00  0.00     0.000 C 
HETATM   12  C21 UNL     1      44.035 113.889  51.763  1.00  0.00     0.001 C 
HETATM   13  C22 UNL     1      44.765 115.112  52.265  1.00  0.00     0.015 C 
HETATM   14  C23 UNL     1      45.976 115.325  51.393  1.00  0.00     0.087 C 
HETATM   15  C25 UNL     1      46.398 116.779  51.447  1.00  0.00     0.015 C 
HETATM   16  C26 UNL     1      45.453 117.541  50.536  1.00  0.00     0.001 C 
HETATM   17  C27 UNL     1      44.955 118.793  51.208  1.00  0.00     0.000 C 
HETATM   18  C28 UNL     1      45.621 120.033  50.644  1.00  0.00     0.000 C 
HETATM   19  C29 UNL     1      44.587 121.098  50.421  1.00  0.00     0.000 C 
HETATM   20  C30 UNL     1      43.960 121.551  51.721  1.00  0.00     0.000 C 
HETATM   21  C31 UNL     1      42.774 122.432  51.405  1.00  0.00     0.000 C 
HETATM   22  C32 UNL     1      41.680 122.257  52.445  1.00  0.00     0.002 C 
HETATM   23  C33 UNL     1      40.330 122.621  51.901  1.00  0.00     0.020 C 
HETATM   24  C34 UNL     1      39.401 121.400  51.909  1.00  0.00     0.122 C 
HETATM   25  N3  UNL     1      38.022 121.814  51.744  1.00  0.00    -0.359 N 
ATOM     26  H3  UNL     1      37.832 122.624  51.153  1.00  0.00     0.162 HD
HETATM   27  C35 UNL     1      36.921 121.161  52.357  1.00  0.00     0.248 C 
HETATM   28  O6  UNL     1      35.967 121.847  52.806  1.00  0.00    -0.271 OA
ENDROOT
BRANCH   7  29
HETATM   29  C7  UNL     1      37.345 112.625  52.175  1.00  0.00     0.130 C 
BRANCH  29  30
HETATM   30  O1  UNL     1      36.669 113.334  53.037  1.00  0.00    -0.349 OA
ATOM     31  H1  UNL     1      35.881 112.914  53.360  1.00  0.00     0.219 HD
ENDBRANCH  29  30
BRANCH  29  32
HETATM   32  C8  UNL     1      36.911 111.205  52.034  1.00  0.00     0.088 C 
HETATM   33  C9  UNL     1      36.772 110.790  50.653  1.00  0.00     0.058 C 
HETATM   34  C10 UNL     1      35.926 109.694  50.209  1.00  0.00     0.126 C 
HETATM   35  C11 UNL     1      36.536 108.320  50.286  1.00  0.00     0.064 C 
HETATM   36  O3  UNL     1      34.870 109.273  50.938  1.00  0.00    -0.380 OA
HETATM   37  C12 UNL     1      35.610 108.235  51.458  1.00  0.00     0.125 C 
HETATM   38  C13 UNL     1      36.192 108.389  52.780  1.00  0.00     0.044 C 
HETATM   39  C14 UNL     1      36.503 109.691  53.352  1.00  0.00     0.060 C 
HETATM   40  C15 UNL     1      35.771 110.894  52.969  1.00  0.00     0.038 C 
HETATM   41  C16 UNL     1      37.767 110.334  52.873  1.00  0.00     0.147 C 
HETATM   42  O2  UNL     1      38.942 110.142  53.134  1.00  0.00    -0.296 OA
ENDBRANCH  29  32
ENDBRANCH   7  29
BRANCH   1  43
HETATM   43  N1  UNL     1      35.407 119.342  52.334  1.00  0.00    -0.067 N 
ATOM     44  H13 UNL     1      34.963 119.924  51.623  1.00  0.00     0.275 HD
ATOM     45  H12 UNL     1      35.295 118.435  51.882  1.00  0.00     0.275 HD
ATOM     46  H11 UNL     1      34.907 119.384  53.222  1.00  0.00     0.275 HD
ENDBRANCH   1  43
BRANCH  14  47
HETATM   47  C24 UNL     1      47.098 114.493  51.839  1.00  0.00     0.177 C 
HETATM   48  O4  UNL     1      47.976 114.153  51.017  1.00  0.00    -0.648 OA
HETATM   49  O5  UNL     1      47.191 114.083  53.161  1.00  0.00    -0.648 OA
ENDBRANCH  14  47
TORSDOF 5
ENDMDL
MODEL 2
REMARK VINA RESULT: -10.038317668      3.855      9.891
REMARK  5 active torsions:
REMARK  status: ('A' for Active; 'I' for Inactive)
REMARK    1  A    between atoms: N1_1  and  C1_5 
REMARK    2  A    between atoms: N2_11  and  C7_12 
REMARK    3  A    between atoms: C7_12  and  O1_13 
REMARK    4  A    between atoms: C7_12  and  C8_15 
REMARK    5  A    between atoms: C23_32  and  C24_33 
ROOT
HETATM    1  C1  UNL     1      44.715 115.471  53.836  1.00  0.00     0.274 C 
HETATM    2  C2  UNL     1      44.141 114.290  53.084  1.00  0.00     0.042 C 
HETATM    3  C3  UNL     1      43.402 114.751  51.866  1.00  0.00     0.002 C 
HETATM    4  C4  UNL     1      42.579 113.597  51.300  1.00  0.00     0.002 C 
HETATM    5  C5  UNL     1      41.477 114.109  50.398  1.00  0.00     0.020 C 
HETATM    6  C6  UNL     1      40.271 114.381  51.286  1.00  0.00     0.124 C 
HETATM    7  N2  UNL     1      39.057 114.568  50.499  1.00  0.00    -0.364 N 
HETATM    8  C17 UNL     1      38.376 113.388  50.089  1.00  0.00     0.124 C 
HETATM    9  C18 UNL     1      38.844 112.109  50.754  1.00  0.00     0.020 C 
HETATM   10  C19 UNL     1      38.094 111.828  52.029  1.00  0.00     0.002 C 
HETATM   11  C20 UNL     1      38.360 110.421  52.521  1.00  0.00     0.000 C 
HETATM   12  C21 UNL     1      37.206 110.015  53.405  1.00  0.00     0.001 C 
HETATM   13  C22 UNL     1      37.772 109.534  54.720  1.00  0.00     0.015 C 
HETATM   14  C23 UNL     1      37.781 108.027  54.704  1.00  0.00     0.087 C 
HETATM   15  C25 UNL     1      38.823 107.509  55.673  1.00  0.00     0.015 C 
HETATM   16  C26 UNL     1      40.168 107.650  54.982  1.00  0.00     0.001 C 
HETATM   17  C27 UNL     1      41.186 108.258  55.911  1.00  0.00     0.000 C 
HETATM   18  C28 UNL     1      42.170 107.221  56.417  1.00  0.00     0.000 C 
HETATM   19  C29 UNL     1      43.561 107.781  56.355  1.00  0.00     0.000 C 
HETATM   20  C30 UNL     1      43.730 108.964  57.283  1.00  0.00     0.000 C 
HETATM   21  C31 UNL     1      45.060 109.620  56.991  1.00  0.00     0.000 C 
HETATM   22  C32 UNL     1      44.977 111.123  57.202  1.00  0.00     0.002 C 
HETATM   23  C33 UNL     1      46.015 111.857  56.406  1.00  0.00     0.020 C 
HETATM   24  C34 UNL     1      45.349 112.788  55.384  1.00  0.00     0.122 C 
HETATM   25  N3  UNL     1      46.306 113.753  54.882  1.00  0.00    -0.359 N 
ATOM     26  H3  UNL     1      47.276 113.456  54.779  1.00  0.00     0.162 HD
HETATM   27  C35 UNL     1      45.973 115.087  54.527  1.00  0.00     0.248 C 
HETATM   28  O6  UNL     1      46.773 116.018  54.803  1.00  0.00    -0.271 OA
ENDROOT
BRANCH   7  29
HETATM   29  C7  UNL     1      38.650 115.851  50.184  1.00  0.00     0.130 C 
BRANCH  29  30
HETATM   30  O1  UNL     1      38.765 116.160  48.921  1.00  0.00    -0.349 OA
ATOM     31  H1  UNL     1      39.614 115.961  48.543  1.00  0.00     0.219 HD
ENDBRANCH  29  30
BRANCH  29  32
HETATM   32  C8  UNL     1      38.105 116.928  51.058  1.00  0.00     0.088 C 
HETATM   33  C9  UNL     1      37.360 116.417  52.190  1.00  0.00     0.058 C 
HETATM   34  C10 UNL     1      36.335 117.165  52.901  1.00  0.00     0.126 C 
HETATM   35  C11 UNL     1      36.828 118.092  53.980  1.00  0.00     0.064 C 
HETATM   36  O3  UNL     1      35.670 118.186  52.319  1.00  0.00    -0.380 OA
HETATM   37  C12 UNL     1      36.493 119.105  52.932  1.00  0.00     0.125 C 
HETATM   38  C13 UNL     1      37.595 119.668  52.172  1.00  0.00     0.044 C 
HETATM   39  C14 UNL     1      38.206 118.974  51.047  1.00  0.00     0.060 C 
HETATM   40  C15 UNL     1      37.461 118.015  50.238  1.00  0.00     0.038 C 
HETATM   41  C16 UNL     1      39.180 117.892  51.392  1.00  0.00     0.147 C 
HETATM   42  O2  UNL     1      40.338 117.914  51.773  1.00  0.00    -0.296 OA
ENDBRANCH  29  32
ENDBRANCH   7  29
BRANCH   1  43
HETATM   43  N1  UNL     1      45.045 116.559  52.923  1.00  0.00    -0.067 N 
ATOM     44  H13 UNL     1      45.214 116.218  51.977  1.00  0.00     0.275 HD
ATOM     45  H12 UNL     1      44.236 117.149  52.733  1.00  0.00     0.275 HD
ATOM     46  H11 UNL     1      45.833 117.102  53.275  1.00  0.00     0.275 HD
ENDBRANCH   1  43
BRANCH  14  47
HETATM   47  C24 UNL     1      36.472 107.489  55.089  1.00  0.00     0.177 C 
HETATM   48  O4  UNL     1      36.029 107.713  56.235  1.00  0.00    -0.648 OA
HETATM   49  O5  UNL     1      35.727 106.736  54.193  1.00  0.00    -0.648 OA
ENDBRANCH  14  47
TORSDOF 5
ENDMDL
MODEL 3
REMARK VINA RESULT: -9.991180223      0.778      1.347
REMARK  5 active torsions:
REMARK  status: ('A' for Active; 'I' for Inactive)
REMARK    1  A    between atoms: N1_1  and  C1_5 
REMARK    2  A    between atoms: N2_11  and  C7_12 
REMARK    3  A    between atoms: C7_12  and  O1_13 
REMARK    4  A    between atoms: C7_12  and  C8_15 
REMARK    5  A    between atoms: C23_32  and  C24_33 
ROOT
HETATM    1  C1  UNL     1      36.774 119.526  52.496  1.00  0.00     0.274 C 
HETATM    2  C2  UNL     1      37.665 118.877  51.460  1.00  0.00     0.042 C 
HETATM    3  C3  UNL     1      37.118 117.541  51.061  1.00  0.00     0.002 C 
HETATM    4  C4  UNL     1      38.172 116.775  50.265  1.00  0.00     0.002 C 
HETATM    5  C5  UNL     1      37.871 115.292  50.255  1.00  0.00     0.020 C 
HETATM    6  C6  UNL     1      38.539 114.699  51.488  1.00  0.00     0.124 C 
HETATM    7  N2  UNL     1      38.595 113.243  51.419  1.00  0.00    -0.364 N 
HETATM    8  C17 UNL     1      39.672 112.682  50.677  1.00  0.00     0.124 C 
HETATM    9  C18 UNL     1      40.766 113.656  50.292  1.00  0.00     0.020 C 
HETATM   10  C19 UNL     1      41.838 113.747  51.346  1.00  0.00     0.002 C 
HETATM   11  C20 UNL     1      43.053 114.487  50.827  1.00  0.00     0.000 C 
HETATM   12  C21 UNL     1      44.241 114.061  51.655  1.00  0.00     0.001 C 
HETATM   13  C22 UNL     1      44.917 115.307  52.176  1.00  0.00     0.015 C 
HETATM   14  C23 UNL     1      46.118 115.586  51.307  1.00  0.00     0.087 C 
HETATM   15  C25 UNL     1      46.476 117.056  51.384  1.00  0.00     0.015 C 
HETATM   16  C26 UNL     1      45.498 117.791  50.485  1.00  0.00     0.001 C 
HETATM   17  C27 UNL     1      44.946 119.009  51.178  1.00  0.00     0.000 C 
HETATM   18  C28 UNL     1      45.557 120.285  50.634  1.00  0.00     0.000 C 
HETATM   19  C29 UNL     1      44.478 121.308  50.428  1.00  0.00     0.000 C 
HETATM   20  C30 UNL     1      43.833 121.712  51.735  1.00  0.00     0.000 C 
HETATM   21  C31 UNL     1      42.610 122.546  51.433  1.00  0.00     0.000 C 
HETATM   22  C32 UNL     1      41.525 122.307  52.470  1.00  0.00     0.002 C 
HETATM   23  C33 UNL     1      40.160 122.620  51.933  1.00  0.00     0.020 C 
HETATM   24  C34 UNL     1      39.285 121.360  51.922  1.00  0.00     0.122 C 
HETATM   25  N3  UNL     1      37.889 121.717  51.764  1.00  0.00    -0.359 N 
ATOM     26  H3  UNL     1      37.664 122.526  51.186  1.00  0.00     0.162 HD
HETATM   27  C35 UNL     1      36.818 121.006  52.366  1.00  0.00     0.248 C 
HETATM   28  O6  UNL     1      35.835 121.643  52.827  1.00  0.00    -0.271 OA
ENDROOT
BRANCH   7  29
HETATM   29  C7  UNL     1      37.613 112.500  52.048  1.00  0.00     0.130 C 
BRANCH  29  30
HETATM   30  O1  UNL     1      36.873 113.178  52.882  1.00  0.00    -0.349 OA
ATOM     31  H1  UNL     1      36.842 112.819  53.761  1.00  0.00     0.219 HD
ENDBRANCH  29  30
BRANCH  29  32
HETATM   32  C8  UNL     1      37.274 111.054  51.922  1.00  0.00     0.088 C 
HETATM   33  C9  UNL     1      38.181 110.194  52.653  1.00  0.00     0.058 C 
HETATM   34  C10 UNL     1      38.414 108.793  52.337  1.00  0.00     0.126 C 
HETATM   35  C11 UNL     1      37.431 107.815  52.924  1.00  0.00     0.064 C 
HETATM   36  O3  UNL     1      38.181 108.296  51.103  1.00  0.00    -0.380 OA
HETATM   37  C12 UNL     1      36.960 107.802  51.505  1.00  0.00     0.125 C 
HETATM   38  C13 UNL     1      35.764 108.565  51.192  1.00  0.00     0.044 C 
HETATM   39  C14 UNL     1      35.787 110.005  50.980  1.00  0.00     0.060 C 
HETATM   40  C15 UNL     1      36.977 110.692  50.489  1.00  0.00     0.038 C 
HETATM   41  C16 UNL     1      35.835 110.851  52.214  1.00  0.00     0.147 C 
HETATM   42  O2  UNL     1      34.988 111.168  53.031  1.00  0.00    -0.296 OA
ENDBRANCH  29  32
ENDBRANCH   7  29
BRANCH   1  43
HETATM   43  N1  UNL     1      35.384 119.124  52.315  1.00  0.00    -0.067 N 
ATOM     44  H13 UNL     1      34.746 119.912  52.428  1.00  0.00     0.275 HD
ATOM     45  H12 UNL     1      35.182 118.899  51.341  1.00  0.00     0.275 HD
ATOM     46  H11 UNL     1      35.145 118.352  52.936  1.00  0.00     0.275 HD
ENDBRANCH   1  43
BRANCH  14  47
HETATM   47  C24 UNL     1      47.275 114.796  51.739  1.00  0.00     0.177 C 
HETATM   48  O4  UNL     1      48.052 114.324  50.882  1.00  0.00    -0.648 OA
HETATM   49  O5  UNL     1      47.512 114.572  53.087  1.00  0.00    -0.648 OA
ENDBRANCH  14  47
TORSDOF 5
ENDMDL
MODEL 4
REMARK VINA RESULT: -9.927804144      4.336     11.934
REMARK  5 active torsions:
REMARK  status: ('A' for Active; 'I' for Inactive)
REMARK    1  A    between atoms: N1_1  and  C1_5 
REMARK    2  A    between atoms: N2_11  and  C7_12 
REMARK    3  A    between atoms: C7_12  and  O1_13 
REMARK    4  A    between atoms: C7_12  and  C8_15 
REMARK    5  A    between atoms: C23_32  and  C24_33 
ROOT
HETATM    1  C1  UNL     1      40.426 111.684  57.910  1.00  0.00     0.274 C 
HETATM    2  C2  UNL     1      40.480 110.918  56.607  1.00  0.00     0.042 C 
HETATM    3  C3  UNL     1      40.604 111.860  55.449  1.00  0.00     0.002 C 
HETATM    4  C4  UNL     1      40.345 111.106  54.147  1.00  0.00     0.002 C 
HETATM    5  C5  UNL     1      39.988 112.062  53.029  1.00  0.00     0.020 C 
HETATM    6  C6  UNL     1      38.478 112.256  53.082  1.00  0.00     0.124 C 
HETATM    7  N2  UNL     1      37.977 112.892  51.868  1.00  0.00    -0.364 N 
HETATM    8  C17 UNL     1      37.739 112.040  50.754  1.00  0.00     0.124 C 
HETATM    9  C18 UNL     1      37.773 110.556  51.058  1.00  0.00     0.020 C 
HETATM   10  C19 UNL     1      36.420 110.031  51.461  1.00  0.00     0.002 C 
HETATM   11  C20 UNL     1      36.404 108.517  51.476  1.00  0.00     0.000 C 
HETATM   12  C21 UNL     1      34.971 108.069  51.313  1.00  0.00     0.001 C 
HETATM   13  C22 UNL     1      34.652 107.110  52.436  1.00  0.00     0.015 C 
HETATM   14  C23 UNL     1      34.742 105.707  51.892  1.00  0.00     0.087 C 
HETATM   15  C25 UNL     1      35.013 104.735  53.023  1.00  0.00     0.015 C 
HETATM   16  C26 UNL     1      36.493 104.841  53.342  1.00  0.00     0.001 C 
HETATM   17  C27 UNL     1      36.714 104.937  54.829  1.00  0.00     0.000 C 
HETATM   18  C28 UNL     1      37.243 103.636  55.401  1.00  0.00     0.000 C 
HETATM   19  C29 UNL     1      38.361 103.929  56.358  1.00  0.00     0.000 C 
HETATM   20  C30 UNL     1      37.879 104.714  57.558  1.00  0.00     0.000 C 
HETATM   21  C31 UNL     1      39.082 105.179  58.346  1.00  0.00     0.000 C 
HETATM   22  C32 UNL     1      38.815 106.531  58.988  1.00  0.00     0.002 C 
HETATM   23  C33 UNL     1      40.087 107.278  59.263  1.00  0.00     0.020 C 
HETATM   24  C34 UNL     1      40.127 108.585  58.459  1.00  0.00     0.122 C 
HETATM   25  N3  UNL     1      41.145 109.470  58.987  1.00  0.00    -0.359 N 
ATOM     26  H3  UNL     1      41.995 109.052  59.366  1.00  0.00     0.162 HD
HETATM   27  C35 UNL     1      41.030 110.885  59.008  1.00  0.00     0.248 C 
HETATM   28  O6  UNL     1      41.455 111.525  60.005  1.00  0.00    -0.271 OA
ENDROOT
BRANCH   7  29
HETATM   29  C7  UNL     1      37.781 114.260  51.858  1.00  0.00     0.130 C 
BRANCH  29  30
HETATM   30  O1  UNL     1      36.742 114.663  52.536  1.00  0.00    -0.349 OA
ATOM     31  H1  UNL     1      36.943 115.261  53.247  1.00  0.00     0.219 HD
ENDBRANCH  29  30
BRANCH  29  32
HETATM   32  C8  UNL     1      38.567 115.338  51.192  1.00  0.00     0.088 C 
HETATM   33  C9  UNL     1      38.141 115.594  49.832  1.00  0.00     0.058 C 
HETATM   34  C10 UNL     1      38.984 116.189  48.807  1.00  0.00     0.126 C 
HETATM   35  C11 UNL     1      39.039 117.693  48.794  1.00  0.00     0.064 C 
HETATM   36  O3  UNL     1      40.331 116.134  48.878  1.00  0.00    -0.380 OA
HETATM   37  C12 UNL     1      40.382 117.412  49.388  1.00  0.00     0.125 C 
HETATM   38  C13 UNL     1      40.526 117.583  50.824  1.00  0.00     0.044 C 
HETATM   39  C14 UNL     1      40.093 116.573  51.779  1.00  0.00     0.060 C 
HETATM   40  C15 UNL     1      40.044 115.156  51.433  1.00  0.00     0.038 C 
HETATM   41  C16 UNL     1      38.626 116.530  52.071  1.00  0.00     0.147 C 
HETATM   42  O2  UNL     1      37.899 117.228  52.757  1.00  0.00    -0.296 OA
ENDBRANCH  29  32
ENDBRANCH   7  29
BRANCH   1  43
HETATM   43  N1  UNL     1      41.187 112.924  57.818  1.00  0.00    -0.067 N 
ATOM     44  H13 UNL     1      42.189 112.759  57.911  1.00  0.00     0.275 HD
ATOM     45  H12 UNL     1      41.180 113.301  56.870  1.00  0.00     0.275 HD
ATOM     46  H11 UNL     1      40.852 113.608  58.497  1.00  0.00     0.275 HD
ENDBRANCH   1  43
BRANCH  14  47
HETATM   47  C24 UNL     1      33.494 105.319  51.227  1.00  0.00     0.177 C 
HETATM   48  O4  UNL     1      33.512 104.413  50.367  1.00  0.00    -0.648 OA
HETATM   49  O5  UNL     1      32.300 105.948  51.546  1.00  0.00    -0.648 OA
ENDBRANCH  14  47
TORSDOF 5
ENDMDL
MODEL 5
REMARK VINA RESULT: -9.923628948      3.871     10.790
REMARK  5 active torsions:
REMARK  status: ('A' for Active; 'I' for Inactive)
REMARK    1  A    between atoms: N1_1  and  C1_5 
REMARK    2  A    between atoms: N2_11  and  C7_12 
REMARK    3  A    between atoms: C7_12  and  O1_13 
REMARK    4  A    between atoms: C7_12  and  C8_15 
REMARK    5  A    between atoms: C23_32  and  C24_33 
ROOT
HETATM    1  C1  UNL     1      44.125 113.432  56.147  1.00  0.00     0.274 C 
HETATM    2  C2  UNL     1      43.714 112.750  54.860  1.00  0.00     0.042 C 
HETATM    3  C3  UNL     1      43.570 113.754  53.757  1.00  0.00     0.002 C 
HETATM    4  C4  UNL     1      42.864 113.108  52.568  1.00  0.00     0.002 C 
HETATM    5  C5  UNL     1      42.276 114.159  51.651  1.00  0.00     0.020 C 
HETATM    6  C6  UNL     1      40.877 114.461  52.169  1.00  0.00     0.124 C 
HETATM    7  N2  UNL     1      40.095 115.211  51.192  1.00  0.00    -0.364 N 
HETATM    8  C17 UNL     1      39.456 114.453  50.171  1.00  0.00     0.124 C 
HETATM    9  C18 UNL     1      39.443 112.955  50.392  1.00  0.00     0.020 C 
HETATM   10  C19 UNL     1      38.232 112.508  51.167  1.00  0.00     0.002 C 
HETATM   11  C20 UNL     1      38.083 111.001  51.127  1.00  0.00     0.000 C 
HETATM   12  C21 UNL     1      36.633 110.675  51.391  1.00  0.00     0.001 C 
HETATM   13  C22 UNL     1      36.580 109.671  52.519  1.00  0.00     0.015 C 
HETATM   14  C23 UNL     1      36.374 108.303  51.920  1.00  0.00     0.087 C 
HETATM   15  C25 UNL     1      36.882 107.243  52.875  1.00  0.00     0.015 C 
HETATM   16  C26 UNL     1      38.392 107.215  52.732  1.00  0.00     0.001 C 
HETATM   17  C27 UNL     1      39.058 107.198  54.083  1.00  0.00     0.000 C 
HETATM   18  C28 UNL     1      39.612 105.827  54.415  1.00  0.00     0.000 C 
HETATM   19  C29 UNL     1      40.989 105.972  54.996  1.00  0.00     0.000 C 
HETATM   20  C30 UNL     1      40.963 106.711  56.316  1.00  0.00     0.000 C 
HETATM   21  C31 UNL     1      42.384 107.032  56.717  1.00  0.00     0.000 C 
HETATM   22  C32 UNL     1      42.448 108.356  57.462  1.00  0.00     0.002 C 
HETATM   23  C33 UNL     1      43.806 108.985  57.365  1.00  0.00     0.020 C 
HETATM   24  C34 UNL     1      43.723 110.334  56.639  1.00  0.00     0.122 C 
HETATM   25  N3  UNL     1      44.929 111.105  56.866  1.00  0.00    -0.359 N 
ATOM     26  H3  UNL     1      45.811 110.600  56.951  1.00  0.00     0.162 HD
HETATM   27  C35 UNL     1      44.955 112.520  56.976  1.00  0.00     0.248 C 
HETATM   28  O6  UNL     1      45.716 113.060  57.820  1.00  0.00    -0.271 OA
ENDROOT
BRANCH   7  29
HETATM   29  C7  UNL     1      40.030 116.588  51.295  1.00  0.00     0.130 C 
BRANCH  29  30
HETATM   30  O1  UNL     1      41.110 117.210  50.909  1.00  0.00    -0.349 OA
ATOM     31  H1  UNL     1      41.472 117.808  51.554  1.00  0.00     0.219 HD
ENDBRANCH  29  30
BRANCH  29  32
HETATM   32  C8  UNL     1      38.925 117.465  51.777  1.00  0.00     0.088 C 
HETATM   33  C9  UNL     1      37.890 116.736  52.481  1.00  0.00     0.058 C 
HETATM   34  C10 UNL     1      36.516 117.193  52.621  1.00  0.00     0.126 C 
HETATM   35  C11 UNL     1      36.253 118.145  53.757  1.00  0.00     0.064 C 
HETATM   36  O3  UNL     1      35.969 118.070  51.751  1.00  0.00    -0.380 OA
HETATM   37  C12 UNL     1      36.201 119.114  52.618  1.00  0.00     0.125 C 
HETATM   38  C13 UNL     1      37.367 119.952  52.402  1.00  0.00     0.044 C 
HETATM   39  C14 UNL     1      38.554 119.478  51.706  1.00  0.00     0.060 C 
HETATM   40  C15 UNL     1      38.487 118.423  50.700  1.00  0.00     0.038 C 
HETATM   41  C16 UNL     1      39.489 118.625  52.506  1.00  0.00     0.147 C 
HETATM   42  O2  UNL     1      40.317 118.885  53.362  1.00  0.00    -0.296 OA
ENDBRANCH  29  32
ENDBRANCH   7  29
BRANCH   1  43
HETATM   43  N1  UNL     1      44.932 114.615  55.875  1.00  0.00    -0.067 N 
ATOM     44  H13 UNL     1      45.347 114.991  56.728  1.00  0.00     0.275 HD
ATOM     45  H12 UNL     1      45.791 114.379  55.378  1.00  0.00     0.275 HD
ATOM     46  H11 UNL     1      44.390 115.319  55.377  1.00  0.00     0.275 HD
ENDBRANCH   1  43
BRANCH  14  47
HETATM   47  C24 UNL     1      34.953 108.055  51.653  1.00  0.00     0.177 C 
HETATM   48  O4  UNL     1      34.584 106.912  51.306  1.00  0.00    -0.648 OA
HETATM   49  O5  UNL     1      34.022 109.074  51.782  1.00  0.00    -0.648 OA
ENDBRANCH  14  47
TORSDOF 5
ENDMDL
