MODEL 1
REMARK VINA RESULT: -8.623435823      0.000      0.000
REMARK  10 active torsions:
REMARK  status: ('A' for Active; 'I' for Inactive)
REMARK    1  A    between atoms: N2_4  and  S1_6 
REMARK    2  A    between atoms: S1_6  and  C3_9 
REMARK    3  A    between atoms: C6_12  and  N3_13 
REMARK       I    between atoms: N3_13  and  C7_15 
REMARK    4  A    between atoms: C7_15  and  C8_17 
REMARK    5  A    between atoms: C8_17  and  C9_18 
REMARK    6  A    between atoms: C8_17  and  N4_21 
REMARK       I    between atoms: N4_21  and  C12_22 
REMARK    7  A    between atoms: N4_21  and  C15_28 
REMARK    8  A    between atoms: C12_22  and  C13_24 
REMARK    9  A    between atoms: C13_24  and  S2_25 
REMARK   10  A    between atoms: C21_35  and  O6_36 
ROOT
HETATM    1  N3  UNL     1      -4.953  11.045  20.050  1.00  0.00    -0.323 N 
ATOM      2  H3  UNL     1      -4.449  11.445  19.259  1.00  0.00     0.169 HD
HETATM    3  C7  UNL     1      -6.254  10.541  19.777  1.00  0.00     0.246 C 
HETATM    4  O3  UNL     1      -6.919  10.038  20.690  1.00  0.00    -0.271 OA
ENDROOT
BRANCH   3   5
HETATM    5  C8  UNL     1      -6.798  10.629  18.366  1.00  0.00     0.188 C 
BRANCH   5   6
HETATM    6  C9  UNL     1      -8.270  10.954  18.413  1.00  0.00     0.010 C 
HETATM    7  C10 UNL     1      -9.077  10.492  17.263  1.00  0.00     0.012 C 
HETATM    8  C11 UNL     1      -8.557  12.401  18.731  1.00  0.00     0.012 C 
ENDBRANCH   5   6
BRANCH   5   9
HETATM    9  N4  UNL     1      -6.378   9.590  17.500  1.00  0.00    -0.303 N 
HETATM   10  C12 UNL     1      -5.877  10.035  16.209  1.00  0.00     0.236 C 
HETATM   11  O4  UNL     1      -5.464   9.142  15.432  1.00  0.00    -0.272 OA
BRANCH  10  12
HETATM   12  C13 UNL     1      -5.841  11.449  15.803  1.00  0.00     0.211 C 
BRANCH  12  13
HETATM   13  S2  UNL     1      -4.216  12.082  16.021  1.00  0.00     0.019 S 
HETATM   14  C14 UNL     1      -3.135  11.629  14.688  1.00  0.00     0.127 C 
HETATM   15  O5  UNL     1      -3.556  11.747  17.507  1.00  0.00    -0.258 OA
ENDBRANCH  12  13
ENDBRANCH  10  12
BRANCH   9  16
HETATM   16  C15 UNL     1      -6.335   8.201  17.684  1.00  0.00     0.038 A 
HETATM   17  C16 UNL     1      -5.182   7.545  18.141  1.00  0.00     0.033 A 
HETATM   18  C17 UNL     1      -5.116   6.182  18.317  1.00  0.00     0.044 A 
HETATM   19  C18 UNL     1      -6.209   5.393  18.042  1.00  0.00     0.116 A 
HETATM   20  F1  UNL     1      -6.164   4.034  18.212  1.00  0.00    -0.206 F 
HETATM   21  C19 UNL     1      -7.352   6.005  17.591  1.00  0.00     0.044 A 
HETATM   22  C20 UNL     1      -7.399   7.388  17.418  1.00  0.00     0.033 A 
ENDBRANCH   9  16
ENDBRANCH   5   9
ENDBRANCH   3   5
BRANCH   1  23
HETATM   23  C6  UNL     1      -4.282  11.059  21.283  1.00  0.00     0.068 A 
HETATM   24  C5  UNL     1      -3.200  10.308  21.638  1.00  0.00     0.034 A 
HETATM   25  C4  UNL     1      -2.633  10.407  22.887  1.00  0.00     0.028 A 
HETATM   26  C3  UNL     1      -3.115  11.261  23.853  1.00  0.00     0.082 A 
HETATM   27  C22 UNL     1      -4.207  12.021  23.497  1.00  0.00     0.064 A 
HETATM   28  C21 UNL     1      -4.789  11.937  22.253  1.00  0.00     0.093 A 
BRANCH  26  29
HETATM   29  S1  UNL     1      -2.360  11.340  25.427  1.00  0.00     0.263 S 
HETATM   30  O1  UNL     1      -2.590  12.752  25.939  1.00  0.00    -0.200 OA
HETATM   31  O2  UNL     1      -0.882  11.137  25.309  1.00  0.00    -0.200 OA
BRANCH  29  32
HETATM   32  N2  UNL     1      -3.065  10.241  26.551  1.00  0.00    -0.272 N 
HETATM   33  C2  UNL     1      -2.319   9.311  27.034  1.00  0.00     0.098 C 
HETATM   34  C1  UNL     1      -0.880   9.152  26.661  1.00  0.00     0.086 C 
HETATM   35  N1  UNL     1      -2.879   8.393  27.965  1.00  0.00    -0.087 NA
ATOM     36  H2  UNL     1      -4.044  10.324  26.825  1.00  0.00     0.179 HD
ENDBRANCH  29  32
ENDBRANCH  26  29
BRANCH  28  37
HETATM   37  O6  UNL     1      -5.885  12.752  22.011  1.00  0.00    -0.358 OA
ATOM     38  H6  UNL     1      -6.773  12.477  22.205  1.00  0.00     0.217 HD
ENDBRANCH  28  37
ENDBRANCH   1  23
TORSDOF 10
ENDMDL
MODEL 2
REMARK VINA RESULT: -8.614489425      0.696      1.124
REMARK  10 active torsions:
REMARK  status: ('A' for Active; 'I' for Inactive)
REMARK    1  A    between atoms: N2_4  and  S1_6 
REMARK    2  A    between atoms: S1_6  and  C3_9 
REMARK    3  A    between atoms: C6_12  and  N3_13 
REMARK       I    between atoms: N3_13  and  C7_15 
REMARK    4  A    between atoms: C7_15  and  C8_17 
REMARK    5  A    between atoms: C8_17  and  C9_18 
REMARK    6  A    between atoms: C8_17  and  N4_21 
REMARK       I    between atoms: N4_21  and  C12_22 
REMARK    7  A    between atoms: N4_21  and  C15_28 
REMARK    8  A    between atoms: C12_22  and  C13_24 
REMARK    9  A    between atoms: C13_24  and  S2_25 
REMARK   10  A    between atoms: C21_35  and  O6_36 
ROOT
HETATM    1  N3  UNL     1      -5.381  11.285  20.132  1.00  0.00    -0.323 N 
ATOM      2  H3  UNL     1      -4.941  11.795  19.366  1.00  0.00     0.169 HD
HETATM    3  C7  UNL     1      -6.547  10.540  19.803  1.00  0.00     0.246 C 
HETATM    4  O3  UNL     1      -7.128   9.895  20.683  1.00  0.00    -0.271 OA
ENDROOT
BRANCH   3   5
HETATM    5  C8  UNL     1      -7.052  10.554  18.375  1.00  0.00     0.188 C 
BRANCH   5   6
HETATM    6  C9  UNL     1      -8.549  10.738  18.372  1.00  0.00     0.010 C 
HETATM    7  C10 UNL     1      -9.241  10.433  17.101  1.00  0.00     0.012 C 
HETATM    8  C11 UNL     1      -8.992  12.069  18.926  1.00  0.00     0.012 C 
ENDBRANCH   5   6
BRANCH   5   9
HETATM    9  N4  UNL     1      -6.508   9.545  17.543  1.00  0.00    -0.303 N 
HETATM   10  C12 UNL     1      -5.895  10.030  16.315  1.00  0.00     0.236 C 
HETATM   11  O4  UNL     1      -5.373   9.165  15.572  1.00  0.00    -0.272 OA
BRANCH  10  12
HETATM   12  C13 UNL     1      -5.870  11.451  15.936  1.00  0.00     0.211 C 
BRANCH  12  13
HETATM   13  S2  UNL     1      -4.316  12.148  16.369  1.00  0.00     0.019 S 
HETATM   14  C14 UNL     1      -3.162  12.108  15.020  1.00  0.00     0.127 C 
HETATM   15  O5  UNL     1      -3.668  11.532  17.769  1.00  0.00    -0.258 OA
ENDBRANCH  12  13
ENDBRANCH  10  12
BRANCH   9  16
HETATM   16  C15 UNL     1      -6.434   8.155  17.710  1.00  0.00     0.038 A 
HETATM   17  C16 UNL     1      -5.288   7.527  18.220  1.00  0.00     0.033 A 
HETATM   18  C17 UNL     1      -5.191   6.163  18.382  1.00  0.00     0.044 A 
HETATM   19  C18 UNL     1      -6.244   5.348  18.037  1.00  0.00     0.116 A 
HETATM   20  F1  UNL     1      -6.168   3.987  18.192  1.00  0.00    -0.206 F 
HETATM   21  C19 UNL     1      -7.379   5.932  17.533  1.00  0.00     0.044 A 
HETATM   22  C20 UNL     1      -7.458   7.316  17.376  1.00  0.00     0.033 A 
ENDBRANCH   9  16
ENDBRANCH   5   9
ENDBRANCH   3   5
BRANCH   1  23
HETATM   23  C6  UNL     1      -4.765  11.401  21.388  1.00  0.00     0.068 A 
HETATM   24  C5  UNL     1      -5.195  12.144  22.448  1.00  0.00     0.034 A 
HETATM   25  C4  UNL     1      -4.495  12.182  23.631  1.00  0.00     0.028 A 
HETATM   26  C3  UNL     1      -3.326  11.480  23.822  1.00  0.00     0.082 A 
HETATM   27  C22 UNL     1      -2.890  10.729  22.754  1.00  0.00     0.064 A 
HETATM   28  C21 UNL     1      -3.575  10.677  21.562  1.00  0.00     0.093 A 
BRANCH  26  29
HETATM   29  S1  UNL     1      -2.473  11.571  25.346  1.00  0.00     0.263 S 
HETATM   30  O1  UNL     1      -2.764  12.949  25.915  1.00  0.00    -0.200 OA
HETATM   31  O2  UNL     1      -0.995  11.476  25.124  1.00  0.00    -0.200 OA
BRANCH  29  32
HETATM   32  N2  UNL     1      -3.022  10.394  26.478  1.00  0.00    -0.272 N 
HETATM   33  C2  UNL     1      -2.253   9.395  26.731  1.00  0.00     0.098 C 
HETATM   34  C1  UNL     1      -0.915   9.220  26.086  1.00  0.00     0.086 C 
HETATM   35  N1  UNL     1      -2.685   8.413  27.664  1.00  0.00    -0.087 NA
ATOM     36  H2  UNL     1      -3.929  10.487  26.935  1.00  0.00     0.179 HD
ENDBRANCH  29  32
ENDBRANCH  26  29
BRANCH  28  37
HETATM   37  O6  UNL     1      -3.038   9.886  20.557  1.00  0.00    -0.358 OA
ATOM     38  H6  UNL     1      -2.102   9.812  20.417  1.00  0.00     0.217 HD
ENDBRANCH  28  37
ENDBRANCH   1  23
TORSDOF 10
ENDMDL
MODEL 3
REMARK VINA RESULT: -8.469814182      1.328      1.716
REMARK  10 active torsions:
REMARK  status: ('A' for Active; 'I' for Inactive)
REMARK    1  A    between atoms: N2_4  and  S1_6 
REMARK    2  A    between atoms: S1_6  and  C3_9 
REMARK    3  A    between atoms: C6_12  and  N3_13 
REMARK       I    between atoms: N3_13  and  C7_15 
REMARK    4  A    between atoms: C7_15  and  C8_17 
REMARK    5  A    between atoms: C8_17  and  C9_18 
REMARK    6  A    between atoms: C8_17  and  N4_21 
REMARK       I    between atoms: N4_21  and  C12_22 
REMARK    7  A    between atoms: N4_21  and  C15_28 
REMARK    8  A    between atoms: C12_22  and  C13_24 
REMARK    9  A    between atoms: C13_24  and  S2_25 
REMARK   10  A    between atoms: C21_35  and  O6_36 
ROOT
HETATM    1  N3  UNL     1      -5.019  10.367  20.025  1.00  0.00    -0.323 N 
ATOM      2  H3  UNL     1      -5.657   9.586  20.176  1.00  0.00     0.169 HD
HETATM    3  C7  UNL     1      -5.290  11.191  18.898  1.00  0.00     0.246 C 
HETATM    4  O3  UNL     1      -4.559  12.159  18.658  1.00  0.00    -0.271 OA
ENDROOT
BRANCH   3   5
HETATM    5  C8  UNL     1      -6.476  10.864  18.013  1.00  0.00     0.188 C 
BRANCH   5   6
HETATM    6  C9  UNL     1      -7.746  10.946  18.821  1.00  0.00     0.010 C 
HETATM    7  C10 UNL     1      -9.005  10.713  18.082  1.00  0.00     0.012 C 
HETATM    8  C11 UNL     1      -7.838  12.189  19.671  1.00  0.00     0.012 C 
ENDBRANCH   5   6
BRANCH   5   9
HETATM    9  N4  UNL     1      -6.297   9.736  17.174  1.00  0.00    -0.303 N 
HETATM   10  C12 UNL     1      -6.131  10.044  15.762  1.00  0.00     0.236 C 
HETATM   11  O4  UNL     1      -5.937   9.071  14.997  1.00  0.00    -0.272 OA
BRANCH  10  12
HETATM   12  C13 UNL     1      -6.183  11.414  15.226  1.00  0.00     0.211 C 
BRANCH  12  13
HETATM   13  S2  UNL     1      -4.716  11.745  14.317  1.00  0.00     0.019 S 
HETATM   14  C14 UNL     1      -4.871  11.299  12.606  1.00  0.00     0.127 C 
HETATM   15  O5  UNL     1      -3.340  11.120  15.007  1.00  0.00    -0.258 OA
ENDBRANCH  12  13
ENDBRANCH  10  12
BRANCH   9  16
HETATM   16  C15 UNL     1      -6.225   8.368  17.474  1.00  0.00     0.038 A 
HETATM   17  C16 UNL     1      -7.352   7.535  17.427  1.00  0.00     0.033 A 
HETATM   18  C17 UNL     1      -7.304   6.193  17.728  1.00  0.00     0.044 A 
HETATM   19  C18 UNL     1      -6.116   5.607  18.097  1.00  0.00     0.116 A 
HETATM   20  F1  UNL     1      -6.047   4.272  18.400  1.00  0.00    -0.206 F 
HETATM   21  C19 UNL     1      -4.995   6.397  18.156  1.00  0.00     0.044 A 
HETATM   22  C20 UNL     1      -5.063   7.755  17.847  1.00  0.00     0.033 A 
ENDBRANCH   9  16
ENDBRANCH   5   9
ENDBRANCH   3   5
BRANCH   1  23
HETATM   23  C6  UNL     1      -3.975  10.503  20.953  1.00  0.00     0.068 A 
HETATM   24  C5  UNL     1      -2.671  10.139  20.783  1.00  0.00     0.034 A 
HETATM   25  C4  UNL     1      -1.739  10.318  21.777  1.00  0.00     0.028 A 
HETATM   26  C3  UNL     1      -2.054  10.871  22.998  1.00  0.00     0.082 A 
HETATM   27  C22 UNL     1      -3.369  11.241  23.172  1.00  0.00     0.064 A 
HETATM   28  C21 UNL     1      -4.318  11.070  22.190  1.00  0.00     0.093 A 
BRANCH  26  29
HETATM   29  S1  UNL     1      -0.829  11.069  24.229  1.00  0.00     0.263 S 
HETATM   30  O1  UNL     1      -1.430  11.979  25.286  1.00  0.00    -0.200 OA
HETATM   31  O2  UNL     1       0.372  11.762  23.665  1.00  0.00    -0.200 OA
BRANCH  29  32
HETATM   32  N2  UNL     1      -0.406   9.577  24.981  1.00  0.00    -0.272 N 
HETATM   33  C2  UNL     1      -1.105   9.191  25.990  1.00  0.00     0.098 C 
HETATM   34  C1  UNL     1      -2.256   9.980  26.526  1.00  0.00     0.086 C 
HETATM   35  N1  UNL     1      -0.776   7.963  26.625  1.00  0.00    -0.087 NA
ATOM     36  H2  UNL     1       0.374   9.017  24.637  1.00  0.00     0.179 HD
ENDBRANCH  29  32
ENDBRANCH  26  29
BRANCH  28  37
HETATM   37  O6  UNL     1      -5.610  11.481  22.481  1.00  0.00    -0.358 OA
ATOM     38  H6  UNL     1      -6.012  11.327  23.329  1.00  0.00     0.217 HD
ENDBRANCH  28  37
ENDBRANCH   1  23
TORSDOF 10
ENDMDL
MODEL 4
REMARK VINA RESULT: -8.290567506      1.252      1.629
REMARK  10 active torsions:
REMARK  status: ('A' for Active; 'I' for Inactive)
REMARK    1  A    between atoms: N2_4  and  S1_6 
REMARK    2  A    between atoms: S1_6  and  C3_9 
REMARK    3  A    between atoms: C6_12  and  N3_13 
REMARK       I    between atoms: N3_13  and  C7_15 
REMARK    4  A    between atoms: C7_15  and  C8_17 
REMARK    5  A    between atoms: C8_17  and  C9_18 
REMARK    6  A    between atoms: C8_17  and  N4_21 
REMARK       I    between atoms: N4_21  and  C12_22 
REMARK    7  A    between atoms: N4_21  and  C15_28 
REMARK    8  A    between atoms: C12_22  and  C13_24 
REMARK    9  A    between atoms: C13_24  and  S2_25 
REMARK   10  A    between atoms: C21_35  and  O6_36 
ROOT
HETATM    1  N3  UNL     1      -4.423  10.879  19.471  1.00  0.00    -0.323 N 
ATOM      2  H3  UNL     1      -3.952  10.874  18.567  1.00  0.00     0.169 HD
HETATM    3  C7  UNL     1      -5.844  10.873  19.440  1.00  0.00     0.246 C 
HETATM    4  O3  UNL     1      -6.479  10.874  20.502  1.00  0.00    -0.271 OA
ENDROOT
BRANCH   3   5
HETATM    5  C8  UNL     1      -6.553  10.865  18.101  1.00  0.00     0.188 C 
BRANCH   5   6
HETATM    6  C9  UNL     1      -8.003  11.228  18.297  1.00  0.00     0.010 C 
HETATM    7  C10 UNL     1      -8.969  10.568  17.392  1.00  0.00     0.012 C 
HETATM    8  C11 UNL     1      -8.247  12.716  18.358  1.00  0.00     0.012 C 
ENDBRANCH   5   6
BRANCH   5   9
HETATM    9  N4  UNL     1      -6.255   9.751  17.279  1.00  0.00    -0.303 N 
HETATM   10  C12 UNL     1      -5.873  10.084  15.914  1.00  0.00     0.236 C 
HETATM   11  O4  UNL     1      -5.570   9.122  15.169  1.00  0.00    -0.272 OA
BRANCH  10  12
HETATM   12  C13 UNL     1      -5.834  11.463  15.403  1.00  0.00     0.211 C 
BRANCH  12  13
HETATM   13  S2  UNL     1      -4.188  12.072  15.479  1.00  0.00     0.019 S 
HETATM   14  C14 UNL     1      -3.103  11.216  14.365  1.00  0.00     0.127 C 
HETATM   15  O5  UNL     1      -3.570  12.153  17.019  1.00  0.00    -0.258 OA
ENDBRANCH  12  13
ENDBRANCH  10  12
BRANCH   9  16
HETATM   16  C15 UNL     1      -6.237   8.378  17.560  1.00  0.00     0.038 A 
HETATM   17  C16 UNL     1      -5.073   7.718  17.978  1.00  0.00     0.033 A 
HETATM   18  C17 UNL     1      -5.032   6.369  18.248  1.00  0.00     0.044 A 
HETATM   19  C18 UNL     1      -6.165   5.601  18.113  1.00  0.00     0.116 A 
HETATM   20  F1  UNL     1      -6.146   4.255  18.378  1.00  0.00    -0.206 F 
HETATM   21  C19 UNL     1      -7.321   6.217  17.703  1.00  0.00     0.044 A 
HETATM   22  C20 UNL     1      -7.342   7.585  17.434  1.00  0.00     0.033 A 
ENDBRANCH   9  16
ENDBRANCH   5   9
ENDBRANCH   3   5
BRANCH   1  23
HETATM   23  C6  UNL     1      -3.591  10.892  20.603  1.00  0.00     0.068 A 
HETATM   24  C5  UNL     1      -3.861  10.354  21.827  1.00  0.00     0.034 A 
HETATM   25  C4  UNL     1      -2.962  10.439  22.864  1.00  0.00     0.028 A 
HETATM   26  C3  UNL     1      -1.743  11.066  22.738  1.00  0.00     0.082 A 
HETATM   27  C22 UNL     1      -1.467  11.609  21.503  1.00  0.00     0.064 A 
HETATM   28  C21 UNL     1      -2.353  11.535  20.452  1.00  0.00     0.093 A 
BRANCH  26  29
HETATM   29  S1  UNL     1      -0.641  11.151  24.093  1.00  0.00     0.263 S 
HETATM   30  O1  UNL     1      -1.376  11.899  25.192  1.00  0.00    -0.200 OA
HETATM   31  O2  UNL     1       0.571  11.952  23.732  1.00  0.00    -0.200 OA
BRANCH  29  32
HETATM   32  N2  UNL     1      -0.217   9.593  24.694  1.00  0.00    -0.272 N 
HETATM   33  C2  UNL     1      -0.865   9.141  25.708  1.00  0.00     0.098 C 
HETATM   34  C1  UNL     1      -1.960   9.908  26.377  1.00  0.00     0.086 C 
HETATM   35  N1  UNL     1      -0.533   7.856  26.220  1.00  0.00    -0.087 NA
ATOM     36  H2  UNL     1       0.525   9.045  24.258  1.00  0.00     0.179 HD
ENDBRANCH  29  32
ENDBRANCH  26  29
BRANCH  28  37
HETATM   37  O6  UNL     1      -1.965  12.120  19.256  1.00  0.00    -0.358 OA
ATOM     38  H6  UNL     1      -2.312  12.955  18.965  1.00  0.00     0.217 HD
ENDBRANCH  28  37
ENDBRANCH   1  23
TORSDOF 10
ENDMDL
MODEL 5
REMARK VINA RESULT: -8.053521616      1.157      1.508
REMARK  10 active torsions:
REMARK  status: ('A' for Active; 'I' for Inactive)
REMARK    1  A    between atoms: N2_4  and  S1_6 
REMARK    2  A    between atoms: S1_6  and  C3_9 
REMARK    3  A    between atoms: C6_12  and  N3_13 
REMARK       I    between atoms: N3_13  and  C7_15 
REMARK    4  A    between atoms: C7_15  and  C8_17 
REMARK    5  A    between atoms: C8_17  and  C9_18 
REMARK    6  A    between atoms: C8_17  and  N4_21 
REMARK       I    between atoms: N4_21  and  C12_22 
REMARK    7  A    between atoms: N4_21  and  C15_28 
REMARK    8  A    between atoms: C12_22  and  C13_24 
REMARK    9  A    between atoms: C13_24  and  S2_25 
REMARK   10  A    between atoms: C21_35  and  O6_36 
ROOT
HETATM    1  N3  UNL     1      -6.050  10.958  20.275  1.00  0.00    -0.323 N 
ATOM      2  H3  UNL     1      -6.659  10.142  20.329  1.00  0.00     0.169 HD
HETATM    3  C7  UNL     1      -6.091  11.693  19.059  1.00  0.00     0.246 C 
HETATM    4  O3  UNL     1      -5.381  12.697  18.927  1.00  0.00    -0.271 OA
ENDROOT
BRANCH   3   5
HETATM    5  C8  UNL     1      -7.008  11.228  17.946  1.00  0.00     0.188 C 
BRANCH   5   6
HETATM    6  C9  UNL     1      -8.423  11.149  18.461  1.00  0.00     0.010 C 
HETATM    7  C10 UNL     1      -9.456  10.770  17.473  1.00  0.00     0.012 C 
HETATM    8  C11 UNL     1      -8.846  12.363  19.249  1.00  0.00     0.012 C 
ENDBRANCH   5   6
BRANCH   5   9
HETATM    9  N4  UNL     1      -6.517  10.137  17.189  1.00  0.00    -0.303 N 
HETATM   10  C12 UNL     1      -6.089  10.473  15.839  1.00  0.00     0.236 C 
HETATM   11  O4  UNL     1      -5.618   9.536  15.153  1.00  0.00    -0.272 OA
BRANCH  10  12
HETATM   12  C13 UNL     1      -6.190  11.829  15.278  1.00  0.00     0.211 C 
BRANCH  12  13
HETATM   13  S2  UNL     1      -4.632  12.632  15.398  1.00  0.00     0.019 S 
HETATM   14  C14 UNL     1      -4.008  13.129  13.812  1.00  0.00     0.127 C 
HETATM   15  O5  UNL     1      -3.505  11.788  16.280  1.00  0.00    -0.258 OA
ENDBRANCH  12  13
ENDBRANCH  10  12
BRANCH   9  16
HETATM   16  C15 UNL     1      -6.346   8.786  17.524  1.00  0.00     0.038 A 
HETATM   17  C16 UNL     1      -5.118   8.281  17.975  1.00  0.00     0.033 A 
HETATM   18  C17 UNL     1      -4.927   6.957  18.300  1.00  0.00     0.044 A 
HETATM   19  C18 UNL     1      -5.962   6.059  18.188  1.00  0.00     0.116 A 
HETATM   20  F1  UNL     1      -5.792   4.737  18.507  1.00  0.00    -0.206 F 
HETATM   21  C19 UNL     1      -7.177   6.523  17.746  1.00  0.00     0.044 A 
HETATM   22  C20 UNL     1      -7.351   7.868  17.423  1.00  0.00     0.033 A 
ENDBRANCH   9  16
ENDBRANCH   5   9
ENDBRANCH   3   5
BRANCH   1  23
HETATM   23  C6  UNL     1      -5.268  11.224  21.411  1.00  0.00     0.068 A 
HETATM   24  C5  UNL     1      -5.571  12.070  22.437  1.00  0.00     0.034 A 
HETATM   25  C4  UNL     1      -4.714  12.252  23.497  1.00  0.00     0.028 A 
HETATM   26  C3  UNL     1      -3.505  11.600  23.591  1.00  0.00     0.082 A 
HETATM   27  C22 UNL     1      -3.197  10.745  22.556  1.00  0.00     0.064 A 
HETATM   28  C21 UNL     1      -4.040  10.549  21.487  1.00  0.00     0.093 A 
BRANCH  26  29
HETATM   29  S1  UNL     1      -2.450  11.876  24.958  1.00  0.00     0.263 S 
HETATM   30  O1  UNL     1      -2.901  13.183  25.586  1.00  0.00    -0.200 OA
HETATM   31  O2  UNL     1      -1.037  12.058  24.499  1.00  0.00    -0.200 OA
BRANCH  29  32
HETATM   32  N2  UNL     1      -2.577  10.635  26.147  1.00  0.00    -0.272 N 
HETATM   33  C2  UNL     1      -1.745   9.656  26.088  1.00  0.00     0.098 C 
HETATM   34  C1  UNL     1      -0.685   9.557  25.039  1.00  0.00     0.086 C 
HETATM   35  N1  UNL     1      -1.829   8.622  27.060  1.00  0.00    -0.087 NA
ATOM     36  H2  UNL     1      -3.289  10.676  26.875  1.00  0.00     0.179 HD
ENDBRANCH  29  32
ENDBRANCH  26  29
BRANCH  28  37
HETATM   37  O6  UNL     1      -3.621   9.664  20.505  1.00  0.00    -0.358 OA
ATOM     38  H6  UNL     1      -3.989   8.792  20.418  1.00  0.00     0.217 HD
ENDBRANCH  28  37
ENDBRANCH   1  23
TORSDOF 10
ENDMDL
