MODEL 1
REMARK VINA RESULT: -8.097700245      0.000      0.000
REMARK  10 active torsions:
REMARK  status: ('A' for Active; 'I' for Inactive)
REMARK    1  A    between atoms: O1_2  and  C2_3 
REMARK    2  A    between atoms: C2_3  and  C3_5 
REMARK    3  A    between atoms: C3_5  and  N1_6 
REMARK    4  A    between atoms: C3_5  and  C21_33 
REMARK       I    between atoms: N1_6  and  C4_8 
REMARK    5  A    between atoms: C4_8  and  C5_10 
REMARK       I    between atoms: N2_13  and  C7_14 
REMARK    6  A    between atoms: C7_14  and  C8_16 
REMARK    7  A    between atoms: C8_16  and  N3_18 
REMARK       I    between atoms: N3_18  and  C10_20 
REMARK    8  A    between atoms: C10_20  and  O6_22 
REMARK    9  A    between atoms: O6_22  and  C11_23 
REMARK   10  A    between atoms: C11_23  and  C12_24 
ROOT
HETATM    1  C5  UNL     1      -4.581  12.994  23.596  1.00  0.00     0.139 A 
HETATM    2 BR1  UNL     1      -4.813  13.625  25.417  1.00  0.00    -0.071 Br
HETATM    3  C6  UNL     1      -5.895  12.626  22.955  1.00  0.00     0.160 A 
HETATM    4  N2  UNL     1      -5.794  13.668  21.995  1.00  0.00    -0.338 N 
HETATM    5  C7  UNL     1      -6.575  14.148  20.925  1.00  0.00     0.243 C 
HETATM    6  O4  UNL     1      -6.177  15.139  20.242  1.00  0.00    -0.271 OA
HETATM    7  C18 UNL     1      -4.527  14.059  22.566  1.00  0.00     0.056 A 
HETATM    8  C19 UNL     1      -3.433  13.912  21.535  1.00  0.00     0.040 C 
HETATM    9  C20 UNL     1      -4.611  15.483  23.067  1.00  0.00     0.040 C 
ENDROOT
BRANCH   5  10
HETATM   10  C8  UNL     1      -7.869  13.481  20.611  1.00  0.00     0.175 C 
HETATM   11  C9  UNL     1      -8.935  13.870  21.619  1.00  0.00     0.042 C 
BRANCH  10  12
HETATM   12  N3  UNL     1      -7.708  12.058  20.642  1.00  0.00    -0.324 N 
HETATM   13  C10 UNL     1      -7.330  11.368  19.457  1.00  0.00     0.361 C 
HETATM   14  O5  UNL     1      -7.129  11.966  18.375  1.00  0.00    -0.238 OA
ATOM     15  H3  UNL     1      -7.865  11.543  21.508  1.00  0.00     0.165 HD
BRANCH  13  16
HETATM   16  O6  UNL     1      -7.179  10.005  19.496  1.00  0.00    -0.299 OA
BRANCH  16  17
HETATM   17  C11 UNL     1      -5.914   9.448  19.810  1.00  0.00     0.219 C 
BRANCH  17  18
HETATM   18  C12 UNL     1      -5.858   8.090  19.229  1.00  0.00    -0.034 A 
HETATM   19  C13 UNL     1      -4.730   7.520  18.706  1.00  0.00     0.009 A 
HETATM   20  C14 UNL     1      -4.732   6.237  18.170  1.00  0.00     0.001 A 
HETATM   21  C15 UNL     1      -5.897   5.516  18.165  1.00  0.00     0.000 A 
HETATM   22  C16 UNL     1      -7.041   6.068  18.683  1.00  0.00     0.001 A 
HETATM   23  C17 UNL     1      -7.027   7.341  19.212  1.00  0.00     0.009 A 
ENDBRANCH  17  18
ENDBRANCH  16  17
ENDBRANCH  13  16
ENDBRANCH  10  12
ENDBRANCH   5  10
BRANCH   1  24
HETATM   24  C4  UNL     1      -3.594  11.902  23.471  1.00  0.00     0.242 C 
HETATM   25  N1  UNL     1      -2.374  11.883  24.201  1.00  0.00    -0.345 N 
ATOM     26  H1  UNL     1      -2.157  12.647  24.841  1.00  0.00     0.163 HD
HETATM   27  O3  UNL     1      -3.820  10.941  22.696  1.00  0.00    -0.272 OA
BRANCH  25  28
HETATM   28  C3  UNL     1      -1.438  10.790  24.046  1.00  0.00     0.187 C 
BRANCH  28  29
HETATM   29  C2  UNL     1      -0.273  11.183  23.206  1.00  0.00     0.281 C 
HETATM   30  O2  UNL     1       0.538  12.055  23.605  1.00  0.00    -0.263 OA
BRANCH  29  31
HETATM   31  O1  UNL     1      -0.049  10.610  21.973  1.00  0.00    -0.325 OA
HETATM   32  C1  UNL     1      -0.720  10.972  20.793  1.00  0.00     0.213 C 
ENDBRANCH  29  31
ENDBRANCH  28  29
BRANCH  28  33
HETATM   33  C21 UNL     1      -0.966  10.261  25.384  1.00  0.00     0.010 C 
HETATM   34  C22 UNL     1      -0.204   8.985  25.172  1.00  0.00     0.012 C 
HETATM   35  C23 UNL     1      -2.081  10.125  26.373  1.00  0.00     0.012 C 
ENDBRANCH  28  33
ENDBRANCH  25  28
ENDBRANCH   1  24
TORSDOF 10
ENDMDL
MODEL 2
REMARK VINA RESULT: -8.048795622      1.635      2.502
REMARK  10 active torsions:
REMARK  status: ('A' for Active; 'I' for Inactive)
REMARK    1  A    between atoms: O1_2  and  C2_3 
REMARK    2  A    between atoms: C2_3  and  C3_5 
REMARK    3  A    between atoms: C3_5  and  N1_6 
REMARK    4  A    between atoms: C3_5  and  C21_33 
REMARK       I    between atoms: N1_6  and  C4_8 
REMARK    5  A    between atoms: C4_8  and  C5_10 
REMARK       I    between atoms: N2_13  and  C7_14 
REMARK    6  A    between atoms: C7_14  and  C8_16 
REMARK    7  A    between atoms: C8_16  and  N3_18 
REMARK       I    between atoms: N3_18  and  C10_20 
REMARK    8  A    between atoms: C10_20  and  O6_22 
REMARK    9  A    between atoms: O6_22  and  C11_23 
REMARK   10  A    between atoms: C11_23  and  C12_24 
ROOT
HETATM    1  C5  UNL     1      -4.858  13.890  24.680  1.00  0.00     0.139 A 
HETATM    2 BR1  UNL     1      -5.170  14.877  26.322  1.00  0.00    -0.071 Br
HETATM    3  C6  UNL     1      -6.013  12.983  24.339  1.00  0.00     0.160 A 
HETATM    4  N2  UNL     1      -6.325  13.714  23.161  1.00  0.00    -0.338 N 
HETATM    5  C7  UNL     1      -7.288  13.633  22.136  1.00  0.00     0.243 C 
HETATM    6  O4  UNL     1      -7.286  14.481  21.194  1.00  0.00    -0.271 OA
HETATM    7  C18 UNL     1      -5.227  14.609  23.437  1.00  0.00     0.056 A 
HETATM    8  C19 UNL     1      -4.214  14.536  22.318  1.00  0.00     0.040 C 
HETATM    9  C20 UNL     1      -5.746  16.018  23.605  1.00  0.00     0.040 C 
ENDROOT
BRANCH   5  10
HETATM   10  C8  UNL     1      -8.303  12.545  22.175  1.00  0.00     0.175 C 
HETATM   11  C9  UNL     1      -9.109  12.605  23.460  1.00  0.00     0.042 C 
BRANCH  10  12
HETATM   12  N3  UNL     1      -7.660  11.268  22.099  1.00  0.00    -0.324 N 
HETATM   13  C10 UNL     1      -7.473  10.650  20.832  1.00  0.00     0.361 C 
HETATM   14  O5  UNL     1      -7.854  11.188  19.768  1.00  0.00    -0.238 OA
ATOM     15  H3  UNL     1      -7.337  10.804  22.948  1.00  0.00     0.165 HD
BRANCH  13  16
HETATM   16  O6  UNL     1      -6.854   9.427  20.769  1.00  0.00    -0.299 OA
BRANCH  16  17
HETATM   17  C11 UNL     1      -5.744   9.245  19.908  1.00  0.00     0.219 C 
BRANCH  17  18
HETATM   18  C12 UNL     1      -5.866   7.910  19.284  1.00  0.00    -0.034 A 
HETATM   19  C13 UNL     1      -7.030   7.198  19.204  1.00  0.00     0.009 A 
HETATM   20  C14 UNL     1      -7.089   5.944  18.605  1.00  0.00     0.001 A 
HETATM   21  C15 UNL     1      -5.947   5.402  18.075  1.00  0.00     0.000 A 
HETATM   22  C16 UNL     1      -4.768   6.098  18.145  1.00  0.00     0.001 A 
HETATM   23  C17 UNL     1      -4.721   7.340  18.741  1.00  0.00     0.009 A 
ENDBRANCH  17  18
ENDBRANCH  16  17
ENDBRANCH  13  16
ENDBRANCH  10  12
ENDBRANCH   5  10
BRANCH   1  24
HETATM   24  C4  UNL     1      -3.574  13.158  24.666  1.00  0.00     0.242 C 
HETATM   25  N1  UNL     1      -3.460  11.819  24.203  1.00  0.00    -0.345 N 
ATOM     26  H1  UNL     1      -4.289  11.330  23.864  1.00  0.00     0.163 HD
HETATM   27  O3  UNL     1      -2.529  13.721  25.074  1.00  0.00    -0.272 OA
BRANCH  25  28
HETATM   28  C3  UNL     1      -2.181  11.143  24.208  1.00  0.00     0.187 C 
BRANCH  28  29
HETATM   29  C2  UNL     1      -2.022  10.282  25.413  1.00  0.00     0.281 C 
HETATM   30  O2  UNL     1      -3.014   9.991  26.126  1.00  0.00    -0.263 OA
BRANCH  29  31
HETATM   31  O1  UNL     1      -0.792   9.782  25.784  1.00  0.00    -0.325 OA
HETATM   32  C1  UNL     1      -0.584   8.890  26.848  1.00  0.00     0.213 C 
ENDBRANCH  29  31
ENDBRANCH  28  29
BRANCH  28  33
HETATM   33  C21 UNL     1      -1.972  10.328  22.949  1.00  0.00     0.010 C 
HETATM   34  C22 UNL     1      -0.639  10.673  22.350  1.00  0.00     0.012 C 
HETATM   35  C23 UNL     1      -3.106  10.464  21.983  1.00  0.00     0.012 C 
ENDBRANCH  28  33
ENDBRANCH  25  28
ENDBRANCH   1  24
TORSDOF 10
ENDMDL
MODEL 3
REMARK VINA RESULT: -8.006964748      1.691      2.418
REMARK  10 active torsions:
REMARK  status: ('A' for Active; 'I' for Inactive)
REMARK    1  A    between atoms: O1_2  and  C2_3 
REMARK    2  A    between atoms: C2_3  and  C3_5 
REMARK    3  A    between atoms: C3_5  and  N1_6 
REMARK    4  A    between atoms: C3_5  and  C21_33 
REMARK       I    between atoms: N1_6  and  C4_8 
REMARK    5  A    between atoms: C4_8  and  C5_10 
REMARK       I    between atoms: N2_13  and  C7_14 
REMARK    6  A    between atoms: C7_14  and  C8_16 
REMARK    7  A    between atoms: C8_16  and  N3_18 
REMARK       I    between atoms: N3_18  and  C10_20 
REMARK    8  A    between atoms: C10_20  and  O6_22 
REMARK    9  A    between atoms: O6_22  and  C11_23 
REMARK   10  A    between atoms: C11_23  and  C12_24 
ROOT
HETATM    1  C5  UNL     1      -5.253  13.870  24.308  1.00  0.00     0.139 A 
HETATM    2 BR1  UNL     1      -5.497  14.883  25.946  1.00  0.00    -0.071 Br
HETATM    3  C6  UNL     1      -6.342  12.846  24.111  1.00  0.00     0.160 A 
HETATM    4  N2  UNL     1      -6.838  13.501  22.952  1.00  0.00    -0.338 N 
HETATM    5  C7  UNL     1      -7.884  13.292  22.032  1.00  0.00     0.243 C 
HETATM    6  O4  UNL     1      -8.057  14.101  21.071  1.00  0.00    -0.271 OA
HETATM    7  C18 UNL     1      -5.810  14.505  23.091  1.00  0.00     0.056 A 
HETATM    8  C19 UNL     1      -4.910  14.486  21.877  1.00  0.00     0.040 C 
HETATM    9  C20 UNL     1      -6.445  15.864  23.272  1.00  0.00     0.040 C 
ENDROOT
BRANCH   5  10
HETATM   10  C8  UNL     1      -8.780  12.115  22.203  1.00  0.00     0.175 C 
HETATM   11  C9  UNL     1      -9.554  12.211  23.506  1.00  0.00     0.042 C 
BRANCH  10  12
HETATM   12  N3  UNL     1      -8.010  10.908  22.217  1.00  0.00    -0.324 N 
HETATM   13  C10 UNL     1      -8.033  10.047  21.085  1.00  0.00     0.361 C 
HETATM   14  O5  UNL     1      -8.710  10.309  20.065  1.00  0.00    -0.238 OA
ATOM     15  H3  UNL     1      -7.449  10.667  23.034  1.00  0.00     0.165 HD
BRANCH  13  16
HETATM   16  O6  UNL     1      -7.291   8.893  21.108  1.00  0.00    -0.299 OA
BRANCH  16  17
HETATM   17  C11 UNL     1      -5.981   8.890  20.569  1.00  0.00     0.219 C 
BRANCH  17  18
HETATM   18  C12 UNL     1      -5.904   7.805  19.567  1.00  0.00    -0.034 A 
HETATM   19  C13 UNL     1      -4.784   7.501  18.844  1.00  0.00     0.009 A 
HETATM   20  C14 UNL     1      -4.765   6.469  17.912  1.00  0.00     0.001 A 
HETATM   21  C15 UNL     1      -5.901   5.730  17.710  1.00  0.00     0.000 A 
HETATM   22  C16 UNL     1      -7.036   6.017  18.423  1.00  0.00     0.001 A 
HETATM   23  C17 UNL     1      -7.043   7.043  19.345  1.00  0.00     0.009 A 
ENDBRANCH  17  18
ENDBRANCH  16  17
ENDBRANCH  13  16
ENDBRANCH  10  12
ENDBRANCH   5  10
BRANCH   1  24
HETATM   24  C4  UNL     1      -3.912  13.263  24.185  1.00  0.00     0.242 C 
HETATM   25  N1  UNL     1      -3.716  11.912  23.785  1.00  0.00    -0.345 N 
ATOM     26  H1  UNL     1      -4.524  11.327  23.572  1.00  0.00     0.163 HD
HETATM   27  O3  UNL     1      -2.890  13.946  24.437  1.00  0.00    -0.272 OA
BRANCH  25  28
HETATM   28  C3  UNL     1      -2.383  11.361  23.677  1.00  0.00     0.187 C 
BRANCH  28  29
HETATM   29  C2  UNL     1      -2.024  10.560  24.880  1.00  0.00     0.281 C 
HETATM   30  O2  UNL     1      -2.917  10.040  25.593  1.00  0.00    -0.263 OA
BRANCH  29  31
HETATM   31  O1  UNL     1      -0.710  10.366  25.250  1.00  0.00    -0.325 OA
HETATM   32  C1  UNL     1      -0.162   9.126  25.621  1.00  0.00     0.213 C 
ENDBRANCH  29  31
ENDBRANCH  28  29
BRANCH  28  33
HETATM   33  C21 UNL     1      -2.220  10.527  22.424  1.00  0.00     0.010 C 
HETATM   34  C22 UNL     1      -0.783  10.563  21.986  1.00  0.00     0.012 C 
HETATM   35  C23 UNL     1      -3.176  10.923  21.343  1.00  0.00     0.012 C 
ENDBRANCH  28  33
ENDBRANCH  25  28
ENDBRANCH   1  24
TORSDOF 10
ENDMDL
MODEL 4
REMARK VINA RESULT: -7.647092329      1.675      2.474
REMARK  10 active torsions:
REMARK  status: ('A' for Active; 'I' for Inactive)
REMARK    1  A    between atoms: O1_2  and  C2_3 
REMARK    2  A    between atoms: C2_3  and  C3_5 
REMARK    3  A    between atoms: C3_5  and  N1_6 
REMARK    4  A    between atoms: C3_5  and  C21_33 
REMARK       I    between atoms: N1_6  and  C4_8 
REMARK    5  A    between atoms: C4_8  and  C5_10 
REMARK       I    between atoms: N2_13  and  C7_14 
REMARK    6  A    between atoms: C7_14  and  C8_16 
REMARK    7  A    between atoms: C8_16  and  N3_18 
REMARK       I    between atoms: N3_18  and  C10_20 
REMARK    8  A    between atoms: C10_20  and  O6_22 
REMARK    9  A    between atoms: O6_22  and  C11_23 
REMARK   10  A    between atoms: C11_23  and  C12_24 
ROOT
HETATM    1  C5  UNL     1      -4.955  13.619  23.040  1.00  0.00     0.139 A 
HETATM    2 BR1  UNL     1      -6.226  13.781  24.498  1.00  0.00    -0.071 Br
HETATM    3  C6  UNL     1      -5.486  12.754  21.924  1.00  0.00     0.160 A 
HETATM    4  N2  UNL     1      -5.519  13.841  21.010  1.00  0.00    -0.338 N 
HETATM    5  C7  UNL     1      -5.888  14.030  19.664  1.00  0.00     0.243 C 
HETATM    6  O4  UNL     1      -5.791  15.177  19.133  1.00  0.00    -0.271 OA
HETATM    7  C18 UNL     1      -5.006  14.712  22.041  1.00  0.00     0.056 A 
HETATM    8  C19 UNL     1      -3.666  15.270  21.619  1.00  0.00     0.040 C 
HETATM    9  C20 UNL     1      -5.995  15.823  22.309  1.00  0.00     0.040 C 
ENDROOT
BRANCH   5  10
HETATM   10  C8  UNL     1      -6.394  12.871  18.878  1.00  0.00     0.175 C 
HETATM   11  C9  UNL     1      -7.845  12.581  19.216  1.00  0.00     0.042 C 
BRANCH  10  12
HETATM   12  N3  UNL     1      -5.615  11.704  19.166  1.00  0.00    -0.324 N 
HETATM   13  C10 UNL     1      -4.862  11.088  18.129  1.00  0.00     0.361 C 
HETATM   14  O5  UNL     1      -4.853  11.534  16.959  1.00  0.00    -0.238 OA
ATOM     15  H3  UNL     1      -5.602  11.316  20.109  1.00  0.00     0.165 HD
BRANCH  13  16
HETATM   16  O6  UNL     1      -4.119   9.970  18.415  1.00  0.00    -0.299 OA
BRANCH  16  17
HETATM   17  C11 UNL     1      -4.416   9.209  19.572  1.00  0.00     0.219 C 
BRANCH  17  18
HETATM   18  C12 UNL     1      -5.138   7.992  19.143  1.00  0.00    -0.034 A 
HETATM   19  C13 UNL     1      -4.560   6.941  18.487  1.00  0.00     0.009 A 
HETATM   20  C14 UNL     1      -5.286   5.819  18.105  1.00  0.00     0.001 A 
HETATM   21  C15 UNL     1      -6.624   5.758  18.395  1.00  0.00     0.000 A 
HETATM   22  C16 UNL     1      -7.226   6.800  19.052  1.00  0.00     0.001 A 
HETATM   23  C17 UNL     1      -6.495   7.908  19.426  1.00  0.00     0.009 A 
ENDBRANCH  17  18
ENDBRANCH  16  17
ENDBRANCH  13  16
ENDBRANCH  10  12
ENDBRANCH   5  10
BRANCH   1  24
HETATM   24  C4  UNL     1      -3.613  13.178  23.473  1.00  0.00     0.242 C 
HETATM   25  N1  UNL     1      -2.945  12.068  22.887  1.00  0.00    -0.345 N 
ATOM     26  H1  UNL     1      -3.397  11.545  22.138  1.00  0.00     0.163 HD
HETATM   27  O3  UNL     1      -3.020  13.792  24.393  1.00  0.00    -0.272 OA
BRANCH  25  28
HETATM   28  C3  UNL     1      -1.630  11.674  23.345  1.00  0.00     0.187 C 
BRANCH  28  29
HETATM   29  C2  UNL     1      -1.711  10.714  24.481  1.00  0.00     0.281 C 
HETATM   30  O2  UNL     1      -2.806  10.187  24.795  1.00  0.00    -0.263 OA
BRANCH  29  31
HETATM   31  O1  UNL     1      -0.597  10.377  25.219  1.00  0.00    -0.325 OA
HETATM   32  C1  UNL     1      -0.231   9.062  25.552  1.00  0.00     0.213 C 
ENDBRANCH  29  31
ENDBRANCH  28  29
BRANCH  28  33
HETATM   33  C21 UNL     1      -0.797  11.090  22.223  1.00  0.00     0.010 C 
HETATM   34  C22 UNL     1      -0.006  12.187  21.569  1.00  0.00     0.012 C 
HETATM   35  C23 UNL     1      -1.616  10.295  21.255  1.00  0.00     0.012 C 
ENDBRANCH  28  33
ENDBRANCH  25  28
ENDBRANCH   1  24
TORSDOF 10
ENDMDL
MODEL 5
REMARK VINA RESULT: -7.452743604      2.815      6.007
REMARK  10 active torsions:
REMARK  status: ('A' for Active; 'I' for Inactive)
REMARK    1  A    between atoms: O1_2  and  C2_3 
REMARK    2  A    between atoms: C2_3  and  C3_5 
REMARK    3  A    between atoms: C3_5  and  N1_6 
REMARK    4  A    between atoms: C3_5  and  C21_33 
REMARK       I    between atoms: N1_6  and  C4_8 
REMARK    5  A    between atoms: C4_8  and  C5_10 
REMARK       I    between atoms: N2_13  and  C7_14 
REMARK    6  A    between atoms: C7_14  and  C8_16 
REMARK    7  A    between atoms: C8_16  and  N3_18 
REMARK       I    between atoms: N3_18  and  C10_20 
REMARK    8  A    between atoms: C10_20  and  O6_22 
REMARK    9  A    between atoms: O6_22  and  C11_23 
REMARK   10  A    between atoms: C11_23  and  C12_24 
ROOT
HETATM    1  C5  UNL     1      -6.466  14.567  23.637  1.00  0.00     0.139 A 
HETATM    2 BR1  UNL     1      -6.680  16.451  24.049  1.00  0.00    -0.071 Br
HETATM    3  C6  UNL     1      -5.853  14.354  22.276  1.00  0.00     0.160 A 
HETATM    4  N2  UNL     1      -4.675  13.777  22.824  1.00  0.00    -0.338 N 
HETATM    5  C7  UNL     1      -3.471  13.248  22.322  1.00  0.00     0.243 C 
HETATM    6  O4  UNL     1      -2.594  12.796  23.118  1.00  0.00    -0.271 OA
HETATM    7  C18 UNL     1      -5.218  13.952  24.150  1.00  0.00     0.056 A 
HETATM    8  C19 UNL     1      -5.384  12.606  24.817  1.00  0.00     0.040 C 
HETATM    9  C20 UNL     1      -4.310  14.849  24.959  1.00  0.00     0.040 C 
ENDROOT
BRANCH   5  10
HETATM   10  C8  UNL     1      -3.241  13.228  20.851  1.00  0.00     0.175 C 
HETATM   11  C9  UNL     1      -3.625  14.558  20.227  1.00  0.00     0.042 C 
BRANCH  10  12
HETATM   12  N3  UNL     1      -4.026  12.195  20.244  1.00  0.00    -0.324 N 
HETATM   13  C10 UNL     1      -3.417  10.952  19.916  1.00  0.00     0.361 C 
HETATM   14  O5  UNL     1      -2.207  10.725  20.140  1.00  0.00    -0.238 OA
ATOM     15  H3  UNL     1      -5.015  12.350  20.048  1.00  0.00     0.165 HD
BRANCH  13  16
HETATM   16  O6  UNL     1      -4.178   9.969  19.335  1.00  0.00    -0.299 OA
BRANCH  16  17
HETATM   17  C11 UNL     1      -5.138   9.274  20.111  1.00  0.00     0.219 C 
BRANCH  17  18
HETATM   18  C12 UNL     1      -5.494   8.033  19.391  1.00  0.00    -0.034 A 
HETATM   19  C13 UNL     1      -4.594   7.224  18.754  1.00  0.00     0.009 A 
HETATM   20  C14 UNL     1      -4.983   6.066  18.090  1.00  0.00     0.001 A 
HETATM   21  C15 UNL     1      -6.309   5.719  18.072  1.00  0.00     0.000 A 
HETATM   22  C16 UNL     1      -7.229   6.516  18.702  1.00  0.00     0.001 A 
HETATM   23  C17 UNL     1      -6.832   7.662  19.358  1.00  0.00     0.009 A 
ENDBRANCH  17  18
ENDBRANCH  16  17
ENDBRANCH  13  16
ENDBRANCH  10  12
ENDBRANCH   5  10
BRANCH   1  24
HETATM   24  C4  UNL     1      -7.707  13.782  23.799  1.00  0.00     0.242 C 
HETATM   25  N1  UNL     1      -8.249  12.981  22.757  1.00  0.00    -0.345 N 
ATOM     26  H1  UNL     1      -7.773  12.936  21.856  1.00  0.00     0.163 HD
HETATM   27  O3  UNL     1      -8.325  13.808  24.891  1.00  0.00    -0.272 OA
BRANCH  25  28
HETATM   28  C3  UNL     1      -9.468  12.229  22.963  1.00  0.00     0.187 C 
BRANCH  28  29
HETATM   29  C2  UNL     1     -10.671  13.102  22.872  1.00  0.00     0.281 C 
HETATM   30  O2  UNL     1     -10.915  13.747  21.823  1.00  0.00    -0.263 OA
BRANCH  29  31
HETATM   31  O1  UNL     1     -11.547  13.233  23.928  1.00  0.00    -0.325 OA
HETATM   32  C1  UNL     1     -12.816  13.829  23.840  1.00  0.00     0.213 C 
ENDBRANCH  29  31
ENDBRANCH  28  29
BRANCH  28  33
HETATM   33  C21 UNL     1      -9.584  11.073  21.993  1.00  0.00     0.010 C 
HETATM   34  C22 UNL     1     -10.801  10.260  22.333  1.00  0.00     0.012 C 
HETATM   35  C23 UNL     1      -8.332  10.257  21.919  1.00  0.00     0.012 C 
ENDBRANCH  28  33
ENDBRANCH  25  28
ENDBRANCH   1  24
TORSDOF 10
ENDMDL
