MODEL 1
REMARK VINA RESULT: -8.256566617      0.000      0.000
REMARK  6 active torsions:
REMARK  status: ('A' for Active; 'I' for Inactive)
REMARK       I    between atoms: N1_7  and  C6_8 
REMARK    1  A    between atoms: C6_8  and  C7_10 
REMARK    2  A    between atoms: C7_10  and  C8_11 
REMARK    3  A    between atoms: C8_11  and  S1_12 
REMARK    4  A    between atoms: S1_12  and  N2_15 
REMARK    5  A    between atoms: C12_19  and  C13_20 
REMARK       I    between atoms: C13_20  and  N3_22 
REMARK    6  A    between atoms: N3_22  and  C14_24 
ROOT
HETATM    1  C14 UNL     1      -1.389  10.022  25.270  1.00  0.00     0.122 A 
HETATM    2  C15 UNL     1      -2.155   9.596  26.447  1.00  0.00     0.091 C 
HETATM    3  N4  UNL     1      -2.777   9.259  27.378  1.00  0.00    -0.195 NA
HETATM    4  C16 UNL     1       0.100  10.148  25.369  1.00  0.00     0.050 A 
HETATM    5  C17 UNL     1      -0.497   8.966  24.692  1.00  0.00     0.050 A 
ENDROOT
BRANCH   1   6
HETATM    6  N3  UNL     1      -2.124  10.862  24.362  1.00  0.00    -0.338 N 
HETATM    7  C13 UNL     1      -2.714  12.094  24.706  1.00  0.00     0.229 C 
HETATM    8  O4  UNL     1      -2.636  12.536  25.847  1.00  0.00    -0.273 OA
ATOM      9  H3  UNL     1      -2.225  10.542  23.398  1.00  0.00     0.164 HD
BRANCH   7  10
HETATM   10  C12 UNL     1      -3.461  12.887  23.646  1.00  0.00     0.058 C 
HETATM   11  C11 UNL     1      -2.694  14.053  23.143  1.00  0.00     0.022 C 
HETATM   12  C10 UNL     1      -2.906  14.284  21.665  1.00  0.00     0.017 C 
HETATM   13  C9  UNL     1      -2.980  12.994  20.927  1.00  0.00     0.107 C 
HETATM   14  N2  UNL     1      -4.145  12.208  21.317  1.00  0.00    -0.205 NA
HETATM   15  C20 UNL     1      -4.297  12.100  22.750  1.00  0.00     0.091 C 
HETATM   16  C19 UNL     1      -5.563  12.814  23.222  1.00  0.00     0.023 C 
HETATM   17  C18 UNL     1      -4.748  13.401  24.315  1.00  0.00     0.022 C 
BRANCH  14  18
HETATM   18  S1  UNL     1      -3.726  10.603  20.669  1.00  0.00     0.213 S 
HETATM   19  O2  UNL     1      -3.356  10.696  19.235  1.00  0.00    -0.211 OA
HETATM   20  O3  UNL     1      -2.550  10.127  21.445  1.00  0.00    -0.211 OA
BRANCH  18  21
HETATM   21  C8  UNL     1      -5.164   9.586  20.918  1.00  0.00     0.177 C 
BRANCH  21  22
HETATM   22  C7  UNL     1      -6.309   9.957  20.044  1.00  0.00     0.055 A 
HETATM   23  C21 UNL     1      -7.065  11.213  20.329  1.00  0.00     0.021 A 
HETATM   24  C22 UNL     1      -7.668   9.922  20.842  1.00  0.00     0.021 A 
BRANCH  22  25
HETATM   25  C6  UNL     1      -6.496   9.403  18.697  1.00  0.00     0.230 C 
HETATM   26  N1  UNL     1      -6.640   8.036  18.297  1.00  0.00    -0.344 N 
HETATM   27  C2  UNL     1      -6.765   7.598  16.917  1.00  0.00     0.086 C 
HETATM   28  C5  UNL     1      -6.812   6.889  19.167  1.00  0.00     0.163 C 
HETATM   29  C1  UNL     1      -5.422   7.384  16.311  1.00  0.00     0.032 C 
HETATM   30  C3  UNL     1      -7.461   6.250  17.005  1.00  0.00     0.064 C 
HETATM   31  C4  UNL     1      -6.983   5.688  18.305  1.00  0.00     0.190 C 
HETATM   32  F1  UNL     1      -5.826   4.972  18.247  1.00  0.00    -0.248 F 
HETATM   33  O1  UNL     1      -6.559  10.270  17.744  1.00  0.00    -0.272 OA
ENDBRANCH  22  25
ENDBRANCH  21  22
ENDBRANCH  18  21
ENDBRANCH  14  18
ENDBRANCH   7  10
ENDBRANCH   1   6
TORSDOF 6
ENDMDL
MODEL 2
REMARK VINA RESULT: -8.165066163      1.591      2.006
REMARK  6 active torsions:
REMARK  status: ('A' for Active; 'I' for Inactive)
REMARK       I    between atoms: N1_7  and  C6_8 
REMARK    1  A    between atoms: C6_8  and  C7_10 
REMARK    2  A    between atoms: C7_10  and  C8_11 
REMARK    3  A    between atoms: C8_11  and  S1_12 
REMARK    4  A    between atoms: S1_12  and  N2_15 
REMARK    5  A    between atoms: C12_19  and  C13_20 
REMARK       I    between atoms: C13_20  and  N3_22 
REMARK    6  A    between atoms: N3_22  and  C14_24 
ROOT
HETATM    1  C14 UNL     1      -0.886   9.730  25.837  1.00  0.00     0.122 A 
HETATM    2  C15 UNL     1      -1.950   9.360  26.777  1.00  0.00     0.091 C 
HETATM    3  N4  UNL     1      -2.807   9.074  27.519  1.00  0.00    -0.195 NA
HETATM    4  C16 UNL     1       0.533   9.372  26.156  1.00  0.00     0.050 A 
HETATM    5  C17 UNL     1      -0.223   8.569  25.159  1.00  0.00     0.050 A 
ENDROOT
BRANCH   1   6
HETATM    6  N3  UNL     1      -1.174  10.901  25.052  1.00  0.00    -0.338 N 
HETATM    7  C13 UNL     1      -2.230  11.008  24.126  1.00  0.00     0.229 C 
HETATM    8  O4  UNL     1      -2.993  10.069  23.924  1.00  0.00    -0.273 OA
ATOM      9  H3  UNL     1      -0.569  11.714  25.175  1.00  0.00     0.164 HD
BRANCH   7  10
HETATM   10  C12 UNL     1      -2.427  12.309  23.365  1.00  0.00     0.058 C 
HETATM   11  C11 UNL     1      -1.149  12.963  22.990  1.00  0.00     0.022 C 
HETATM   12  C10 UNL     1      -1.222  13.626  21.634  1.00  0.00     0.017 C 
HETATM   13  C9  UNL     1      -2.014  12.805  20.678  1.00  0.00     0.107 C 
HETATM   14  N2  UNL     1      -3.412  12.699  21.078  1.00  0.00    -0.205 NA
HETATM   15  C20 UNL     1      -3.575  12.342  22.469  1.00  0.00     0.091 C 
HETATM   16  C19 UNL     1      -4.221  13.481  23.255  1.00  0.00     0.023 C 
HETATM   17  C18 UNL     1      -3.199  13.250  24.307  1.00  0.00     0.022 C 
BRANCH  14  18
HETATM   18  S1  UNL     1      -3.968  11.338  20.074  1.00  0.00     0.213 S 
HETATM   19  O2  UNL     1      -2.818  10.655  19.432  1.00  0.00    -0.211 OA
HETATM   20  O3  UNL     1      -4.649  10.385  20.992  1.00  0.00    -0.211 OA
BRANCH  18  21
HETATM   21  C8  UNL     1      -5.079  12.038  18.874  1.00  0.00     0.177 C 
BRANCH  21  22
HETATM   22  C7  UNL     1      -5.453  11.089  17.791  1.00  0.00     0.055 A 
HETATM   23  C21 UNL     1      -4.543  10.925  16.620  1.00  0.00     0.021 A 
HETATM   24  C22 UNL     1      -5.728  11.849  16.438  1.00  0.00     0.021 A 
BRANCH  22  25
HETATM   25  C6  UNL     1      -6.436  10.013  17.979  1.00  0.00     0.230 C 
HETATM   26  N1  UNL     1      -6.226   8.598  18.015  1.00  0.00    -0.344 N 
HETATM   27  C2  UNL     1      -7.290   7.617  18.153  1.00  0.00     0.086 C 
HETATM   28  C5  UNL     1      -4.950   7.909  18.051  1.00  0.00     0.163 C 
HETATM   29  C1  UNL     1      -7.848   7.259  16.821  1.00  0.00     0.032 C 
HETATM   30  C3  UNL     1      -6.605   6.386  18.721  1.00  0.00     0.064 C 
HETATM   31  C4  UNL     1      -5.227   6.450  18.146  1.00  0.00     0.190 C 
HETATM   32  F1  UNL     1      -5.067   5.851  16.933  1.00  0.00    -0.248 F 
HETATM   33  O1  UNL     1      -7.654  10.398  18.155  1.00  0.00    -0.272 OA
ENDBRANCH  22  25
ENDBRANCH  21  22
ENDBRANCH  18  21
ENDBRANCH  14  18
ENDBRANCH   7  10
ENDBRANCH   1   6
TORSDOF 6
ENDMDL
MODEL 3
REMARK VINA RESULT: -8.076950706      3.039      4.049
REMARK  6 active torsions:
REMARK  status: ('A' for Active; 'I' for Inactive)
REMARK       I    between atoms: N1_7  and  C6_8 
REMARK    1  A    between atoms: C6_8  and  C7_10 
REMARK    2  A    between atoms: C7_10  and  C8_11 
REMARK    3  A    between atoms: C8_11  and  S1_12 
REMARK    4  A    between atoms: S1_12  and  N2_15 
REMARK    5  A    between atoms: C12_19  and  C13_20 
REMARK       I    between atoms: C13_20  and  N3_22 
REMARK    6  A    between atoms: N3_22  and  C14_24 
ROOT
HETATM    1  C14 UNL     1      -0.672  12.070  21.912  1.00  0.00     0.122 A 
HETATM    2  C15 UNL     1       0.492  12.811  22.411  1.00  0.00     0.091 C 
HETATM    3  N4  UNL     1       1.413  13.414  22.805  1.00  0.00    -0.195 NA
HETATM    4  C16 UNL     1      -0.604  10.577  21.814  1.00  0.00     0.050 A 
HETATM    5  C17 UNL     1      -1.348  11.210  22.936  1.00  0.00     0.050 A 
ENDROOT
BRANCH   1   6
HETATM    6  N3  UNL     1      -1.496  12.815  20.997  1.00  0.00    -0.338 N 
HETATM    7  C13 UNL     1      -1.222  12.988  19.627  1.00  0.00     0.229 C 
HETATM    8  O4  UNL     1      -0.222  12.497  19.114  1.00  0.00    -0.273 OA
ATOM      9  H3  UNL     1      -2.341  13.250  21.369  1.00  0.00     0.164 HD
BRANCH   7  10
HETATM   10  C12 UNL     1      -2.182  13.796  18.769  1.00  0.00     0.058 C 
HETATM   11  C11 UNL     1      -1.538  14.383  17.568  1.00  0.00     0.022 C 
HETATM   12  C10 UNL     1      -2.456  14.381  16.368  1.00  0.00     0.017 C 
HETATM   13  C9  UNL     1      -3.267  13.135  16.315  1.00  0.00     0.107 C 
HETATM   14  N2  UNL     1      -4.185  13.033  17.443  1.00  0.00    -0.205 NA
HETATM   15  C20 UNL     1      -3.547  13.293  18.714  1.00  0.00     0.091 C 
HETATM   16  C19 UNL     1      -4.098  14.567  19.353  1.00  0.00     0.023 C 
HETATM   17  C18 UNL     1      -2.694  14.944  19.657  1.00  0.00     0.022 C 
BRANCH  14  18
HETATM   18  S1  UNL     1      -4.641  11.314  17.378  1.00  0.00     0.213 S 
HETATM   19  O2  UNL     1      -6.115  11.163  17.307  1.00  0.00    -0.211 OA
HETATM   20  O3  UNL     1      -4.035  10.762  16.137  1.00  0.00    -0.211 OA
BRANCH  18  21
HETATM   21  C8  UNL     1      -3.969  10.575  18.851  1.00  0.00     0.177 C 
BRANCH  21  22
HETATM   22  C7  UNL     1      -5.005  10.206  19.852  1.00  0.00     0.055 A 
HETATM   23  C21 UNL     1      -5.224  11.092  21.033  1.00  0.00     0.021 A 
HETATM   24  C22 UNL     1      -4.354   9.872  21.248  1.00  0.00     0.021 A 
BRANCH  22  25
HETATM   25  C6  UNL     1      -6.096   9.265  19.562  1.00  0.00     0.230 C 
HETATM   26  N1  UNL     1      -6.042   8.004  18.889  1.00  0.00    -0.344 N 
HETATM   27  C2  UNL     1      -7.204   7.177  18.608  1.00  0.00     0.086 C 
HETATM   28  C5  UNL     1      -4.849   7.280  18.494  1.00  0.00     0.163 C 
HETATM   29  C1  UNL     1      -7.825   7.570  17.314  1.00  0.00     0.032 C 
HETATM   30  C3  UNL     1      -6.646   5.772  18.454  1.00  0.00     0.064 C 
HETATM   31  C4  UNL     1      -5.281   5.992  17.886  1.00  0.00     0.190 C 
HETATM   32  F1  UNL     1      -5.213   6.057  16.527  1.00  0.00    -0.248 F 
HETATM   33  O1  UNL     1      -7.261   9.617  19.991  1.00  0.00    -0.272 OA
ENDBRANCH  22  25
ENDBRANCH  21  22
ENDBRANCH  18  21
ENDBRANCH  14  18
ENDBRANCH   7  10
ENDBRANCH   1   6
TORSDOF 6
ENDMDL
MODEL 4
REMARK VINA RESULT: -7.942339122      3.114      7.663
REMARK  6 active torsions:
REMARK  status: ('A' for Active; 'I' for Inactive)
REMARK       I    between atoms: N1_7  and  C6_8 
REMARK    1  A    between atoms: C6_8  and  C7_10 
REMARK    2  A    between atoms: C7_10  and  C8_11 
REMARK    3  A    between atoms: C8_11  and  S1_12 
REMARK    4  A    between atoms: S1_12  and  N2_15 
REMARK    5  A    between atoms: C12_19  and  C13_20 
REMARK       I    between atoms: C13_20  and  N3_22 
REMARK    6  A    between atoms: N3_22  and  C14_24 
ROOT
HETATM    1  C14 UNL     1      -9.531  10.756  21.421  1.00  0.00     0.122 A 
HETATM    2  C15 UNL     1      -8.706  11.482  22.393  1.00  0.00     0.091 C 
HETATM    3  N4  UNL     1      -8.039  12.062  23.159  1.00  0.00    -0.195 NA
HETATM    4  C16 UNL     1     -10.766  10.050  21.889  1.00  0.00     0.050 A 
HETATM    5  C17 UNL     1     -10.884  11.354  21.183  1.00  0.00     0.050 A 
ENDROOT
BRANCH   1   6
HETATM    6  N3  UNL     1      -8.800  10.253  20.288  1.00  0.00    -0.338 N 
HETATM    7  C13 UNL     1      -7.975   9.112  20.306  1.00  0.00     0.229 C 
HETATM    8  O4  UNL     1      -7.822   8.457  21.331  1.00  0.00    -0.273 OA
ATOM      9  H3  UNL     1      -8.886  10.761  19.407  1.00  0.00     0.164 HD
BRANCH   7  10
HETATM   10  C12 UNL     1      -7.262   8.686  19.033  1.00  0.00     0.058 C 
HETATM   11  C11 UNL     1      -8.011   9.036  17.801  1.00  0.00     0.022 C 
HETATM   12  C10 UNL     1      -7.096   9.454  16.674  1.00  0.00     0.017 C 
HETATM   13  C9  UNL     1      -5.960  10.271  17.181  1.00  0.00     0.107 C 
HETATM   14  N2  UNL     1      -5.085   9.503  18.059  1.00  0.00    -0.205 NA
HETATM   15  C20 UNL     1      -5.808   8.768  19.073  1.00  0.00     0.091 C 
HETATM   16  C19 UNL     1      -5.666   7.262  18.862  1.00  0.00     0.023 C 
HETATM   17  C18 UNL     1      -7.127   7.155  19.103  1.00  0.00     0.022 C 
BRANCH  14  18
HETATM   18  S1  UNL     1      -4.154  10.796  18.854  1.00  0.00     0.213 S 
HETATM   19  O2  UNL     1      -3.365  11.563  17.859  1.00  0.00    -0.211 OA
HETATM   20  O3  UNL     1      -5.146  11.703  19.491  1.00  0.00    -0.211 OA
BRANCH  18  21
HETATM   21  C8  UNL     1      -3.110   9.984  20.044  1.00  0.00     0.177 C 
BRANCH  21  22
HETATM   22  C7  UNL     1      -2.544  10.911  21.062  1.00  0.00     0.055 A 
HETATM   23  C21 UNL     1      -1.715  12.067  20.612  1.00  0.00     0.021 A 
HETATM   24  C22 UNL     1      -0.970  10.837  21.084  1.00  0.00     0.021 A 
BRANCH  22  25
HETATM   25  C6  UNL     1      -3.068  11.008  22.431  1.00  0.00     0.230 C 
HETATM   26  N1  UNL     1      -3.707  12.115  23.074  1.00  0.00    -0.344 N 
HETATM   27  C2  UNL     1      -4.139  12.116  24.462  1.00  0.00     0.086 C 
HETATM   28  C5  UNL     1      -4.143  13.349  22.450  1.00  0.00     0.163 C 
HETATM   29  C1  UNL     1      -3.029  12.544  25.356  1.00  0.00     0.032 C 
HETATM   30  C3  UNL     1      -5.228  13.174  24.524  1.00  0.00     0.064 C 
HETATM   31  C4  UNL     1      -4.809  14.174  23.495  1.00  0.00     0.190 C 
HETATM   32  F1  UNL     1      -3.973  15.156  23.935  1.00  0.00    -0.248 F 
HETATM   33  O1  UNL     1      -2.955   9.940  23.146  1.00  0.00    -0.272 OA
ENDBRANCH  22  25
ENDBRANCH  21  22
ENDBRANCH  18  21
ENDBRANCH  14  18
ENDBRANCH   7  10
ENDBRANCH   1   6
TORSDOF 6
ENDMDL
MODEL 5
REMARK VINA RESULT: -7.830933405      3.047      7.555
REMARK  6 active torsions:
REMARK  status: ('A' for Active; 'I' for Inactive)
REMARK       I    between atoms: N1_7  and  C6_8 
REMARK    1  A    between atoms: C6_8  and  C7_10 
REMARK    2  A    between atoms: C7_10  and  C8_11 
REMARK    3  A    between atoms: C8_11  and  S1_12 
REMARK    4  A    between atoms: S1_12  and  N2_15 
REMARK    5  A    between atoms: C12_19  and  C13_20 
REMARK       I    between atoms: C13_20  and  N3_22 
REMARK    6  A    between atoms: N3_22  and  C14_24 
ROOT
HETATM    1  C14 UNL     1      -9.397  10.818  21.463  1.00  0.00     0.122 A 
HETATM    2  C15 UNL     1      -8.578  11.554  22.432  1.00  0.00     0.091 C 
HETATM    3  N4  UNL     1      -7.915  12.141  23.196  1.00  0.00    -0.195 NA
HETATM    4  C16 UNL     1     -10.630  10.108  21.931  1.00  0.00     0.050 A 
HETATM    5  C17 UNL     1     -10.753  11.408  21.218  1.00  0.00     0.050 A 
ENDROOT
BRANCH   1   6
HETATM    6  N3  UNL     1      -8.661  10.313  20.333  1.00  0.00    -0.338 N 
HETATM    7  C13 UNL     1      -7.900   9.128  20.336  1.00  0.00     0.229 C 
HETATM    8  O4  UNL     1      -7.814   8.432  21.342  1.00  0.00    -0.273 OA
ATOM      9  H3  UNL     1      -8.693  10.853  19.468  1.00  0.00     0.164 HD
BRANCH   7  10
HETATM   10  C12 UNL     1      -7.174   8.705  19.069  1.00  0.00     0.058 C 
HETATM   11  C11 UNL     1      -7.961   8.952  17.836  1.00  0.00     0.022 C 
HETATM   12  C10 UNL     1      -7.091   9.391  16.681  1.00  0.00     0.017 C 
HETATM   13  C9  UNL     1      -6.011  10.306  17.140  1.00  0.00     0.107 C 
HETATM   14  N2  UNL     1      -5.073   9.636  18.034  1.00  0.00    -0.205 NA
HETATM   15  C20 UNL     1      -5.730   8.891  19.085  1.00  0.00     0.091 C 
HETATM   16  C19 UNL     1      -5.482   7.392  18.929  1.00  0.00     0.023 C 
HETATM   17  C18 UNL     1      -6.929   7.190  19.196  1.00  0.00     0.022 C 
BRANCH  14  18
HETATM   18  S1  UNL     1      -4.227  11.022  18.765  1.00  0.00     0.213 S 
HETATM   19  O2  UNL     1      -3.353  11.689  17.769  1.00  0.00    -0.211 OA
HETATM   20  O3  UNL     1      -5.279  11.976  19.206  1.00  0.00    -0.211 OA
BRANCH  18  21
HETATM   21  C8  UNL     1      -3.294  10.360  20.128  1.00  0.00     0.177 C 
BRANCH  21  22
HETATM   22  C7  UNL     1      -2.247  11.288  20.634  1.00  0.00     0.055 A 
HETATM   23  C21 UNL     1      -0.879  11.236  20.038  1.00  0.00     0.021 A 
HETATM   24  C22 UNL     1      -1.083  10.500  21.345  1.00  0.00     0.021 A 
BRANCH  22  25
HETATM   25  C6  UNL     1      -2.562  12.514  21.380  1.00  0.00     0.230 C 
HETATM   26  N1  UNL     1      -3.135  12.653  22.683  1.00  0.00    -0.344 N 
HETATM   27  C2  UNL     1      -3.455  13.928  23.304  1.00  0.00     0.086 C 
HETATM   28  C5  UNL     1      -3.373  11.594  23.645  1.00  0.00     0.163 C 
HETATM   29  C1  UNL     1      -4.822  14.369  22.918  1.00  0.00     0.032 C 
HETATM   30  C3  UNL     1      -3.459  13.637  24.795  1.00  0.00     0.064 C 
HETATM   31  C4  UNL     1      -3.922  12.219  24.880  1.00  0.00     0.190 C 
HETATM   32  F1  UNL     1      -5.271  12.043  24.946  1.00  0.00    -0.248 F 
HETATM   33  O1  UNL     1      -2.261  13.618  20.785  1.00  0.00    -0.272 OA
ENDBRANCH  22  25
ENDBRANCH  21  22
ENDBRANCH  18  21
ENDBRANCH  14  18
ENDBRANCH   7  10
ENDBRANCH   1   6
TORSDOF 6
ENDMDL
