MODEL 1
REMARK VINA RESULT: -10.579278460      0.000      0.000
REMARK  6 active torsions:
REMARK  status: ('A' for Active; 'I' for Inactive)
REMARK    1  A    between atoms: C2_2  and  C3_3 
REMARK       I    between atoms: C3_3  and  N1_5 
REMARK    2  A    between atoms: N2_8  and  S1_9 
REMARK    3  A    between atoms: S1_9  and  C6_12 
REMARK    4  A    between atoms: C10_16  and  N3_17 
REMARK       I    between atoms: N3_17  and  C11_18 
REMARK    5  A    between atoms: C11_18  and  C12_20 
REMARK    6  A    between atoms: C14_23  and  C15_24 
ROOT
HETATM    1  C12 UNL     1      -5.125   9.854  17.955  1.00  0.00     0.127 C 
HETATM    2  C13 UNL     1      -5.692   9.447  16.706  1.00  0.00     0.106 C 
HETATM    3  N4  UNL     1      -6.134   9.135  15.700  1.00  0.00    -0.191 NA
HETATM    4  C14 UNL     1      -5.117   9.010  18.949  1.00  0.00     0.044 C 
ENDROOT
BRANCH   1   5
HETATM    5  C11 UNL     1      -4.555  11.238  18.029  1.00  0.00     0.337 C 
HETATM    6  N3  UNL     1      -4.143  11.790  19.129  1.00  0.00    -0.366 NA
HETATM    7  O4  UNL     1      -4.543  11.773  16.854  1.00  0.00    -0.250 OA
BRANCH   6   8
HETATM    8  C10 UNL     1      -3.695  12.390  20.324  1.00  0.00     0.112 A 
HETATM    9  C9  UNL     1      -4.223  13.585  20.810  1.00  0.00     0.045 A 
HETATM   10  C8  UNL     1      -3.784  14.158  21.991  1.00  0.00     0.005 A 
HETATM   11  C7  UNL     1      -2.775  13.503  22.721  1.00  0.00     0.025 A 
HETATM   12  C6  UNL     1      -2.242  12.338  22.279  1.00  0.00     0.083 A 
HETATM   13  C21 UNL     1      -2.709  11.807  21.093  1.00  0.00     0.070 A 
BRANCH  12  14
HETATM   14  S1  UNL     1      -0.990  11.479  23.094  1.00  0.00     0.264 S 
HETATM   15  O2  UNL     1      -0.313  10.564  22.091  1.00  0.00    -0.200 OA
HETATM   16  O3  UNL     1       0.124  12.541  23.361  1.00  0.00    -0.200 OA
BRANCH  14  17
HETATM   17  N2  UNL     1      -1.288  10.760  24.551  1.00  0.00    -0.283 N 
HETATM   18  C5  UNL     1      -0.529   9.566  24.781  1.00  0.00     0.160 C 
HETATM   19  C4  UNL     1      -0.252   9.520  26.326  1.00  0.00     0.147 C 
HETATM   20  N1  UNL     1      -1.592   9.247  26.845  1.00  0.00    -0.342 N 
HETATM   21  C3  UNL     1      -1.953   8.120  27.598  1.00  0.00     0.242 C 
HETATM   22  C23 UNL     1      -2.587  10.258  26.517  1.00  0.00     0.171 C 
HETATM   23  O1  UNL     1      -3.173   8.022  27.984  1.00  0.00    -0.268 OA
HETATM   24  C22 UNL     1      -2.601  10.646  25.047  1.00  0.00     0.096 C 
BRANCH  21  25
HETATM   25  C2  UNL     1      -1.003   7.088  27.941  1.00  0.00     0.064 C 
HETATM   26  C1  UNL     1      -0.742   6.140  27.053  1.00  0.00     0.017 C 
ENDBRANCH  21  25
ENDBRANCH  14  17
ENDBRANCH  12  14
ENDBRANCH   6   8
ENDBRANCH   1   5
BRANCH   4  27
HETATM   27  C15 UNL     1      -5.718   7.688  18.717  1.00  0.00     0.004 A 
HETATM   28  C16 UNL     1      -5.008   6.604  18.307  1.00  0.00     0.014 A 
HETATM   29  C17 UNL     1      -5.599   5.352  18.207  1.00  0.00     0.001 A 
HETATM   30  C18 UNL     1      -6.934   5.157  18.517  1.00  0.00     0.003 A 
HETATM   31  C19 UNL     1      -7.654   6.279  18.932  1.00  0.00     0.043 A 
HETATM   32  C20 UNL     1      -7.049   7.529  19.029  1.00  0.00     0.126 A 
HETATM   33  F1  UNL     1      -7.837   8.559  19.457  1.00  0.00    -0.205 F 
ENDBRANCH   4  27
TORSDOF 6
ENDMDL
MODEL 2
REMARK VINA RESULT: -10.475225949      1.854      2.169
REMARK  6 active torsions:
REMARK  status: ('A' for Active; 'I' for Inactive)
REMARK    1  A    between atoms: C2_2  and  C3_3 
REMARK       I    between atoms: C3_3  and  N1_5 
REMARK    2  A    between atoms: N2_8  and  S1_9 
REMARK    3  A    between atoms: S1_9  and  C6_12 
REMARK    4  A    between atoms: C10_16  and  N3_17 
REMARK       I    between atoms: N3_17  and  C11_18 
REMARK    5  A    between atoms: C11_18  and  C12_20 
REMARK    6  A    between atoms: C14_23  and  C15_24 
ROOT
HETATM    1  C12 UNL     1      -7.015  10.066  19.831  1.00  0.00     0.127 C 
HETATM    2  C13 UNL     1      -7.568   9.152  20.782  1.00  0.00     0.106 C 
HETATM    3  N4  UNL     1      -8.020   8.436  21.549  1.00  0.00    -0.191 NA
HETATM    4  C14 UNL     1      -6.547   9.600  18.707  1.00  0.00     0.044 C 
ENDROOT
BRANCH   1   5
HETATM    5  C11 UNL     1      -7.027  11.520  20.193  1.00  0.00     0.337 C 
HETATM    6  N3  UNL     1      -6.037  12.128  20.772  1.00  0.00    -0.366 NA
HETATM    7  O4  UNL     1      -8.151  12.052  19.845  1.00  0.00    -0.250 OA
BRANCH   6   8
HETATM    8  C10 UNL     1      -4.961  12.788  21.400  1.00  0.00     0.112 A 
HETATM    9  C9  UNL     1      -4.957  14.160  21.641  1.00  0.00     0.045 A 
HETATM   10  C8  UNL     1      -3.901  14.796  22.270  1.00  0.00     0.005 A 
HETATM   11  C7  UNL     1      -2.801  14.021  22.683  1.00  0.00     0.025 A 
HETATM   12  C6  UNL     1      -2.773  12.683  22.469  1.00  0.00     0.083 A 
HETATM   13  C21 UNL     1      -3.848  12.095  21.833  1.00  0.00     0.070 A 
BRANCH  12  14
HETATM   14  S1  UNL     1      -1.462  11.661  22.919  1.00  0.00     0.264 S 
HETATM   15  O2  UNL     1      -1.116  10.783  21.732  1.00  0.00    -0.200 OA
HETATM   16  O3  UNL     1      -0.218  12.604  22.993  1.00  0.00    -0.200 OA
BRANCH  14  17
HETATM   17  N2  UNL     1      -1.497  10.847  24.357  1.00  0.00    -0.283 N 
HETATM   18  C5  UNL     1      -0.772   9.612  24.348  1.00  0.00     0.160 C 
HETATM   19  C4  UNL     1      -0.192   9.440  25.798  1.00  0.00     0.147 C 
HETATM   20  N1  UNL     1      -1.413   9.181  26.560  1.00  0.00    -0.342 N 
HETATM   21  C3  UNL     1      -1.674   8.015  27.297  1.00  0.00     0.242 C 
HETATM   22  C23 UNL     1      -2.399  10.251  26.510  1.00  0.00     0.171 C 
HETATM   23  O1  UNL     1      -2.795   7.936  27.917  1.00  0.00    -0.268 OA
HETATM   24  C22 UNL     1      -2.688  10.747  25.102  1.00  0.00     0.096 C 
BRANCH  21  25
HETATM   25  C2  UNL     1      -0.730   6.925  27.370  1.00  0.00     0.064 C 
HETATM   26  C1  UNL     1      -0.832   6.058  28.368  1.00  0.00     0.017 C 
ENDBRANCH  21  25
ENDBRANCH  14  17
ENDBRANCH  12  14
ENDBRANCH   6   8
ENDBRANCH   1   5
BRANCH   4  27
HETATM   27  C15 UNL     1      -6.606   8.145  18.502  1.00  0.00     0.004 A 
HETATM   28  C16 UNL     1      -7.697   7.500  18.011  1.00  0.00     0.014 A 
HETATM   29  C17 UNL     1      -7.666   6.141  17.734  1.00  0.00     0.001 A 
HETATM   30  C18 UNL     1      -6.527   5.387  17.949  1.00  0.00     0.003 A 
HETATM   31  C19 UNL     1      -5.414   6.058  18.458  1.00  0.00     0.043 A 
HETATM   32  C20 UNL     1      -5.457   7.422  18.731  1.00  0.00     0.126 A 
HETATM   33  F1  UNL     1      -4.311   7.987  19.214  1.00  0.00    -0.205 F 
ENDBRANCH   4  27
TORSDOF 6
ENDMDL
MODEL 3
REMARK VINA RESULT: -10.438752157      1.498      1.733
REMARK  6 active torsions:
REMARK  status: ('A' for Active; 'I' for Inactive)
REMARK    1  A    between atoms: C2_2  and  C3_3 
REMARK       I    between atoms: C3_3  and  N1_5 
REMARK    2  A    between atoms: N2_8  and  S1_9 
REMARK    3  A    between atoms: S1_9  and  C6_12 
REMARK    4  A    between atoms: C10_16  and  N3_17 
REMARK       I    between atoms: N3_17  and  C11_18 
REMARK    5  A    between atoms: C11_18  and  C12_20 
REMARK    6  A    between atoms: C14_23  and  C15_24 
ROOT
HETATM    1  C12 UNL     1      -6.688  10.320  19.498  1.00  0.00     0.127 C 
HETATM    2  C13 UNL     1      -6.833  10.151  18.085  1.00  0.00     0.106 C 
HETATM    3  N4  UNL     1      -6.943  10.033  16.954  1.00  0.00    -0.191 NA
HETATM    4  C14 UNL     1      -6.497   9.266  20.243  1.00  0.00     0.044 C 
ENDROOT
BRANCH   1   5
HETATM    5  C11 UNL     1      -6.750  11.720  20.030  1.00  0.00     0.337 C 
HETATM    6  N3  UNL     1      -5.764  12.303  20.640  1.00  0.00    -0.366 NA
HETATM    7  O4  UNL     1      -7.909  12.233  19.788  1.00  0.00    -0.250 OA
BRANCH   6   8
HETATM    8  C10 UNL     1      -4.693  12.937  21.303  1.00  0.00     0.112 A 
HETATM    9  C9  UNL     1      -4.673  14.306  21.562  1.00  0.00     0.045 A 
HETATM   10  C8  UNL     1      -3.622  14.916  22.225  1.00  0.00     0.005 A 
HETATM   11  C7  UNL     1      -2.545  14.118  22.654  1.00  0.00     0.025 A 
HETATM   12  C6  UNL     1      -2.534  12.782  22.422  1.00  0.00     0.083 A 
HETATM   13  C21 UNL     1      -3.603  12.220  21.753  1.00  0.00     0.070 A 
BRANCH  12  14
HETATM   14  S1  UNL     1      -1.251  11.733  22.890  1.00  0.00     0.264 S 
HETATM   15  O2  UNL     1      -0.885  10.870  21.697  1.00  0.00    -0.200 OA
HETATM   16  O3  UNL     1       0.004  12.655  23.014  1.00  0.00    -0.200 OA
BRANCH  14  17
HETATM   17  N2  UNL     1      -1.337  10.895  24.311  1.00  0.00    -0.283 N 
HETATM   18  C5  UNL     1      -0.643   9.642  24.296  1.00  0.00     0.160 C 
HETATM   19  C4  UNL     1      -0.099   9.430  25.753  1.00  0.00     0.147 C 
HETATM   20  N1  UNL     1      -1.342   9.189  26.486  1.00  0.00    -0.342 N 
HETATM   21  C3  UNL     1      -1.648   8.018  27.195  1.00  0.00     0.242 C 
HETATM   22  C23 UNL     1      -2.299  10.284  26.434  1.00  0.00     0.171 C 
HETATM   23  O1  UNL     1      -2.783   7.956  27.790  1.00  0.00    -0.268 OA
HETATM   24  C22 UNL     1      -2.546  10.812  25.030  1.00  0.00     0.096 C 
BRANCH  21  25
HETATM   25  C2  UNL     1      -0.734   6.902  27.269  1.00  0.00     0.064 C 
HETATM   26  C1  UNL     1      -0.771   6.115  28.334  1.00  0.00     0.017 C 
ENDBRANCH  21  25
ENDBRANCH  14  17
ENDBRANCH  12  14
ENDBRANCH   6   8
ENDBRANCH   1   5
BRANCH   4  27
HETATM   27  C15 UNL     1      -6.464   7.960  19.569  1.00  0.00     0.004 A 
HETATM   28  C16 UNL     1      -7.574   7.219  19.314  1.00  0.00     0.014 A 
HETATM   29  C17 UNL     1      -7.503   6.044  18.578  1.00  0.00     0.001 A 
HETATM   30  C18 UNL     1      -6.300   5.579  18.078  1.00  0.00     0.003 A 
HETATM   31  C19 UNL     1      -5.165   6.346  18.350  1.00  0.00     0.043 A 
HETATM   32  C20 UNL     1      -5.250   7.522  19.087  1.00  0.00     0.126 A 
HETATM   33  F1  UNL     1      -4.085   8.206  19.287  1.00  0.00    -0.205 F 
ENDBRANCH   4  27
TORSDOF 6
ENDMDL
MODEL 4
REMARK VINA RESULT: -10.208576206      3.375      4.047
REMARK  6 active torsions:
REMARK  status: ('A' for Active; 'I' for Inactive)
REMARK    1  A    between atoms: C2_2  and  C3_3 
REMARK       I    between atoms: C3_3  and  N1_5 
REMARK    2  A    between atoms: N2_8  and  S1_9 
REMARK    3  A    between atoms: S1_9  and  C6_12 
REMARK    4  A    between atoms: C10_16  and  N3_17 
REMARK       I    between atoms: N3_17  and  C11_18 
REMARK    5  A    between atoms: C11_18  and  C12_20 
REMARK    6  A    between atoms: C14_23  and  C15_24 
ROOT
HETATM    1  C12 UNL     1      -8.295   9.634  20.845  1.00  0.00     0.127 C 
HETATM    2  C13 UNL     1      -8.145  10.159  19.523  1.00  0.00     0.106 C 
HETATM    3  N4  UNL     1      -8.028  10.596  18.473  1.00  0.00    -0.191 NA
HETATM    4  C14 UNL     1      -7.734   8.494  21.138  1.00  0.00     0.044 C 
ENDROOT
BRANCH   1   5
HETATM    5  C11 UNL     1      -9.084  10.453  21.821  1.00  0.00     0.337 C 
HETATM    6  N3  UNL     1      -8.596  11.461  22.477  1.00  0.00    -0.366 NA
HETATM    7  O4  UNL     1     -10.292  10.004  21.898  1.00  0.00    -0.250 OA
BRANCH   6   8
HETATM    8  C10 UNL     1      -8.066  12.556  23.190  1.00  0.00     0.112 A 
HETATM    9  C9  UNL     1      -8.869  13.527  23.785  1.00  0.00     0.045 A 
HETATM   10  C8  UNL     1      -8.338  14.591  24.493  1.00  0.00     0.005 A 
HETATM   11  C7  UNL     1      -6.939  14.684  24.617  1.00  0.00     0.025 A 
HETATM   12  C6  UNL     1      -6.128  13.755  24.054  1.00  0.00     0.083 A 
HETATM   13  C21 UNL     1      -6.704  12.714  23.353  1.00  0.00     0.070 A 
BRANCH  12  14
HETATM   14  S1  UNL     1      -4.408  13.800  24.136  1.00  0.00     0.264 S 
HETATM   15  O2  UNL     1      -3.904  14.686  23.012  1.00  0.00    -0.200 OA
HETATM   16  O3  UNL     1      -4.083  14.664  25.395  1.00  0.00    -0.200 OA
BRANCH  14  17
HETATM   17  N2  UNL     1      -3.547  12.401  24.314  1.00  0.00    -0.283 N 
HETATM   18  C5  UNL     1      -3.208  12.090  25.670  1.00  0.00     0.160 C 
HETATM   19  C4  UNL     1      -3.217  10.523  25.771  1.00  0.00     0.147 C 
HETATM   20  N1  UNL     1      -2.036  10.183  24.977  1.00  0.00    -0.342 N 
HETATM   21  C3  UNL     1      -0.910   9.496  25.455  1.00  0.00     0.242 C 
HETATM   22  C23 UNL     1      -2.090  10.624  23.590  1.00  0.00     0.171 C 
HETATM   23  O1  UNL     1       0.049   9.271  24.633  1.00  0.00    -0.268 OA
HETATM   24  C22 UNL     1      -2.500  12.079  23.428  1.00  0.00     0.096 C 
BRANCH  21  25
HETATM   25  C2  UNL     1      -0.808   9.046  26.824  1.00  0.00     0.064 C 
HETATM   26  C1  UNL     1      -1.034   7.769  27.094  1.00  0.00     0.017 C 
ENDBRANCH  21  25
ENDBRANCH  14  17
ENDBRANCH  12  14
ENDBRANCH   6   8
ENDBRANCH   1   5
BRANCH   4  27
HETATM   27  C15 UNL     1      -6.993   7.811  20.067  1.00  0.00     0.004 A 
HETATM   28  C16 UNL     1      -7.564   6.926  19.208  1.00  0.00     0.014 A 
HETATM   29  C17 UNL     1      -6.849   6.390  18.146  1.00  0.00     0.001 A 
HETATM   30  C18 UNL     1      -5.528   6.732  17.920  1.00  0.00     0.003 A 
HETATM   31  C19 UNL     1      -4.951   7.639  18.811  1.00  0.00     0.043 A 
HETATM   32  C20 UNL     1      -5.679   8.170  19.872  1.00  0.00     0.126 A 
HETATM   33  F1  UNL     1      -5.027   9.059  20.679  1.00  0.00    -0.205 F 
ENDBRANCH   4  27
TORSDOF 6
ENDMDL
MODEL 5
REMARK VINA RESULT: -10.035476539      1.004      1.031
REMARK  6 active torsions:
REMARK  status: ('A' for Active; 'I' for Inactive)
REMARK    1  A    between atoms: C2_2  and  C3_3 
REMARK       I    between atoms: C3_3  and  N1_5 
REMARK    2  A    between atoms: N2_8  and  S1_9 
REMARK    3  A    between atoms: S1_9  and  C6_12 
REMARK    4  A    between atoms: C10_16  and  N3_17 
REMARK       I    between atoms: N3_17  and  C11_18 
REMARK    5  A    between atoms: C11_18  and  C12_20 
REMARK    6  A    between atoms: C14_23  and  C15_24 
ROOT
HETATM    1  C12 UNL     1      -5.800  10.231  17.852  1.00  0.00     0.127 C 
HETATM    2  C13 UNL     1      -6.146   9.701  16.570  1.00  0.00     0.106 C 
HETATM    3  N4  UNL     1      -6.415   9.293  15.537  1.00  0.00    -0.191 NA
HETATM    4  C14 UNL     1      -5.704   9.416  18.866  1.00  0.00     0.044 C 
ENDROOT
BRANCH   1   5
HETATM    5  C11 UNL     1      -5.550  11.706  17.939  1.00  0.00     0.337 C 
HETATM    6  N3  UNL     1      -4.707  12.248  18.764  1.00  0.00    -0.366 NA
HETATM    7  O4  UNL     1      -6.290  12.330  17.084  1.00  0.00    -0.250 OA
BRANCH   6   8
HETATM    8  C10 UNL     1      -3.791  12.836  19.660  1.00  0.00     0.112 A 
HETATM    9  C9  UNL     1      -3.754  14.207  19.906  1.00  0.00     0.045 A 
HETATM   10  C8  UNL     1      -2.858  14.772  20.797  1.00  0.00     0.005 A 
HETATM   11  C7  UNL     1      -1.963  13.926  21.478  1.00  0.00     0.025 A 
HETATM   12  C6  UNL     1      -1.974  12.587  21.265  1.00  0.00     0.083 A 
HETATM   13  C21 UNL     1      -2.883  12.070  20.363  1.00  0.00     0.070 A 
BRANCH  12  14
HETATM   14  S1  UNL     1      -0.903  11.479  22.035  1.00  0.00     0.264 S 
HETATM   15  O2  UNL     1      -0.660  10.320  21.087  1.00  0.00    -0.200 OA
HETATM   16  O3  UNL     1       0.488  12.191  22.033  1.00  0.00    -0.200 OA
BRANCH  14  17
HETATM   17  N2  UNL     1      -1.170  11.012  23.597  1.00  0.00    -0.283 N 
HETATM   18  C5  UNL     1      -0.643   9.721  23.921  1.00  0.00     0.160 C 
HETATM   19  C4  UNL     1      -0.206   9.796  25.428  1.00  0.00     0.147 C 
HETATM   20  N1  UNL     1      -1.506   9.874  26.093  1.00  0.00    -0.342 N 
HETATM   21  C3  UNL     1      -1.997   8.944  27.022  1.00  0.00     0.242 C 
HETATM   22  C23 UNL     1      -2.312  11.028  25.719  1.00  0.00     0.171 C 
HETATM   23  O1  UNL     1      -3.160   9.152  27.523  1.00  0.00    -0.268 OA
HETATM   24  C22 UNL     1      -2.415  11.237  24.216  1.00  0.00     0.096 C 
BRANCH  21  25
HETATM   25  C2  UNL     1      -1.238   7.781  27.419  1.00  0.00     0.064 C 
HETATM   26  C1  UNL     1      -1.599   7.126  28.513  1.00  0.00     0.017 C 
ENDBRANCH  21  25
ENDBRANCH  14  17
ENDBRANCH  12  14
ENDBRANCH   6   8
ENDBRANCH   1   5
BRANCH   4  27
HETATM   27  C15 UNL     1      -5.982   7.994  18.617  1.00  0.00     0.004 A 
HETATM   28  C16 UNL     1      -5.011   7.055  18.471  1.00  0.00     0.014 A 
HETATM   29  C17 UNL     1      -5.323   5.708  18.347  1.00  0.00     0.001 A 
HETATM   30  C18 UNL     1      -6.635   5.268  18.364  1.00  0.00     0.003 A 
HETATM   31  C19 UNL     1      -7.624   6.242  18.511  1.00  0.00     0.043 A 
HETATM   32  C20 UNL     1      -7.298   7.588  18.635  1.00  0.00     0.126 A 
HETATM   33  F1  UNL     1      -8.338   8.460  18.787  1.00  0.00    -0.205 F 
ENDBRANCH   4  27
TORSDOF 6
ENDMDL
