MODEL 1
REMARK VINA RESULT: -7.479021706      0.000      0.000
REMARK  5 active torsions:
REMARK  status: ('A' for Active; 'I' for Inactive)
REMARK    1  A    between atoms: N2_12  and  C10_14 
REMARK    2  A    between atoms: C10_14  and  C11_15 
REMARK    3  A    between atoms: C11_15  and  C12_16 
REMARK    4  A    between atoms: C11_15  and  N3_19 
REMARK       I    between atoms: N3_19  and  C13_20 
REMARK    5  A    between atoms: N3_19  and  C14_23 
ROOT
HETATM    1  C1  UNL     1       4.256   1.615  22.815  1.00  0.00     0.070 C 
HETATM    2  C2  UNL     1       5.169   2.382  21.935  1.00  0.00     0.029 A 
HETATM    3  N1  UNL     1       6.071   1.721  21.195  1.00  0.00    -0.358 N 
ATOM      4  H1  UNL     1       6.121   0.704  21.245  1.00  0.00     0.166 HD
HETATM    5  C3  UNL     1       6.911   2.392  20.387  1.00  0.00     0.045 A 
HETATM    6  C4  UNL     1       7.846   1.695  19.622  1.00  0.00     0.030 A 
HETATM    7  C5  UNL     1       8.688   2.391  18.812  1.00  0.00     0.002 A 
HETATM    8  C6  UNL     1       8.657   3.760  18.715  1.00  0.00     0.001 A 
HETATM    9  C7  UNL     1       7.710   4.424  19.495  1.00  0.00     0.016 A 
HETATM   10  C8  UNL     1       6.848   3.760  20.319  1.00  0.00     0.019 A 
HETATM   11  C9  UNL     1       5.922   4.516  21.073  1.00  0.00     0.063 A 
HETATM   12  N2  UNL     1       5.947   5.720  20.942  1.00  0.00    -0.386 N 
ATOM     13  H2  UNL     1       6.687   5.912  20.268  1.00  0.00     0.159 HD
HETATM   14  C17 UNL     1       5.090   3.779  21.878  1.00  0.00     0.094 A 
HETATM   15  C18 UNL     1       4.114   4.433  22.682  1.00  0.00     0.103 C 
HETATM   16  N5  UNL     1       3.324   4.929  23.329  1.00  0.00    -0.191 NA
ENDROOT
BRANCH  12  17
HETATM   17  C10 UNL     1       5.431   6.938  21.290  1.00  0.00     0.147 C 
BRANCH  17  18
HETATM   18  C11 UNL     1       6.156   7.529  22.508  1.00  0.00     0.131 C 
BRANCH  18  19
HETATM   19  C12 UNL     1       5.222   8.306  23.372  1.00  0.00     0.154 C 
HETATM   20 BR1  UNL     1       3.581   8.611  22.437  1.00  0.00    -0.077 Br
HETATM   21 BR2  UNL     1       4.987   7.688  25.158  1.00  0.00    -0.077 Br
ENDBRANCH  18  19
BRANCH  18  22
HETATM   22  N3  UNL     1       7.352   8.233  22.083  1.00  0.00    -0.324 N 
HETATM   23  C13 UNL     1       8.520   8.218  22.879  1.00  0.00     0.331 C 
HETATM   24  N4  UNL     1       8.594   7.526  24.139  1.00  0.00    -0.040 NA
HETATM   25  O1  UNL     1       9.560   8.807  22.530  1.00  0.00    -0.251 OA
BRANCH  22  26
HETATM   26  C14 UNL     1       7.453   8.959  20.844  1.00  0.00     0.081 C 
HETATM   27  C15 UNL     1       8.623   8.438  19.992  1.00  0.00     0.032 C 
HETATM   28  C16 UNL     1       7.771  10.399  21.154  1.00  0.00     0.032 C 
ENDBRANCH  22  26
ENDBRANCH  18  22
ENDBRANCH  17  18
ENDBRANCH  12  17
TORSDOF 5
ENDMDL
MODEL 2
REMARK VINA RESULT: -7.257612481      1.633      2.053
REMARK  5 active torsions:
REMARK  status: ('A' for Active; 'I' for Inactive)
REMARK    1  A    between atoms: N2_12  and  C10_14 
REMARK    2  A    between atoms: C10_14  and  C11_15 
REMARK    3  A    between atoms: C11_15  and  C12_16 
REMARK    4  A    between atoms: C11_15  and  N3_19 
REMARK       I    between atoms: N3_19  and  C13_20 
REMARK    5  A    between atoms: N3_19  and  C14_23 
ROOT
HETATM    1  C1  UNL     1       4.144   1.252  22.598  1.00  0.00     0.070 C 
HETATM    2  C2  UNL     1       5.095   2.130  21.876  1.00  0.00     0.029 A 
HETATM    3  N1  UNL     1       5.927   1.588  20.974  1.00  0.00    -0.358 N 
ATOM      4  H1  UNL     1       5.899   0.584  20.797  1.00  0.00     0.166 HD
HETATM    5  C3  UNL     1       6.799   2.361  20.303  1.00  0.00     0.045 A 
HETATM    6  C4  UNL     1       7.661   1.788  19.368  1.00  0.00     0.030 A 
HETATM    7  C5  UNL     1       8.536   2.586  18.700  1.00  0.00     0.002 A 
HETATM    8  C6  UNL     1       8.609   3.941  18.909  1.00  0.00     0.001 A 
HETATM    9  C7  UNL     1       7.733   4.480  19.851  1.00  0.00     0.016 A 
HETATM   10  C8  UNL     1       6.841   3.711  20.541  1.00  0.00     0.019 A 
HETATM   11  C9  UNL     1       5.992   4.343  21.477  1.00  0.00     0.063 A 
HETATM   12  N2  UNL     1       6.107   5.541  21.614  1.00  0.00    -0.386 N 
ATOM     13  H2  UNL     1       6.845   5.826  20.971  1.00  0.00     0.159 HD
HETATM   14  C17 UNL     1       5.123   3.506  22.131  1.00  0.00     0.094 A 
HETATM   15  C18 UNL     1       4.217   4.031  23.096  1.00  0.00     0.103 C 
HETATM   16  N5  UNL     1       3.482   4.425  23.865  1.00  0.00    -0.191 NA
ENDROOT
BRANCH  12  17
HETATM   17  C10 UNL     1       5.694   6.685  22.242  1.00  0.00     0.147 C 
BRANCH  17  18
HETATM   18  C11 UNL     1       6.810   7.738  22.283  1.00  0.00     0.131 C 
BRANCH  18  19
HETATM   19  C12 UNL     1       7.017   8.256  23.666  1.00  0.00     0.154 C 
HETATM   20 BR1  UNL     1       5.902   7.295  24.888  1.00  0.00    -0.077 Br
HETATM   21 BR2  UNL     1       8.819   8.444  24.252  1.00  0.00    -0.077 Br
ENDBRANCH  18  19
BRANCH  18  22
HETATM   22  N3  UNL     1       6.584   8.745  21.262  1.00  0.00    -0.324 N 
HETATM   23  C13 UNL     1       5.659   9.792  21.472  1.00  0.00     0.331 C 
HETATM   24  N4  UNL     1       4.890   9.918  22.684  1.00  0.00    -0.040 NA
HETATM   25  O1  UNL     1       5.456  10.671  20.615  1.00  0.00    -0.251 OA
BRANCH  22  26
HETATM   26  C14 UNL     1       7.281   8.774  20.003  1.00  0.00     0.081 C 
HETATM   27  C15 UNL     1       6.545   7.935  18.944  1.00  0.00     0.032 C 
HETATM   28  C16 UNL     1       8.630   8.128  20.184  1.00  0.00     0.032 C 
ENDBRANCH  22  26
ENDBRANCH  18  22
ENDBRANCH  17  18
ENDBRANCH  12  17
TORSDOF 5
ENDMDL
MODEL 3
REMARK VINA RESULT: -7.210513465      4.037      5.991
REMARK  5 active torsions:
REMARK  status: ('A' for Active; 'I' for Inactive)
REMARK    1  A    between atoms: N2_12  and  C10_14 
REMARK    2  A    between atoms: C10_14  and  C11_15 
REMARK    3  A    between atoms: C11_15  and  C12_16 
REMARK    4  A    between atoms: C11_15  and  N3_19 
REMARK       I    between atoms: N3_19  and  C13_20 
REMARK    5  A    between atoms: N3_19  and  C14_23 
ROOT
HETATM    1  C1  UNL     1       5.473  -2.007  14.877  1.00  0.00     0.070 C 
HETATM    2  C2  UNL     1       6.237  -1.175  15.836  1.00  0.00     0.029 A 
HETATM    3  N1  UNL     1       7.563  -1.346  15.938  1.00  0.00    -0.358 N 
ATOM      4  H1  UNL     1       8.031  -2.044  15.359  1.00  0.00     0.166 HD
HETATM    5  C3  UNL     1       8.281  -0.604  16.799  1.00  0.00     0.045 A 
HETATM    6  C4  UNL     1       9.660  -0.790  16.897  1.00  0.00     0.030 A 
HETATM    7  C5  UNL     1      10.369  -0.030  17.774  1.00  0.00     0.002 A 
HETATM    8  C6  UNL     1       9.780   0.919  18.574  1.00  0.00     0.001 A 
HETATM    9  C7  UNL     1       8.400   1.078  18.449  1.00  0.00     0.016 A 
HETATM   10  C8  UNL     1       7.656   0.334  17.580  1.00  0.00     0.019 A 
HETATM   11  C9  UNL     1       6.263   0.564  17.522  1.00  0.00     0.063 A 
HETATM   12  N2  UNL     1       5.806   1.414  18.253  1.00  0.00    -0.386 N 
ATOM     13  H2  UNL     1       6.599   1.788  18.775  1.00  0.00     0.159 HD
HETATM   14  C17 UNL     1       5.582  -0.222  16.625  1.00  0.00     0.094 A 
HETATM   15  C18 UNL     1       4.173  -0.078  16.478  1.00  0.00     0.103 C 
HETATM   16  N5  UNL     1       3.051   0.021  16.337  1.00  0.00    -0.191 NA
ENDROOT
BRANCH  12  17
HETATM   17  C10 UNL     1       4.708   2.100  18.696  1.00  0.00     0.147 C 
BRANCH  17  18
HETATM   18  C11 UNL     1       4.971   2.764  20.055  1.00  0.00     0.131 C 
BRANCH  18  19
HETATM   19  C12 UNL     1       3.851   2.515  21.007  1.00  0.00     0.154 C 
HETATM   20 BR1  UNL     1       3.140   0.762  20.720  1.00  0.00    -0.077 Br
HETATM   21 BR2  UNL     1       4.172   2.926  22.839  1.00  0.00    -0.077 Br
ENDBRANCH  18  19
BRANCH  18  22
HETATM   22  N3  UNL     1       5.338   4.156  19.867  1.00  0.00    -0.324 N 
HETATM   23  C13 UNL     1       4.360   5.124  19.544  1.00  0.00     0.331 C 
HETATM   24  N4  UNL     1       2.968   4.796  19.376  1.00  0.00    -0.040 NA
HETATM   25  O1  UNL     1       4.650   6.324  19.388  1.00  0.00    -0.251 OA
BRANCH  22  26
HETATM   26  C14 UNL     1       6.681   4.654  20.015  1.00  0.00     0.081 C 
HETATM   27  C15 UNL     1       7.420   4.660  18.666  1.00  0.00     0.032 C 
HETATM   28  C16 UNL     1       7.447   3.714  20.908  1.00  0.00     0.032 C 
ENDBRANCH  22  26
ENDBRANCH  18  22
ENDBRANCH  17  18
ENDBRANCH  12  17
TORSDOF 5
ENDMDL
MODEL 4
REMARK VINA RESULT: -7.175309580      1.536      2.097
REMARK  5 active torsions:
REMARK  status: ('A' for Active; 'I' for Inactive)
REMARK    1  A    between atoms: N2_12  and  C10_14 
REMARK    2  A    between atoms: C10_14  and  C11_15 
REMARK    3  A    between atoms: C11_15  and  C12_16 
REMARK    4  A    between atoms: C11_15  and  N3_19 
REMARK       I    between atoms: N3_19  and  C13_20 
REMARK    5  A    between atoms: N3_19  and  C14_23 
ROOT
HETATM    1  C1  UNL     1       4.260   1.659  22.637  1.00  0.00     0.070 C 
HETATM    2  C2  UNL     1       5.271   2.359  21.810  1.00  0.00     0.029 A 
HETATM    3  N1  UNL     1       6.057   1.643  20.993  1.00  0.00    -0.358 N 
ATOM      4  H1  UNL     1       5.953   0.629  20.950  1.00  0.00     0.166 HD
HETATM    5  C3  UNL     1       6.982   2.252  20.231  1.00  0.00     0.045 A 
HETATM    6  C4  UNL     1       7.794   1.498  19.385  1.00  0.00     0.030 A 
HETATM    7  C5  UNL     1       8.724   2.133  18.623  1.00  0.00     0.002 A 
HETATM    8  C6  UNL     1       8.899   3.495  18.651  1.00  0.00     0.001 A 
HETATM    9  C7  UNL     1       8.070   4.217  19.509  1.00  0.00     0.016 A 
HETATM   10  C8  UNL     1       7.125   3.615  20.289  1.00  0.00     0.019 A 
HETATM   11  C9  UNL     1       6.330   4.428  21.129  1.00  0.00     0.063 A 
HETATM   12  N2  UNL     1       6.535   5.621  21.107  1.00  0.00    -0.386 N 
ATOM     13  H2  UNL     1       7.290   5.763  20.437  1.00  0.00     0.159 HD
HETATM   14  C17 UNL     1       5.403   3.751  21.882  1.00  0.00     0.094 A 
HETATM   15  C18 UNL     1       4.544   4.466  22.764  1.00  0.00     0.103 C 
HETATM   16  N5  UNL     1       3.843   5.012  23.470  1.00  0.00    -0.191 NA
ENDROOT
BRANCH  12  17
HETATM   17  C10 UNL     1       6.211   6.865  21.576  1.00  0.00     0.147 C 
BRANCH  17  18
HETATM   18  C11 UNL     1       7.461   7.645  22.009  1.00  0.00     0.131 C 
BRANCH  18  19
HETATM   19  C12 UNL     1       7.714   7.495  23.471  1.00  0.00     0.154 C 
HETATM   20 BR1  UNL     1       9.249   8.524  23.968  1.00  0.00    -0.077 Br
HETATM   21 BR2  UNL     1       6.222   7.729  24.631  1.00  0.00    -0.077 Br
ENDBRANCH  18  19
BRANCH  18  22
HETATM   22  N3  UNL     1       7.392   9.009  21.519  1.00  0.00    -0.324 N 
HETATM   23  C13 UNL     1       8.006   9.370  20.298  1.00  0.00     0.331 C 
HETATM   24  N4  UNL     1       8.730   8.429  19.484  1.00  0.00    -0.040 NA
HETATM   25  O1  UNL     1       7.952  10.531  19.854  1.00  0.00    -0.251 OA
BRANCH  22  26
HETATM   26  C14 UNL     1       6.695  10.068  22.201  1.00  0.00     0.081 C 
HETATM   27  C15 UNL     1       5.375  10.408  21.488  1.00  0.00     0.032 C 
HETATM   28  C16 UNL     1       7.536  11.316  22.141  1.00  0.00     0.032 C 
ENDBRANCH  22  26
ENDBRANCH  18  22
ENDBRANCH  17  18
ENDBRANCH  12  17
TORSDOF 5
ENDMDL
MODEL 5
REMARK VINA RESULT: -7.096163827      1.168      1.823
REMARK  5 active torsions:
REMARK  status: ('A' for Active; 'I' for Inactive)
REMARK    1  A    between atoms: N2_12  and  C10_14 
REMARK    2  A    between atoms: C10_14  and  C11_15 
REMARK    3  A    between atoms: C11_15  and  C12_16 
REMARK    4  A    between atoms: C11_15  and  N3_19 
REMARK       I    between atoms: N3_19  and  C13_20 
REMARK    5  A    between atoms: N3_19  and  C14_23 
ROOT
HETATM    1  C1  UNL     1       3.882   2.761  23.036  1.00  0.00     0.070 C 
HETATM    2  C2  UNL     1       4.871   3.340  22.097  1.00  0.00     0.029 A 
HETATM    3  N1  UNL     1       5.724   2.523  21.460  1.00  0.00    -0.358 N 
ATOM      4  H1  UNL     1       5.684   1.518  21.628  1.00  0.00     0.166 HD
HETATM    5  C3  UNL     1       6.631   3.022  20.603  1.00  0.00     0.045 A 
HETATM    6  C4  UNL     1       7.513   2.163  19.945  1.00  0.00     0.030 A 
HETATM    7  C5  UNL     1       8.424   2.686  19.082  1.00  0.00     0.002 A 
HETATM    8  C6  UNL     1       8.514   4.033  18.828  1.00  0.00     0.001 A 
HETATM    9  C7  UNL     1       7.617   4.861  19.502  1.00  0.00     0.016 A 
HETATM   10  C8  UNL     1       6.689   4.373  20.376  1.00  0.00     0.019 A 
HETATM   11  C9  UNL     1       5.821   5.287  21.014  1.00  0.00     0.063 A 
HETATM   12  N2  UNL     1       5.953   6.461  20.747  1.00  0.00    -0.386 N 
ATOM     13  H2  UNL     1       6.717   6.510  20.074  1.00  0.00     0.159 HD
HETATM   14  C17 UNL     1       4.916   4.722  21.878  1.00  0.00     0.094 A 
HETATM   15  C18 UNL     1       3.989   5.546  22.577  1.00  0.00     0.103 C 
HETATM   16  N5  UNL     1       3.235   6.179  23.142  1.00  0.00    -0.191 NA
ENDROOT
BRANCH  12  17
HETATM   17  C10 UNL     1       5.540   7.751  20.940  1.00  0.00     0.147 C 
BRANCH  17  18
HETATM   18  C11 UNL     1       6.115   8.338  22.237  1.00  0.00     0.131 C 
BRANCH  18  19
HETATM   19  C12 UNL     1       5.224   9.394  22.797  1.00  0.00     0.154 C 
HETATM   20 BR1  UNL     1       3.741   9.676  21.623  1.00  0.00    -0.077 Br
HETATM   21 BR2  UNL     1       4.734   9.223  24.629  1.00  0.00    -0.077 Br
ENDBRANCH  18  19
BRANCH  18  22
HETATM   22  N3  UNL     1       7.500   8.724  22.039  1.00  0.00    -0.324 N 
HETATM   23  C13 UNL     1       7.920   9.310  20.823  1.00  0.00     0.331 C 
HETATM   24  N4  UNL     1       7.021   9.548  19.724  1.00  0.00    -0.040 NA
HETATM   25  O1  UNL     1       9.100   9.657  20.635  1.00  0.00    -0.251 OA
BRANCH  22  26
HETATM   26  C14 UNL     1       8.522   8.571  23.041  1.00  0.00     0.081 C 
HETATM   27  C15 UNL     1       8.123   7.509  24.080  1.00  0.00     0.032 C 
HETATM   28  C16 UNL     1       8.652   9.867  23.798  1.00  0.00     0.032 C 
ENDBRANCH  22  26
ENDBRANCH  18  22
ENDBRANCH  17  18
ENDBRANCH  12  17
TORSDOF 5
ENDMDL
