MODEL 1
REMARK VINA RESULT: -9.056176273      0.000      0.000
REMARK  8 active torsions:
REMARK  status: ('A' for Active; 'I' for Inactive)
REMARK    1  A    between atoms: C2_2  and  N1_4 
REMARK       I    between atoms: C4_6  and  N2_7 
REMARK       I    between atoms: C4_6  and  N5_33 
REMARK    2  A    between atoms: N2_7  and  C5_9 
REMARK    3  A    between atoms: C5_9  and  C6_10 
REMARK    4  A    between atoms: C8_12  and  C9_13 
REMARK    5  A    between atoms: C9_13  and  O1_14 
REMARK    6  A    between atoms: C9_13  and  N3_16 
REMARK       I    between atoms: N4_19  and  C12_20 
REMARK    7  A    between atoms: C12_20  and  C13_22 
REMARK    8  A    between atoms: N5_33  and  C22_35 
ROOT
HETATM    1  C6  UNL     1       5.695   3.734  17.919  1.00  0.00     0.005 C 
HETATM    2  C7  UNL     1       6.861   4.716  18.143  1.00  0.00     0.019 C 
HETATM    3  C8  UNL     1       5.836   5.809  18.135  1.00  0.00     0.061 C 
HETATM    4  C21 UNL     1       4.782   4.804  18.518  1.00  0.00     0.019 C 
ENDROOT
BRANCH   3   5
HETATM    5  C9  UNL     1       6.014   7.001  18.932  1.00  0.00     0.117 C 
BRANCH   5   6
HETATM    6  O1  UNL     1       6.338   8.077  18.239  1.00  0.00    -0.349 OA
ATOM      7  H1  UNL     1       7.272   8.198  18.116  1.00  0.00     0.219 HD
ENDBRANCH   5   6
BRANCH   5   8
HETATM    8  N3  UNL     1       5.896   7.208  20.303  1.00  0.00    -0.362 N 
HETATM    9  C10 UNL     1       5.223   8.312  20.927  1.00  0.00     0.144 C 
HETATM   10  C11 UNL     1       5.474   8.355  22.435  1.00  0.00     0.145 C 
HETATM   11  N4  UNL     1       6.803   8.001  22.817  1.00  0.00    -0.349 N 
HETATM   12  C12 UNL     1       7.362   8.586  23.987  1.00  0.00     0.224 C 
HETATM   13  C19 UNL     1       7.566   7.051  22.059  1.00  0.00     0.145 C 
HETATM   14  O2  UNL     1       6.675   9.409  24.684  1.00  0.00    -0.273 OA
HETATM   15  C20 UNL     1       6.520   6.254  21.248  1.00  0.00     0.144 C 
BRANCH  12  16
HETATM   16  C13 UNL     1       8.725   8.282  24.437  1.00  0.00     0.078 C 
HETATM   17  C14 UNL     1       8.774   8.384  25.977  1.00  0.00     0.020 C 
HETATM   18  C15 UNL     1      10.084   7.729  26.366  1.00  0.00     0.080 C 
HETATM   19  C16 UNL     1      11.246   8.534  25.838  1.00  0.00     0.243 C 
HETATM   20  F1  UNL     1      12.385   7.744  25.980  1.00  0.00    -0.206 F 
HETATM   21  F2  UNL     1      11.455   9.675  26.590  1.00  0.00    -0.206 F 
HETATM   22  C17 UNL     1      11.112   8.827  24.362  1.00  0.00     0.080 C 
HETATM   23  C18 UNL     1       9.748   9.304  23.969  1.00  0.00     0.020 C 
ENDBRANCH  12  16
ENDBRANCH   5   8
ENDBRANCH   3   5
BRANCH   1  24
HETATM   24  C5  UNL     1       5.346   3.500  16.482  1.00  0.00     0.142 C 
BRANCH  24  25
HETATM   25  N2  UNL     1       5.722   2.150  16.048  1.00  0.00    -0.226 N 
HETATM   26  C4  UNL     1       6.896   1.944  15.302  1.00  0.00     0.670 C 
HETATM   27  N1  UNL     1       6.856   1.553  14.103  1.00  0.00    -0.223 N 
HETATM   28  N5  UNL     1       8.143   2.197  15.918  1.00  0.00    -0.221 N 
ATOM     29  H1  UNL     1       7.773   1.440  13.670  1.00  0.00     0.178 HD
ATOM     30  H5  UNL     1       8.420   3.176  15.991  1.00  0.00     0.178 HD
ATOM     31  H2  UNL     1       5.129   1.356  16.288  1.00  0.00     0.177 HD
BRANCH  27  32
HETATM   32  C2  UNL     1       5.775   1.243  13.250  1.00  0.00     0.091 C 
HETATM   33  C1  UNL     1       5.712  -0.187  12.770  1.00  0.00     0.032 C 
HETATM   34  C3  UNL     1       5.579   2.149  12.070  1.00  0.00     0.032 C 
ENDBRANCH  27  32
BRANCH  28  35
HETATM   35  C22 UNL     1       9.056   1.245  16.446  1.00  0.00     0.108 A 
HETATM   36  C23 UNL     1       8.618  -0.149  16.766  1.00  0.00     0.037 A 
HETATM   37  C24 UNL     1       9.173   0.782  17.819  1.00  0.00    -0.025 A 
HETATM   38  C25 UNL     1       8.263   1.118  18.949  1.00  0.00     0.017 C 
HETATM   39  C26 UNL     1      10.564   0.310  18.292  1.00  0.00     0.017 C 
ENDBRANCH  28  35
ENDBRANCH  24  25
ENDBRANCH   1  24
TORSDOF 8
ENDMDL
MODEL 2
REMARK VINA RESULT: -8.743790622      4.300      9.198
REMARK  8 active torsions:
REMARK  status: ('A' for Active; 'I' for Inactive)
REMARK    1  A    between atoms: C2_2  and  N1_4 
REMARK       I    between atoms: C4_6  and  N2_7 
REMARK       I    between atoms: C4_6  and  N5_33 
REMARK    2  A    between atoms: N2_7  and  C5_9 
REMARK    3  A    between atoms: C5_9  and  C6_10 
REMARK    4  A    between atoms: C8_12  and  C9_13 
REMARK    5  A    between atoms: C9_13  and  O1_14 
REMARK    6  A    between atoms: C9_13  and  N3_16 
REMARK       I    between atoms: N4_19  and  C12_20 
REMARK    7  A    between atoms: C12_20  and  C13_22 
REMARK    8  A    between atoms: N5_33  and  C22_35 
ROOT
HETATM    1  C6  UNL     1       5.023   8.772  23.804  1.00  0.00     0.005 C 
HETATM    2  C7  UNL     1       3.541   8.367  23.686  1.00  0.00     0.019 C 
HETATM    3  C8  UNL     1       3.929   7.610  22.453  1.00  0.00     0.061 C 
HETATM    4  C21 UNL     1       5.346   7.539  22.959  1.00  0.00     0.019 C 
ENDROOT
BRANCH   3   5
HETATM    5  C9  UNL     1       3.240   6.396  22.078  1.00  0.00     0.117 C 
BRANCH   5   6
HETATM    6  O1  UNL     1       1.962   6.560  21.789  1.00  0.00    -0.349 OA
ATOM      7  H1  UNL     1       1.656   6.039  21.056  1.00  0.00     0.219 HD
ENDBRANCH   5   6
BRANCH   5   8
HETATM    8  N3  UNL     1       3.696   5.086  21.964  1.00  0.00    -0.362 N 
HETATM    9  C10 UNL     1       4.300   4.317  23.015  1.00  0.00     0.144 C 
HETATM   10  C11 UNL     1       4.888   3.004  22.496  1.00  0.00     0.145 C 
HETATM   11  N4  UNL     1       5.512   3.107  21.216  1.00  0.00    -0.349 N 
HETATM   12  C12 UNL     1       6.602   2.246  20.910  1.00  0.00     0.224 C 
HETATM   13  C19 UNL     1       5.042   4.041  20.233  1.00  0.00     0.145 C 
HETATM   14  O2  UNL     1       7.006   1.390  21.771  1.00  0.00    -0.273 OA
HETATM   15  C20 UNL     1       3.598   4.383  20.664  1.00  0.00     0.144 C 
BRANCH  12  16
HETATM   16  C13 UNL     1       7.303   2.301  19.622  1.00  0.00     0.078 C 
HETATM   17  C14 UNL     1       8.141   1.016  19.458  1.00  0.00     0.020 C 
HETATM   18  C15 UNL     1       8.536   0.996  17.995  1.00  0.00     0.080 C 
HETATM   19  C16 UNL     1       9.452   2.156  17.687  1.00  0.00     0.243 C 
HETATM   20  F1  UNL     1       9.543   2.243  16.300  1.00  0.00    -0.206 F 
HETATM   21  F2  UNL     1      10.731   1.931  18.160  1.00  0.00    -0.206 F 
HETATM   22  C17 UNL     1       8.880   3.473  18.160  1.00  0.00     0.080 C 
HETATM   23  C18 UNL     1       8.330   3.420  19.551  1.00  0.00     0.020 C 
ENDBRANCH  12  16
ENDBRANCH   5   8
ENDBRANCH   3   5
BRANCH   1  24
HETATM   24  C5  UNL     1       5.388  10.020  23.060  1.00  0.00     0.142 C 
BRANCH  24  25
HETATM   25  N2  UNL     1       6.638   9.856  22.311  1.00  0.00    -0.226 N 
HETATM   26  C4  UNL     1       7.753  10.660  22.604  1.00  0.00     0.670 C 
HETATM   27  N1  UNL     1       8.194  11.504  21.775  1.00  0.00    -0.223 N 
HETATM   28  N5  UNL     1       8.379  10.520  23.864  1.00  0.00    -0.221 N 
ATOM     29  H1  UNL     1       9.008  12.025  22.104  1.00  0.00     0.178 HD
ATOM     30  H5  UNL     1       7.911  10.967  24.652  1.00  0.00     0.178 HD
ATOM     31  H2  UNL     1       6.699   9.155  21.573  1.00  0.00     0.177 HD
BRANCH  27  32
HETATM   32  C2  UNL     1       7.769  11.859  20.477  1.00  0.00     0.091 C 
HETATM   33  C1  UNL     1       6.522  12.708  20.409  1.00  0.00     0.032 C 
HETATM   34  C3  UNL     1       7.633  10.735  19.493  1.00  0.00     0.032 C 
ENDBRANCH  27  32
BRANCH  28  35
HETATM   35  C22 UNL     1       9.584   9.827  24.160  1.00  0.00     0.108 A 
HETATM   36  C23 UNL     1       9.899   8.516  23.513  1.00  0.00     0.037 A 
HETATM   37  C24 UNL     1       9.762   8.663  25.011  1.00  0.00    -0.025 A 
HETATM   38  C25 UNL     1       8.685   7.863  25.658  1.00  0.00     0.017 C 
HETATM   39  C26 UNL     1      11.131   8.495  25.706  1.00  0.00     0.017 C 
ENDBRANCH  28  35
ENDBRANCH  24  25
ENDBRANCH   1  24
TORSDOF 8
ENDMDL
MODEL 3
REMARK VINA RESULT: -8.510558898      4.160      9.315
REMARK  8 active torsions:
REMARK  status: ('A' for Active; 'I' for Inactive)
REMARK    1  A    between atoms: C2_2  and  N1_4 
REMARK       I    between atoms: C4_6  and  N2_7 
REMARK       I    between atoms: C4_6  and  N5_33 
REMARK    2  A    between atoms: N2_7  and  C5_9 
REMARK    3  A    between atoms: C5_9  and  C6_10 
REMARK    4  A    between atoms: C8_12  and  C9_13 
REMARK    5  A    between atoms: C9_13  and  O1_14 
REMARK    6  A    between atoms: C9_13  and  N3_16 
REMARK       I    between atoms: N4_19  and  C12_20 
REMARK    7  A    between atoms: C12_20  and  C13_22 
REMARK    8  A    between atoms: N5_33  and  C22_35 
ROOT
HETATM    1  C6  UNL     1       4.840   8.723  24.875  1.00  0.00     0.005 C 
HETATM    2  C7  UNL     1       3.622   8.130  24.141  1.00  0.00     0.019 C 
HETATM    3  C8  UNL     1       4.570   7.148  23.526  1.00  0.00     0.061 C 
HETATM    4  C21 UNL     1       5.520   7.369  24.674  1.00  0.00     0.019 C 
ENDROOT
BRANCH   3   5
HETATM    5  C9  UNL     1       4.144   5.806  23.197  1.00  0.00     0.117 C 
BRANCH   5   6
HETATM    6  O1  UNL     1       3.632   5.132  24.211  1.00  0.00    -0.349 OA
ATOM      7  H1  UNL     1       2.803   5.472  24.528  1.00  0.00     0.219 HD
ENDBRANCH   5   6
BRANCH   5   8
HETATM    8  N3  UNL     1       4.176   5.108  21.993  1.00  0.00    -0.362 N 
HETATM    9  C10 UNL     1       3.374   3.962  21.671  1.00  0.00     0.144 C 
HETATM   10  C11 UNL     1       3.817   3.306  20.362  1.00  0.00     0.145 C 
HETATM   11  N4  UNL     1       5.231   3.286  20.167  1.00  0.00    -0.349 N 
HETATM   12  C12 UNL     1       5.808   2.221  19.421  1.00  0.00     0.224 C 
HETATM   13  C19 UNL     1       6.068   4.330  20.685  1.00  0.00     0.145 C 
HETATM   14  O2  UNL     1       5.063   1.304  18.930  1.00  0.00    -0.273 OA
HETATM   15  C20 UNL     1       5.116   5.523  20.927  1.00  0.00     0.144 C 
BRANCH  12  16
HETATM   16  C13 UNL     1       7.254   2.124  19.189  1.00  0.00     0.078 C 
HETATM   17  C14 UNL     1       7.656   3.168  18.125  1.00  0.00     0.020 C 
HETATM   18  C15 UNL     1       9.168   3.237  18.205  1.00  0.00     0.080 C 
HETATM   19  C16 UNL     1       9.774   1.922  17.778  1.00  0.00     0.243 C 
HETATM   20  F1  UNL     1      11.118   1.957  18.140  1.00  0.00    -0.206 F 
HETATM   21  F2  UNL     1       9.733   1.769  16.404  1.00  0.00    -0.206 F 
HETATM   22  C17 UNL     1       9.165   0.750  18.512  1.00  0.00     0.080 C 
HETATM   23  C18 UNL     1       7.670   0.797  18.576  1.00  0.00     0.020 C 
ENDBRANCH  12  16
ENDBRANCH   5   8
ENDBRANCH   3   5
BRANCH   1  24
HETATM   24  C5  UNL     1       5.568   9.787  24.113  1.00  0.00     0.142 C 
BRANCH  24  25
HETATM   25  N2  UNL     1       6.672   9.228  23.325  1.00  0.00    -0.226 N 
HETATM   26  C4  UNL     1       7.821   9.995  23.067  1.00  0.00     0.670 C 
HETATM   27  N1  UNL     1       8.115  10.371  21.899  1.00  0.00    -0.223 N 
HETATM   28  N5  UNL     1       8.653  10.357  24.152  1.00  0.00    -0.221 N 
ATOM     29  H1  UNL     1       8.973  10.920  21.841  1.00  0.00     0.178 HD
ATOM     30  H5  UNL     1       8.327  11.130  24.732  1.00  0.00     0.178 HD
ATOM     31  H2  UNL     1       6.606   8.277  22.963  1.00  0.00     0.177 HD
BRANCH  27  32
HETATM   32  C2  UNL     1       7.474  10.171  20.657  1.00  0.00     0.091 C 
HETATM   33  C1  UNL     1       8.181   9.240  19.702  1.00  0.00     0.032 C 
HETATM   34  C3  UNL     1       7.078  11.410  19.908  1.00  0.00     0.032 C 
ENDBRANCH  27  32
BRANCH  28  35
HETATM   35  C22 UNL     1       9.890   9.768  24.529  1.00  0.00     0.108 A 
HETATM   36  C23 UNL     1      10.353   8.486  23.913  1.00  0.00     0.037 A 
HETATM   37  C24 UNL     1      10.110   8.625  25.398  1.00  0.00    -0.025 A 
HETATM   38  C25 UNL     1       9.064   7.740  25.982  1.00  0.00     0.017 C 
HETATM   39  C26 UNL     1      11.441   8.574  26.180  1.00  0.00     0.017 C 
ENDBRANCH  28  35
ENDBRANCH  24  25
ENDBRANCH   1  24
TORSDOF 8
ENDMDL
MODEL 4
REMARK VINA RESULT: -8.497932386      4.311      8.995
REMARK  8 active torsions:
REMARK  status: ('A' for Active; 'I' for Inactive)
REMARK    1  A    between atoms: C2_2  and  N1_4 
REMARK       I    between atoms: C4_6  and  N2_7 
REMARK       I    between atoms: C4_6  and  N5_33 
REMARK    2  A    between atoms: N2_7  and  C5_9 
REMARK    3  A    between atoms: C5_9  and  C6_10 
REMARK    4  A    between atoms: C8_12  and  C9_13 
REMARK    5  A    between atoms: C9_13  and  O1_14 
REMARK    6  A    between atoms: C9_13  and  N3_16 
REMARK       I    between atoms: N4_19  and  C12_20 
REMARK    7  A    between atoms: C12_20  and  C13_22 
REMARK    8  A    between atoms: N5_33  and  C22_35 
ROOT
HETATM    1  C6  UNL     1       4.699   9.125  24.323  1.00  0.00     0.005 C 
HETATM    2  C7  UNL     1       3.365   8.941  23.574  1.00  0.00     0.019 C 
HETATM    3  C8  UNL     1       4.016   7.798  22.858  1.00  0.00     0.061 C 
HETATM    4  C21 UNL     1       4.994   7.661  23.996  1.00  0.00     0.019 C 
ENDROOT
BRANCH   3   5
HETATM    5  C9  UNL     1       3.247   6.651  22.432  1.00  0.00     0.117 C 
BRANCH   5   6
HETATM    6  O1  UNL     1       1.976   6.909  22.182  1.00  0.00    -0.349 OA
ATOM      7  H1  UNL     1       1.373   6.570  22.834  1.00  0.00     0.219 HD
ENDBRANCH   5   6
BRANCH   5   8
HETATM    8  N3  UNL     1       3.619   5.325  22.235  1.00  0.00    -0.362 N 
HETATM    9  C10 UNL     1       4.159   4.451  23.237  1.00  0.00     0.144 C 
HETATM   10  C11 UNL     1       4.667   3.139  22.637  1.00  0.00     0.145 C 
HETATM   11  N4  UNL     1       5.313   3.286  21.373  1.00  0.00    -0.349 N 
HETATM   12  C12 UNL     1       6.350   2.378  21.019  1.00  0.00     0.224 C 
HETATM   13  C19 UNL     1       4.917   4.311  20.450  1.00  0.00     0.145 C 
HETATM   14  O2  UNL     1       6.686   1.443  21.825  1.00  0.00    -0.273 OA
HETATM   15  C20 UNL     1       3.492   4.717  20.890  1.00  0.00     0.144 C 
BRANCH  12  16
HETATM   16  C13 UNL     1       7.069   2.472  19.744  1.00  0.00     0.078 C 
HETATM   17  C14 UNL     1       7.868   1.169  19.527  1.00  0.00     0.020 C 
HETATM   18  C15 UNL     1       8.282   1.208  18.070  1.00  0.00     0.080 C 
HETATM   19  C16 UNL     1       9.238   2.350  17.830  1.00  0.00     0.243 C 
HETATM   20  F1  UNL     1       9.352   2.502  16.450  1.00  0.00    -0.206 F 
HETATM   21  F2  UNL     1      10.503   2.061  18.306  1.00  0.00    -0.206 F 
HETATM   22  C17 UNL     1       8.703   3.661  18.359  1.00  0.00     0.080 C 
HETATM   23  C18 UNL     1       8.132   3.559  19.739  1.00  0.00     0.020 C 
ENDBRANCH  12  16
ENDBRANCH   5   8
ENDBRANCH   3   5
BRANCH   1  24
HETATM   24  C5  UNL     1       5.682  10.019  23.632  1.00  0.00     0.142 C 
BRANCH  24  25
HETATM   25  N2  UNL     1       6.817   9.261  23.096  1.00  0.00    -0.226 N 
HETATM   26  C4  UNL     1       8.030   9.908  22.803  1.00  0.00     0.670 C 
HETATM   27  N1  UNL     1       8.452  10.014  21.617  1.00  0.00    -0.223 N 
HETATM   28  N5  UNL     1       8.780  10.458  23.868  1.00  0.00    -0.221 N 
ATOM     29  H1  UNL     1       9.343  10.503  21.535  1.00  0.00     0.178 HD
ATOM     30  H5  UNL     1       8.450  11.350  24.237  1.00  0.00     0.178 HD
ATOM     31  H2  UNL     1       6.726   8.258  22.934  1.00  0.00     0.177 HD
BRANCH  27  32
HETATM   32  C2  UNL     1       7.916   9.581  20.386  1.00  0.00     0.091 C 
HETATM   33  C1  UNL     1       8.700   8.502  19.678  1.00  0.00     0.032 C 
HETATM   34  C3  UNL     1       7.582  10.655  19.393  1.00  0.00     0.032 C 
ENDBRANCH  27  32
BRANCH  28  35
HETATM   35  C22 UNL     1       9.939   9.913  24.483  1.00  0.00     0.108 A 
HETATM   36  C23 UNL     1      10.573   8.663  23.961  1.00  0.00     0.037 A 
HETATM   37  C24 UNL     1      10.027   8.764  25.367  1.00  0.00    -0.025 A 
HETATM   38  C25 UNL     1       8.924   7.825  25.716  1.00  0.00     0.017 C 
HETATM   39  C26 UNL     1      11.171   8.752  26.403  1.00  0.00     0.017 C 
ENDBRANCH  28  35
ENDBRANCH  24  25
ENDBRANCH   1  24
TORSDOF 8
ENDMDL
MODEL 5
REMARK VINA RESULT: -8.437837220      3.753      9.740
REMARK  8 active torsions:
REMARK  status: ('A' for Active; 'I' for Inactive)
REMARK    1  A    between atoms: C2_2  and  N1_4 
REMARK       I    between atoms: C4_6  and  N2_7 
REMARK       I    between atoms: C4_6  and  N5_33 
REMARK    2  A    between atoms: N2_7  and  C5_9 
REMARK    3  A    between atoms: C5_9  and  C6_10 
REMARK    4  A    between atoms: C8_12  and  C9_13 
REMARK    5  A    between atoms: C9_13  and  O1_14 
REMARK    6  A    between atoms: C9_13  and  N3_16 
REMARK       I    between atoms: N4_19  and  C12_20 
REMARK    7  A    between atoms: C12_20  and  C13_22 
REMARK    8  A    between atoms: N5_33  and  C22_35 
ROOT
HETATM    1  C6  UNL     1       8.869   8.951  21.362  1.00  0.00     0.005 C 
HETATM    2  C7  UNL     1       7.973   7.718  21.141  1.00  0.00     0.019 C 
HETATM    3  C8  UNL     1       6.807   8.657  21.181  1.00  0.00     0.061 C 
HETATM    4  C21 UNL     1       7.723   9.788  20.792  1.00  0.00     0.019 C 
ENDROOT
BRANCH   3   5
HETATM    5  C9  UNL     1       5.617   8.400  20.402  1.00  0.00     0.117 C 
BRANCH   5   6
HETATM    6  O1  UNL     1       4.791   9.426  20.314  1.00  0.00    -0.349 OA
ATOM      7  H1  UNL     1       5.198  10.233  20.022  1.00  0.00     0.219 HD
ENDBRANCH   5   6
BRANCH   5   8
HETATM    8  N3  UNL     1       5.197   7.257  19.728  1.00  0.00    -0.362 N 
HETATM    9  C10 UNL     1       4.215   6.322  20.199  1.00  0.00     0.144 C 
HETATM   10  C11 UNL     1       4.154   5.069  19.324  1.00  0.00     0.145 C 
HETATM   11  N4  UNL     1       5.426   4.619  18.858  1.00  0.00    -0.349 N 
HETATM   12  C12 UNL     1       5.623   3.229  18.629  1.00  0.00     0.224 C 
HETATM   13  C19 UNL     1       6.491   5.544  18.593  1.00  0.00     0.145 C 
HETATM   14  O2  UNL     1       4.668   2.403  18.833  1.00  0.00    -0.273 OA
HETATM   15  C20 UNL     1       5.797   6.914  18.418  1.00  0.00     0.144 C 
BRANCH  12  16
HETATM   16  C13 UNL     1       6.905   2.688  18.162  1.00  0.00     0.078 C 
HETATM   17  C14 UNL     1       6.839   1.147  18.208  1.00  0.00     0.020 C 
HETATM   18  C15 UNL     1       8.036   0.685  17.400  1.00  0.00     0.080 C 
HETATM   19  C16 UNL     1       9.317   1.088  18.090  1.00  0.00     0.243 C 
HETATM   20  F1  UNL     1      10.349   0.892  17.176  1.00  0.00    -0.206 F 
HETATM   21  F2  UNL     1       9.585   0.276  19.176  1.00  0.00    -0.206 F 
HETATM   22  C17 UNL     1       9.335   2.557  18.444  1.00  0.00     0.080 C 
HETATM   23  C18 UNL     1       8.066   3.033  19.080  1.00  0.00     0.020 C 
ENDBRANCH  12  16
ENDBRANCH   5   8
ENDBRANCH   3   5
BRANCH   1  24
HETATM   24  C5  UNL     1       9.103   9.302  22.799  1.00  0.00     0.142 C 
BRANCH  24  25
HETATM   25  N2  UNL     1       8.858   8.156  23.681  1.00  0.00    -0.226 N 
HETATM   26  C4  UNL     1       8.245   8.340  24.932  1.00  0.00     0.670 C 
HETATM   27  N1  UNL     1       8.870   8.133  26.010  1.00  0.00    -0.223 N 
HETATM   28  N5  UNL     1       6.902   8.779  24.972  1.00  0.00    -0.221 N 
ATOM     29  H1  UNL     1       8.317   8.301  26.851  1.00  0.00     0.178 HD
ATOM     30  H5  UNL     1       6.747   9.774  24.806  1.00  0.00     0.178 HD
ATOM     31  H2  UNL     1       9.132   7.220  23.384  1.00  0.00     0.177 HD
BRANCH  27  32
HETATM   32  C2  UNL     1      10.193   7.712  26.264  1.00  0.00     0.091 C 
HETATM   33  C1  UNL     1      10.396   6.940  27.546  1.00  0.00     0.032 C 
HETATM   34  C3  UNL     1      11.255   8.769  26.172  1.00  0.00     0.032 C 
ENDBRANCH  27  32
BRANCH  28  35
HETATM   35  C22 UNL     1       5.742   7.996  25.218  1.00  0.00     0.108 A 
HETATM   36  C23 UNL     1       5.186   7.089  24.166  1.00  0.00     0.037 A 
HETATM   37  C24 UNL     1       4.387   8.231  24.749  1.00  0.00    -0.025 A 
HETATM   38  C25 UNL     1       3.948   9.286  23.794  1.00  0.00     0.017 C 
HETATM   39  C26 UNL     1       3.231   7.702  25.625  1.00  0.00     0.017 C 
ENDBRANCH  28  35
ENDBRANCH  24  25
ENDBRANCH   1  24
TORSDOF 8
ENDMDL
