MODEL 1
REMARK VINA RESULT: -7.213786139      0.000      0.000
REMARK  5 active torsions:
REMARK  status: ('A' for Active; 'I' for Inactive)
REMARK    1  A    between atoms: C2_2  and  C3_3 
REMARK    2  A    between atoms: C3_3  and  N1_4 
REMARK    3  A    between atoms: C6_10  and  N3_11 
REMARK    4  A    between atoms: N3_11  and  N4_12 
REMARK    5  A    between atoms: N4_12  and  C7_14 
ROOT
HETATM    1  C7  UNL     1      20.385 -19.540  42.326  1.00  0.00     0.124 C 
HETATM    2  C8  UNL     1      20.200 -20.471  43.226  1.00  0.00     0.092 A 
HETATM    3  C9  UNL     1      21.165 -21.570  43.347  1.00  0.00     0.120 A 
HETATM    4  N5  UNL     1      22.203 -21.684  42.618  1.00  0.00    -0.385 N 
ATOM      5  H51 UNL     1      22.873 -22.447  42.703  1.00  0.00     0.157 HD
ATOM      6  H52 UNL     1      22.356 -20.962  41.914  1.00  0.00     0.157 HD
HETATM    7  N6  UNL     1      20.951 -22.575  44.328  1.00  0.00    -0.294 N 
ATOM      8  H6  UNL     1      21.618 -23.341  44.417  1.00  0.00     0.172 HD
HETATM    9  C10 UNL     1      19.836 -22.530  45.176  1.00  0.00     0.328 A 
HETATM   10  O2  UNL     1      19.682 -23.446  46.034  1.00  0.00    -0.247 OA
HETATM   11  N7  UNL     1      18.896 -21.486  45.078  1.00  0.00    -0.275 N 
ATOM     12  H7  UNL     1      18.091 -21.475  45.706  1.00  0.00     0.173 HD
HETATM   13  C11 UNL     1      19.051 -20.436  44.109  1.00  0.00     0.264 A 
HETATM   14  O3  UNL     1      18.175 -19.537  44.080  1.00  0.00    -0.267 OA
ENDROOT
BRANCH   1  15
HETATM   15  N4  UNL     1      19.551 -18.427  42.089  1.00  0.00    -0.310 N 
ATOM     16  H4  UNL     1      19.464 -17.704  42.804  1.00  0.00     0.181 HD
BRANCH  15  17
HETATM   17  N3  UNL     1      18.832 -18.296  40.871  1.00  0.00    -0.084 NA
BRANCH  17  18
HETATM   18  C6  UNL     1      17.466 -18.678  41.026  1.00  0.00     0.440 C 
HETATM   19  N1  UNL     1      16.713 -18.627  39.798  1.00  0.00     0.140 N 
HETATM   20  C4  UNL     1      15.368 -18.821  40.247  1.00  0.00     0.379 C 
HETATM   21  C5  UNL     1      15.329 -18.029  41.519  1.00  0.00     0.248 C 
HETATM   22  O1  UNL     1      14.285 -17.685  42.089  1.00  0.00    -0.272 OA
HETATM   23  N2  UNL     1      16.683 -17.797  41.869  1.00  0.00    -0.315 N 
ATOM     24  H2  UNL     1      17.034 -17.144  42.570  1.00  0.00     0.166 HD
BRANCH  19  25
HETATM   25  C3  UNL     1      16.949 -17.495  38.983  1.00  0.00     0.304 C 
BRANCH  25  26
HETATM   26  C2  UNL     1      17.322 -17.752  37.583  1.00  0.00    -0.007 C 
HETATM   27  C1  UNL     1      16.673 -18.557  36.772  1.00  0.00     0.008 C 
ENDBRANCH  25  26
ENDBRANCH  19  25
ENDBRANCH  17  18
ENDBRANCH  15  17
ENDBRANCH   1  15
TORSDOF 5
ENDMDL
MODEL 2
REMARK VINA RESULT: -7.137588028      1.656      6.389
REMARK  5 active torsions:
REMARK  status: ('A' for Active; 'I' for Inactive)
REMARK    1  A    between atoms: C2_2  and  C3_3 
REMARK    2  A    between atoms: C3_3  and  N1_4 
REMARK    3  A    between atoms: C6_10  and  N3_11 
REMARK    4  A    between atoms: N3_11  and  N4_12 
REMARK    5  A    between atoms: N4_12  and  C7_14 
ROOT
HETATM    1  C7  UNL     1      18.291 -18.629  40.324  1.00  0.00     0.124 C 
HETATM    2  C8  UNL     1      17.057 -18.480  40.730  1.00  0.00     0.092 A 
HETATM    3  C9  UNL     1      15.948 -18.775  39.816  1.00  0.00     0.120 A 
HETATM    4  N5  UNL     1      16.107 -19.181  38.619  1.00  0.00    -0.385 N 
ATOM      5  H51 UNL     1      15.337 -19.387  37.983  1.00  0.00     0.157 HD
ATOM      6  H52 UNL     1      17.066 -19.301  38.294  1.00  0.00     0.157 HD
HETATM    7  N6  UNL     1      14.613 -18.608  40.269  1.00  0.00    -0.294 N 
ATOM      8  H6  UNL     1      13.839 -18.813  39.638  1.00  0.00     0.172 HD
HETATM    9  C10 UNL     1      14.343 -18.167  41.571  1.00  0.00     0.328 A 
HETATM   10  O2  UNL     1      13.139 -18.031  41.934  1.00  0.00    -0.247 OA
HETATM   11  N7  UNL     1      15.390 -17.877  42.467  1.00  0.00    -0.275 N 
ATOM     12  H7  UNL     1      15.169 -17.556  43.410  1.00  0.00     0.173 HD
HETATM   13  C11 UNL     1      16.765 -18.025  42.074  1.00  0.00     0.264 A 
HETATM   14  O3  UNL     1      17.645 -17.749  42.925  1.00  0.00    -0.267 OA
ENDROOT
BRANCH   1  15
HETATM   15  N4  UNL     1      19.457 -18.386  41.082  1.00  0.00    -0.310 N 
ATOM     16  H4  UNL     1      19.704 -17.428  41.331  1.00  0.00     0.181 HD
BRANCH  15  17
HETATM   17  N3  UNL     1      20.293 -19.456  41.502  1.00  0.00    -0.084 NA
BRANCH  17  18
HETATM   18  C6  UNL     1      20.180 -19.686  42.906  1.00  0.00     0.440 C 
HETATM   19  N1  UNL     1      21.297 -20.410  43.460  1.00  0.00     0.140 N 
HETATM   20  C4  UNL     1      20.850 -20.708  44.787  1.00  0.00     0.379 C 
HETATM   21  C5  UNL     1      19.403 -21.038  44.579  1.00  0.00     0.248 C 
HETATM   22  O1  UNL     1      18.700 -21.627  45.412  1.00  0.00    -0.272 OA
HETATM   23  N2  UNL     1      19.076 -20.541  43.292  1.00  0.00    -0.315 N 
ATOM     24  H2  UNL     1      18.236 -20.744  42.750  1.00  0.00     0.166 HD
BRANCH  19  25
HETATM   25  C3  UNL     1      21.759 -21.503  42.690  1.00  0.00     0.304 C 
BRANCH  25  26
HETATM   26  C2  UNL     1      22.930 -22.230  43.207  1.00  0.00    -0.007 C 
HETATM   27  C1  UNL     1      23.270 -23.448  42.850  1.00  0.00     0.008 C 
ENDBRANCH  25  26
ENDBRANCH  19  25
ENDBRANCH  17  18
ENDBRANCH  15  17
ENDBRANCH   1  15
TORSDOF 5
ENDMDL
MODEL 3
REMARK VINA RESULT: -7.080553345      2.301      6.077
REMARK  5 active torsions:
REMARK  status: ('A' for Active; 'I' for Inactive)
REMARK    1  A    between atoms: C2_2  and  C3_3 
REMARK    2  A    between atoms: C3_3  and  N1_4 
REMARK    3  A    between atoms: C6_10  and  N3_11 
REMARK    4  A    between atoms: N3_11  and  N4_12 
REMARK    5  A    between atoms: N4_12  and  C7_14 
ROOT
HETATM    1  C7  UNL     1      17.849 -18.542  39.981  1.00  0.00     0.124 C 
HETATM    2  C8  UNL     1      16.643 -18.450  40.478  1.00  0.00     0.092 A 
HETATM    3  C9  UNL     1      15.484 -18.807  39.652  1.00  0.00     0.120 A 
HETATM    4  N5  UNL     1      15.572 -19.218  38.450  1.00  0.00    -0.385 N 
ATOM      5  H51 UNL     1      14.767 -19.467  37.876  1.00  0.00     0.157 HD
ATOM      6  H52 UNL     1      16.509 -19.294  38.054  1.00  0.00     0.157 HD
HETATM    7  N6  UNL     1      14.180 -18.701  40.204  1.00  0.00    -0.294 N 
ATOM      8  H6  UNL     1      13.372 -18.949  39.635  1.00  0.00     0.172 HD
HETATM    9  C10 UNL     1      13.988 -18.259  41.520  1.00  0.00     0.328 A 
HETATM   10  O2  UNL     1      12.810 -18.177  41.972  1.00  0.00    -0.247 OA
HETATM   11  N7  UNL     1      15.084 -17.909  42.332  1.00  0.00    -0.275 N 
ATOM     12  H7  UNL     1      14.919 -17.590  43.287  1.00  0.00     0.173 HD
HETATM   13  C11 UNL     1      16.431 -17.995  41.838  1.00  0.00     0.264 A 
HETATM   14  O3  UNL     1      17.358 -17.668  42.618  1.00  0.00    -0.267 OA
ENDROOT
BRANCH   1  15
HETATM   15  N4  UNL     1      19.055 -18.236  40.646  1.00  0.00    -0.310 N 
ATOM     16  H4  UNL     1      19.250 -17.271  40.914  1.00  0.00     0.181 HD
BRANCH  15  17
HETATM   17  N3  UNL     1      20.003 -19.251  40.950  1.00  0.00    -0.084 NA
BRANCH  17  18
HETATM   18  C6  UNL     1      20.487 -19.131  42.286  1.00  0.00     0.440 C 
HETATM   19  N1  UNL     1      20.037 -20.189  43.157  1.00  0.00     0.140 N 
HETATM   20  C4  UNL     1      20.452 -19.730  44.448  1.00  0.00     0.379 C 
HETATM   21  C5  UNL     1      20.175 -18.259  44.377  1.00  0.00     0.248 C 
HETATM   22  O1  UNL     1      20.117 -17.516  45.367  1.00  0.00    -0.272 OA
HETATM   23  N2  UNL     1      20.013 -17.963  43.000  1.00  0.00    -0.315 N 
ATOM     24  H2  UNL     1      19.639 -17.104  42.595  1.00  0.00     0.166 HD
BRANCH  19  25
HETATM   25  C3  UNL     1      18.676 -20.552  43.023  1.00  0.00     0.304 C 
BRANCH  25  26
HETATM   26  C2  UNL     1      17.996 -21.031  44.237  1.00  0.00    -0.007 C 
HETATM   27  C1  UNL     1      16.748 -20.763  44.549  1.00  0.00     0.008 C 
ENDBRANCH  25  26
ENDBRANCH  19  25
ENDBRANCH  17  18
ENDBRANCH  15  17
ENDBRANCH   1  15
TORSDOF 5
ENDMDL
MODEL 4
REMARK VINA RESULT: -7.025449515      2.663      3.853
REMARK  5 active torsions:
REMARK  status: ('A' for Active; 'I' for Inactive)
REMARK    1  A    between atoms: C2_2  and  C3_3 
REMARK    2  A    between atoms: C3_3  and  N1_4 
REMARK    3  A    between atoms: C6_10  and  N3_11 
REMARK    4  A    between atoms: N3_11  and  N4_12 
REMARK    5  A    between atoms: N4_12  and  C7_14 
ROOT
HETATM    1  C7  UNL     1      17.162 -19.447  43.880  1.00  0.00     0.124 C 
HETATM    2  C8  UNL     1      16.581 -20.601  44.084  1.00  0.00     0.092 A 
HETATM    3  C9  UNL     1      17.369 -21.739  44.571  1.00  0.00     0.120 A 
HETATM    4  N5  UNL     1      18.616 -21.680  44.821  1.00  0.00    -0.385 N 
ATOM      5  H51 UNL     1      19.164 -22.471  45.160  1.00  0.00     0.157 HD
ATOM      6  H52 UNL     1      19.079 -20.784  44.665  1.00  0.00     0.157 HD
HETATM    7  N6  UNL     1      16.725 -22.986  44.787  1.00  0.00    -0.294 N 
ATOM      8  H6  UNL     1      17.268 -23.780  45.126  1.00  0.00     0.172 HD
HETATM    9  C10 UNL     1      15.354 -23.142  44.540  1.00  0.00     0.328 A 
HETATM   10  O2  UNL     1      14.821 -24.270  44.744  1.00  0.00    -0.247 OA
HETATM   11  N7  UNL     1      14.577 -22.066  44.072  1.00  0.00    -0.275 N 
ATOM     12  H7  UNL     1      13.581 -22.204  43.898  1.00  0.00     0.173 HD
HETATM   13  C11 UNL     1      15.164 -20.775  43.833  1.00  0.00     0.264 A 
HETATM   14  O3  UNL     1      14.411 -19.862  43.416  1.00  0.00    -0.267 OA
ENDROOT
BRANCH   1  15
HETATM   15  N4  UNL     1      16.543 -18.267  43.416  1.00  0.00    -0.310 N 
ATOM     16  H4  UNL     1      15.715 -17.913  43.896  1.00  0.00     0.181 HD
BRANCH  15  17
HETATM   17  N3  UNL     1      17.054 -17.565  42.291  1.00  0.00    -0.084 NA
BRANCH  17  18
HETATM   18  C6  UNL     1      16.577 -18.121  41.067  1.00  0.00     0.440 C 
HETATM   19  N1  UNL     1      17.427 -19.158  40.538  1.00  0.00     0.140 N 
HETATM   20  C4  UNL     1      16.875 -19.381  39.236  1.00  0.00     0.379 C 
HETATM   21  C5  UNL     1      16.530 -17.994  38.784  1.00  0.00     0.248 C 
HETATM   22  O1  UNL     1      16.292 -17.689  37.607  1.00  0.00    -0.272 OA
HETATM   23  N2  UNL     1      16.543 -17.194  39.954  1.00  0.00    -0.315 N 
ATOM     24  H2  UNL     1      16.531 -16.175  40.002  1.00  0.00     0.166 HD
BRANCH  19  25
HETATM   25  C3  UNL     1      18.816 -18.898  40.598  1.00  0.00     0.304 C 
BRANCH  25  26
HETATM   26  C2  UNL     1      19.665 -19.959  41.166  1.00  0.00    -0.007 C 
HETATM   27  C1  UNL     1      20.435 -19.814  42.220  1.00  0.00     0.008 C 
ENDBRANCH  25  26
ENDBRANCH  19  25
ENDBRANCH  17  18
ENDBRANCH  15  17
ENDBRANCH   1  15
TORSDOF 5
ENDMDL
MODEL 5
REMARK VINA RESULT: -6.951744293      2.440      6.522
REMARK  5 active torsions:
REMARK  status: ('A' for Active; 'I' for Inactive)
REMARK    1  A    between atoms: C2_2  and  C3_3 
REMARK    2  A    between atoms: C3_3  and  N1_4 
REMARK    3  A    between atoms: C6_10  and  N3_11 
REMARK    4  A    between atoms: N3_11  and  N4_12 
REMARK    5  A    between atoms: N4_12  and  C7_14 
ROOT
HETATM    1  C7  UNL     1      16.666 -18.011  42.443  1.00  0.00     0.124 C 
HETATM    2  C8  UNL     1      16.559 -18.372  41.191  1.00  0.00     0.092 A 
HETATM    3  C9  UNL     1      15.249 -18.752  40.650  1.00  0.00     0.120 A 
HETATM    4  N5  UNL     1      14.175 -18.752  41.334  1.00  0.00    -0.385 N 
ATOM      5  H51 UNL     1      13.264 -19.016  40.959  1.00  0.00     0.157 HD
ATOM      6  H52 UNL     1      14.248 -18.471  42.312  1.00  0.00     0.157 HD
HETATM    7  N6  UNL     1      15.148 -19.143  39.289  1.00  0.00    -0.294 N 
ATOM      8  H6  UNL     1      14.240 -19.407  38.908  1.00  0.00     0.172 HD
HETATM    9  C10 UNL     1      16.278 -19.171  38.461  1.00  0.00     0.328 A 
HETATM   10  O2  UNL     1      16.144 -19.527  37.255  1.00  0.00    -0.247 OA
HETATM   11  N7  UNL     1      17.546 -18.812  38.956  1.00  0.00    -0.275 N 
ATOM     12  H7  UNL     1      18.355 -18.841  38.335  1.00  0.00     0.173 HD
HETATM   13  C11 UNL     1      17.720 -18.405  40.324  1.00  0.00     0.264 A 
HETATM   14  O3  UNL     1      18.879 -18.098  40.696  1.00  0.00    -0.267 OA
ENDROOT
BRANCH   1  15
HETATM   15  N4  UNL     1      17.850 -17.621  43.105  1.00  0.00    -0.310 N 
ATOM     16  H4  UNL     1      18.263 -16.711  42.898  1.00  0.00     0.181 HD
BRANCH  15  17
HETATM   17  N3  UNL     1      18.474 -18.473  44.055  1.00  0.00    -0.084 NA
BRANCH  17  18
HETATM   18  C6  UNL     1      19.643 -19.088  43.516  1.00  0.00     0.440 C 
HETATM   19  N1  UNL     1      19.448 -20.469  43.149  1.00  0.00     0.140 N 
HETATM   20  C4  UNL     1      20.780 -20.908  42.865  1.00  0.00     0.379 C 
HETATM   21  C5  UNL     1      21.585 -20.223  43.927  1.00  0.00     0.248 C 
HETATM   22  O1  UNL     1      22.742 -20.543  44.234  1.00  0.00    -0.272 OA
HETATM   23  N2  UNL     1      20.750 -19.201  44.444  1.00  0.00    -0.315 N 
ATOM     24  H2  UNL     1      20.898 -18.656  45.294  1.00  0.00     0.166 HD
BRANCH  19  25
HETATM   25  C3  UNL     1      18.710 -21.247  44.071  1.00  0.00     0.304 C 
BRANCH  25  26
HETATM   26  C2  UNL     1      17.416 -21.774  43.608  1.00  0.00    -0.007 C 
HETATM   27  C1  UNL     1      16.246 -21.395  44.071  1.00  0.00     0.008 C 
ENDBRANCH  25  26
ENDBRANCH  19  25
ENDBRANCH  17  18
ENDBRANCH  15  17
ENDBRANCH   1  15
TORSDOF 5
ENDMDL
