MODEL 1
REMARK VINA RESULT: -7.170730081      0.000      0.000
REMARK  10 active torsions:
REMARK  status: ('A' for Active; 'I' for Inactive)
REMARK    1  A    between atoms: N1_1  and  C1_4 
REMARK    2  A    between atoms: C3_6  and  N2_7 
REMARK    3  A    between atoms: N2_7  and  N3_9 
REMARK    4  A    between atoms: C5_15  and  N5_16 
REMARK    5  A    between atoms: N5_16  and  C6_18 
REMARK    6  A    between atoms: C6_18  and  C7_19 
REMARK    7  A    between atoms: C7_19  and  O1_20 
REMARK    8  A    between atoms: O1_20  and  C8_21 
REMARK    9  A    between atoms: C8_21  and  C9_22 
REMARK   10  A    between atoms: C9_22  and  O2_23 
ROOT
HETATM    1  C1  UNL     1      20.618 -19.949  44.315  1.00  0.00     0.103 C 
HETATM    2  C2  UNL     1      19.593 -20.875  44.455  1.00  0.00     0.081 C 
HETATM    3  C3  UNL     1      18.271 -20.690  44.147  1.00  0.00     0.080 C 
HETATM    4  C4  UNL     1      17.661 -19.579  43.615  1.00  0.00     0.110 A 
HETATM    5  N4  UNL     1      16.437 -19.509  43.082  1.00  0.00    -0.187 N 
ATOM      6  H4  UNL     1      15.800 -20.303  43.008  1.00  0.00     0.184 HD
HETATM    7  C5  UNL     1      16.146 -18.271  42.655  1.00  0.00     0.679 A 
HETATM    8  N6  UNL     1      17.231 -17.526  42.929  1.00  0.00    -0.184 N 
ATOM      9  H6  UNL     1      17.323 -16.531  42.723  1.00  0.00     0.184 HD
HETATM   10  C10 UNL     1      18.177 -18.281  43.514  1.00  0.00     0.146 A 
HETATM   11  C11 UNL     1      19.413 -17.856  43.933  1.00  0.00     0.276 C 
HETATM   12  O3  UNL     1      19.542 -16.625  44.071  1.00  0.00    -0.266 OA
HETATM   13  N7  UNL     1      20.493 -18.591  44.210  1.00  0.00    -0.308 N 
ATOM     14  H7  UNL     1      21.351 -18.062  44.367  1.00  0.00     0.170 HD
ENDROOT
BRANCH   7  15
HETATM   15  N5  UNL     1      15.081 -17.796  42.091  1.00  0.00    -0.224 N 
ATOM     16  H5  UNL     1      15.048 -16.790  41.929  1.00  0.00     0.177 HD
BRANCH  15  17
HETATM   17  C6  UNL     1      13.952 -18.560  41.678  1.00  0.00     0.164 C 
BRANCH  17  18
HETATM   18  C7  UNL     1      14.175 -18.865  40.180  1.00  0.00     0.188 C 
BRANCH  18  19
HETATM   19  O1  UNL     1      15.508 -19.192  40.079  1.00  0.00    -0.387 OA
BRANCH  19  20
HETATM   20  C8  UNL     1      16.086 -18.966  38.871  1.00  0.00     0.193 C 
BRANCH  20  21
HETATM   21  C9  UNL     1      17.307 -18.097  39.027  1.00  0.00     0.190 C 
BRANCH  21  22
HETATM   22  O2  UNL     1      16.913 -16.936  39.708  1.00  0.00    -0.399 OA
ATOM     23  H2  UNL     1      16.723 -16.273  39.055  1.00  0.00     0.209 HD
ENDBRANCH  21  22
ENDBRANCH  20  21
ENDBRANCH  19  20
ENDBRANCH  18  19
ENDBRANCH  17  18
ENDBRANCH  15  17
ENDBRANCH   7  15
BRANCH   3  24
HETATM   24  N2  UNL     1      17.412 -21.786  44.414  1.00  0.00    -0.305 N 
ATOM     25  H2  UNL     1      16.856 -21.858  45.266  1.00  0.00     0.186 HD
BRANCH  24  26
HETATM   26  N3  UNL     1      17.394 -22.745  43.426  1.00  0.00    -0.345 N 
ATOM     27  H32 UNL     1      18.126 -22.805  42.718  1.00  0.00     0.176 HD
ATOM     28  H31 UNL     1      16.594 -23.377  43.470  1.00  0.00     0.176 HD
ENDBRANCH  24  26
ENDBRANCH   3  24
BRANCH   1  29
HETATM   29  N1  UNL     1      21.827 -20.380  44.276  1.00  0.00    -0.385 N 
ATOM     30  H12 UNL     1      21.969 -21.194  43.679  1.00  0.00     0.157 HD
ATOM     31  H11 UNL     1      22.533 -19.891  44.827  1.00  0.00     0.157 HD
ENDBRANCH   1  29
TORSDOF 10
ENDMDL
MODEL 2
REMARK VINA RESULT: -6.968065417      1.875      2.637
REMARK  10 active torsions:
REMARK  status: ('A' for Active; 'I' for Inactive)
REMARK    1  A    between atoms: N1_1  and  C1_4 
REMARK    2  A    between atoms: C3_6  and  N2_7 
REMARK    3  A    between atoms: N2_7  and  N3_9 
REMARK    4  A    between atoms: C5_15  and  N5_16 
REMARK    5  A    between atoms: N5_16  and  C6_18 
REMARK    6  A    between atoms: C6_18  and  C7_19 
REMARK    7  A    between atoms: C7_19  and  O1_20 
REMARK    8  A    between atoms: O1_20  and  C8_21 
REMARK    9  A    between atoms: C8_21  and  C9_22 
REMARK   10  A    between atoms: C9_22  and  O2_23 
ROOT
HETATM    1  C1  UNL     1      20.733 -19.797  44.039  1.00  0.00     0.103 C 
HETATM    2  C2  UNL     1      19.836 -20.812  43.735  1.00  0.00     0.081 C 
HETATM    3  C3  UNL     1      18.564 -20.665  43.247  1.00  0.00     0.080 C 
HETATM    4  C4  UNL     1      17.896 -19.508  42.926  1.00  0.00     0.110 A 
HETATM    5  N4  UNL     1      16.771 -19.398  42.212  1.00  0.00    -0.187 N 
ATOM      6  H4  UNL     1      16.267 -20.191  41.814  1.00  0.00     0.184 HD
HETATM    7  C5  UNL     1      16.381 -18.121  42.084  1.00  0.00     0.679 A 
HETATM    8  N6  UNL     1      17.298 -17.391  42.742  1.00  0.00    -0.184 N 
ATOM      9  H6  UNL     1      17.283 -16.375  42.829  1.00  0.00     0.184 HD
HETATM   10  C10 UNL     1      18.238 -18.194  43.271  1.00  0.00     0.146 A 
HETATM   11  C11 UNL     1      19.324 -17.798  44.010  1.00  0.00     0.276 C 
HETATM   12  O3  UNL     1      19.260 -16.652  44.492  1.00  0.00    -0.266 OA
HETATM   13  N7  UNL     1      20.440 -18.482  44.277  1.00  0.00    -0.308 N 
ATOM     14  H7  UNL     1      21.183 -17.945  44.725  1.00  0.00     0.170 HD
ENDROOT
BRANCH   7  15
HETATM   15  N5  UNL     1      15.360 -17.601  41.479  1.00  0.00    -0.224 N 
ATOM     16  H5  UNL     1      15.528 -17.156  40.578  1.00  0.00     0.177 HD
BRANCH  15  17
HETATM   17  C6  UNL     1      14.022 -17.600  41.968  1.00  0.00     0.164 C 
BRANCH  17  18
HETATM   18  C7  UNL     1      13.592 -19.083  42.024  1.00  0.00     0.188 C 
BRANCH  18  19
HETATM   19  O1  UNL     1      13.694 -19.432  43.351  1.00  0.00    -0.387 OA
BRANCH  19  20
HETATM   20  C8  UNL     1      14.322 -20.608  43.610  1.00  0.00     0.193 C 
BRANCH  20  21
HETATM   21  C9  UNL     1      14.665 -20.708  45.074  1.00  0.00     0.190 C 
BRANCH  21  22
HETATM   22  O2  UNL     1      15.774 -19.881  45.304  1.00  0.00    -0.399 OA
ATOM     23  H2  UNL     1      15.736 -19.599  46.210  1.00  0.00     0.209 HD
ENDBRANCH  21  22
ENDBRANCH  20  21
ENDBRANCH  19  20
ENDBRANCH  18  19
ENDBRANCH  17  18
ENDBRANCH  15  17
ENDBRANCH   7  15
BRANCH   3  24
HETATM   24  N2  UNL     1      17.834 -21.864  43.049  1.00  0.00    -0.305 N 
ATOM     25  H2  UNL     1      17.623 -22.236  42.123  1.00  0.00     0.186 HD
BRANCH  24  26
HETATM   26  N3  UNL     1      17.434 -22.483  44.212  1.00  0.00    -0.345 N 
ATOM     27  H32 UNL     1      18.032 -22.518  45.038  1.00  0.00     0.176 HD
ATOM     28  H31 UNL     1      16.501 -22.895  44.169  1.00  0.00     0.176 HD
ENDBRANCH  24  26
ENDBRANCH   3  24
BRANCH   1  29
HETATM   29  N1  UNL     1      21.982 -20.089  44.112  1.00  0.00    -0.385 N 
ATOM     30  H12 UNL     1      22.373 -20.496  43.263  1.00  0.00     0.157 HD
ATOM     31  H11 UNL     1      22.473 -19.897  44.984  1.00  0.00     0.157 HD
ENDBRANCH   1  29
TORSDOF 10
ENDMDL
MODEL 3
REMARK VINA RESULT: -6.960591549      3.002      6.740
REMARK  10 active torsions:
REMARK  status: ('A' for Active; 'I' for Inactive)
REMARK    1  A    between atoms: N1_1  and  C1_4 
REMARK    2  A    between atoms: C3_6  and  N2_7 
REMARK    3  A    between atoms: N2_7  and  N3_9 
REMARK    4  A    between atoms: C5_15  and  N5_16 
REMARK    5  A    between atoms: N5_16  and  C6_18 
REMARK    6  A    between atoms: C6_18  and  C7_19 
REMARK    7  A    between atoms: C7_19  and  O1_20 
REMARK    8  A    between atoms: O1_20  and  C8_21 
REMARK    9  A    between atoms: C8_21  and  C9_22 
REMARK   10  A    between atoms: C9_22  and  O2_23 
ROOT
HETATM    1  C1  UNL     1      14.393 -19.097  42.069  1.00  0.00     0.103 C 
HETATM    2  C2  UNL     1      15.069 -18.286  41.167  1.00  0.00     0.081 C 
HETATM    3  C3  UNL     1      16.419 -18.061  41.119  1.00  0.00     0.080 C 
HETATM    4  C4  UNL     1      17.408 -18.589  41.915  1.00  0.00     0.110 A 
HETATM    5  N4  UNL     1      18.725 -18.565  41.688  1.00  0.00    -0.187 N 
ATOM      6  H4  UNL     1      19.156 -18.137  40.868  1.00  0.00     0.184 HD
HETATM    7  C5  UNL     1      19.413 -19.171  42.667  1.00  0.00     0.679 A 
HETATM    8  N6  UNL     1      18.494 -19.596  43.551  1.00  0.00    -0.184 N 
ATOM      9  H6  UNL     1      18.702 -20.099  44.413  1.00  0.00     0.184 HD
HETATM   10  C10 UNL     1      17.260 -19.263  43.134  1.00  0.00     0.146 A 
HETATM   11  C11 UNL     1      16.082 -19.534  43.783  1.00  0.00     0.276 C 
HETATM   12  O3  UNL     1      16.184 -19.822  44.990  1.00  0.00    -0.266 OA
HETATM   13  N7  UNL     1      14.841 -19.528  43.288  1.00  0.00    -0.308 N 
ATOM     14  H7  UNL     1      14.123 -19.899  43.909  1.00  0.00     0.170 HD
ENDROOT
BRANCH   7  15
HETATM   15  N5  UNL     1      20.687 -19.356  42.821  1.00  0.00    -0.224 N 
ATOM     16  H5  UNL     1      21.266 -18.528  42.956  1.00  0.00     0.177 HD
BRANCH  15  17
HETATM   17  C6  UNL     1      21.346 -20.618  42.817  1.00  0.00     0.164 C 
BRANCH  17  18
HETATM   18  C7  UNL     1      21.636 -20.947  44.299  1.00  0.00     0.188 C 
BRANCH  18  19
HETATM   19  O1  UNL     1      22.934 -20.540  44.504  1.00  0.00    -0.387 OA
BRANCH  19  20
HETATM   20  C8  UNL     1      23.833 -21.526  44.760  1.00  0.00     0.193 C 
BRANCH  20  21
HETATM   21  C9  UNL     1      24.474 -21.316  46.108  1.00  0.00     0.190 C 
BRANCH  21  22
HETATM   22  O2  UNL     1      25.161 -20.094  46.062  1.00  0.00    -0.399 OA
ATOM     23  H2  UNL     1      25.576 -19.968  46.906  1.00  0.00     0.209 HD
ENDBRANCH  21  22
ENDBRANCH  20  21
ENDBRANCH  19  20
ENDBRANCH  18  19
ENDBRANCH  17  18
ENDBRANCH  15  17
ENDBRANCH   7  15
BRANCH   3  24
HETATM   24  N2  UNL     1      16.862 -17.160  40.117  1.00  0.00    -0.305 N 
ATOM     25  H2  UNL     1      17.415 -16.329  40.326  1.00  0.00     0.186 HD
BRANCH  24  26
HETATM   26  N3  UNL     1      16.483 -17.503  38.839  1.00  0.00    -0.345 N 
ATOM     27  H32 UNL     1      16.239 -16.799  38.141  1.00  0.00     0.176 HD
ATOM     28  H31 UNL     1      16.470 -18.507  38.660  1.00  0.00     0.176 HD
ENDBRANCH  24  26
ENDBRANCH   3  24
BRANCH   1  29
HETATM   29  N1  UNL     1      13.216 -19.505  41.757  1.00  0.00    -0.385 N 
ATOM     30  H12 UNL     1      12.473 -18.826  41.920  1.00  0.00     0.157 HD
ATOM     31  H11 UNL     1      13.114 -20.448  41.382  1.00  0.00     0.157 HD
ENDBRANCH   1  29
TORSDOF 10
ENDMDL
MODEL 4
REMARK VINA RESULT: -6.852720902      1.359      1.588
REMARK  10 active torsions:
REMARK  status: ('A' for Active; 'I' for Inactive)
REMARK    1  A    between atoms: N1_1  and  C1_4 
REMARK    2  A    between atoms: C3_6  and  N2_7 
REMARK    3  A    between atoms: N2_7  and  N3_9 
REMARK    4  A    between atoms: C5_15  and  N5_16 
REMARK    5  A    between atoms: N5_16  and  C6_18 
REMARK    6  A    between atoms: C6_18  and  C7_19 
REMARK    7  A    between atoms: C7_19  and  O1_20 
REMARK    8  A    between atoms: O1_20  and  C8_21 
REMARK    9  A    between atoms: C8_21  and  C9_22 
REMARK   10  A    between atoms: C9_22  and  O2_23 
ROOT
HETATM    1  C1  UNL     1      20.570 -19.751  44.208  1.00  0.00     0.103 C 
HETATM    2  C2  UNL     1      19.666 -20.795  44.077  1.00  0.00     0.081 C 
HETATM    3  C3  UNL     1      18.392 -20.722  43.576  1.00  0.00     0.080 C 
HETATM    4  C4  UNL     1      17.730 -19.627  43.073  1.00  0.00     0.110 A 
HETATM    5  N4  UNL     1      16.602 -19.628  42.355  1.00  0.00    -0.187 N 
ATOM      6  H4  UNL     1      16.092 -20.472  42.093  1.00  0.00     0.184 HD
HETATM    7  C5  UNL     1      16.220 -18.386  42.021  1.00  0.00     0.679 A 
HETATM    8  N6  UNL     1      17.144 -17.565  42.549  1.00  0.00    -0.184 N 
ATOM      9  H6  UNL     1      17.136 -16.548  42.469  1.00  0.00     0.184 HD
HETATM   10  C10 UNL     1      18.082 -18.277  43.198  1.00  0.00     0.146 A 
HETATM   11  C11 UNL     1      19.173 -17.773  43.858  1.00  0.00     0.276 C 
HETATM   12  O3  UNL     1      19.119 -16.563  44.148  1.00  0.00    -0.266 OA
HETATM   13  N7  UNL     1      20.286 -18.412  44.230  1.00  0.00    -0.308 N 
ATOM     14  H7  UNL     1      21.034 -17.815  44.582  1.00  0.00     0.170 HD
ENDROOT
BRANCH   7  15
HETATM   15  N5  UNL     1      15.199 -17.965  41.343  1.00  0.00    -0.224 N 
ATOM     16  H5  UNL     1      14.805 -17.062  41.605  1.00  0.00     0.177 HD
BRANCH  15  17
HETATM   17  C6  UNL     1      14.580 -18.658  40.263  1.00  0.00     0.164 C 
BRANCH  17  18
HETATM   18  C7  UNL     1      15.724 -19.041  39.298  1.00  0.00     0.188 C 
BRANCH  18  19
HETATM   19  O1  UNL     1      15.746 -18.036  38.358  1.00  0.00    -0.387 OA
BRANCH  19  20
HETATM   20  C8  UNL     1      16.428 -18.306  37.215  1.00  0.00     0.193 C 
BRANCH  20  21
HETATM   21  C9  UNL     1      16.510 -19.794  36.990  1.00  0.00     0.190 C 
BRANCH  21  22
HETATM   22  O2  UNL     1      16.189 -20.035  35.647  1.00  0.00    -0.399 OA
ATOM     23  H2  UNL     1      16.986 -19.931  35.140  1.00  0.00     0.209 HD
ENDBRANCH  21  22
ENDBRANCH  20  21
ENDBRANCH  19  20
ENDBRANCH  18  19
ENDBRANCH  17  18
ENDBRANCH  15  17
ENDBRANCH   7  15
BRANCH   3  24
HETATM   24  N2  UNL     1      17.654 -21.932  43.579  1.00  0.00    -0.305 N 
ATOM     25  H2  UNL     1      16.732 -22.018  43.150  1.00  0.00     0.186 HD
BRANCH  24  26
HETATM   26  N3  UNL     1      18.286 -22.981  44.208  1.00  0.00    -0.345 N 
ATOM     27  H32 UNL     1      18.319 -23.915  43.799  1.00  0.00     0.176 HD
ATOM     28  H31 UNL     1      18.710 -22.739  45.104  1.00  0.00     0.176 HD
ENDBRANCH  24  26
ENDBRANCH   3  24
BRANCH   1  29
HETATM   29  N1  UNL     1      21.817 -20.035  44.323  1.00  0.00    -0.385 N 
ATOM     30  H12 UNL     1      22.451 -19.322  43.963  1.00  0.00     0.157 HD
ATOM     31  H11 UNL     1      22.073 -20.924  44.753  1.00  0.00     0.157 HD
ENDBRANCH   1  29
TORSDOF 10
ENDMDL
MODEL 5
REMARK VINA RESULT: -6.839968696      2.710      6.200
REMARK  10 active torsions:
REMARK  status: ('A' for Active; 'I' for Inactive)
REMARK    1  A    between atoms: N1_1  and  C1_4 
REMARK    2  A    between atoms: C3_6  and  N2_7 
REMARK    3  A    between atoms: N2_7  and  N3_9 
REMARK    4  A    between atoms: C5_15  and  N5_16 
REMARK    5  A    between atoms: N5_16  and  C6_18 
REMARK    6  A    between atoms: C6_18  and  C7_19 
REMARK    7  A    between atoms: C7_19  and  O1_20 
REMARK    8  A    between atoms: O1_20  and  C8_21 
REMARK    9  A    between atoms: C8_21  and  C9_22 
REMARK   10  A    between atoms: C9_22  and  O2_23 
ROOT
HETATM    1  C1  UNL     1      14.408 -19.094  42.116  1.00  0.00     0.103 C 
HETATM    2  C2  UNL     1      15.036 -18.297  41.169  1.00  0.00     0.081 C 
HETATM    3  C3  UNL     1      16.383 -18.087  41.035  1.00  0.00     0.080 C 
HETATM    4  C4  UNL     1      17.413 -18.622  41.772  1.00  0.00     0.110 A 
HETATM    5  N4  UNL     1      18.713 -18.616  41.463  1.00  0.00    -0.187 N 
ATOM      6  H4  UNL     1      19.097 -18.197  40.615  1.00  0.00     0.184 HD
HETATM    7  C5  UNL     1      19.455 -19.224  42.401  1.00  0.00     0.679 A 
HETATM    8  N6  UNL     1      18.587 -19.633  43.343  1.00  0.00    -0.184 N 
ATOM      9  H6  UNL     1      18.843 -20.133  44.195  1.00  0.00     0.184 HD
HETATM   10  C10 UNL     1      17.333 -19.288  43.002  1.00  0.00     0.146 A 
HETATM   11  C11 UNL     1      16.195 -19.540  43.724  1.00  0.00     0.276 C 
HETATM   12  O3  UNL     1      16.369 -19.823  44.925  1.00  0.00    -0.266 OA
HETATM   13  N7  UNL     1      14.926 -19.523  43.307  1.00  0.00    -0.308 N 
ATOM     14  H7  UNL     1      14.243 -19.881  43.975  1.00  0.00     0.170 HD
ENDROOT
BRANCH   7  15
HETATM   15  N5  UNL     1      20.733 -19.423  42.477  1.00  0.00    -0.224 N 
ATOM     16  H5  UNL     1      21.336 -18.602  42.440  1.00  0.00     0.177 HD
BRANCH  15  17
HETATM   17  C6  UNL     1      21.366 -20.692  42.608  1.00  0.00     0.164 C 
BRANCH  17  18
HETATM   18  C7  UNL     1      22.139 -20.641  43.946  1.00  0.00     0.188 C 
BRANCH  18  19
HETATM   19  O1  UNL     1      21.182 -20.840  44.915  1.00  0.00    -0.387 OA
BRANCH  19  20
HETATM   20  C8  UNL     1      21.028 -22.119  45.345  1.00  0.00     0.193 C 
BRANCH  20  21
HETATM   21  C9  UNL     1      19.565 -22.478  45.409  1.00  0.00     0.190 C 
BRANCH  21  22
HETATM   22  O2  UNL     1      18.852 -21.296  45.653  1.00  0.00    -0.399 OA
ATOM     23  H2  UNL     1      18.238 -21.472  46.356  1.00  0.00     0.209 HD
ENDBRANCH  21  22
ENDBRANCH  20  21
ENDBRANCH  19  20
ENDBRANCH  18  19
ENDBRANCH  17  18
ENDBRANCH  15  17
ENDBRANCH   7  15
BRANCH   3  24
HETATM   24  N2  UNL     1      16.773 -17.198  40.002  1.00  0.00    -0.305 N 
ATOM     25  H2  UNL     1      17.277 -16.329  40.181  1.00  0.00     0.186 HD
BRANCH  24  26
HETATM   26  N3  UNL     1      16.414 -17.606  38.737  1.00  0.00    -0.345 N 
ATOM     27  H32 UNL     1      15.480 -17.959  38.528  1.00  0.00     0.176 HD
ATOM     28  H31 UNL     1      17.157 -17.525  38.042  1.00  0.00     0.176 HD
ENDBRANCH  24  26
ENDBRANCH   3  24
BRANCH   1  29
HETATM   29  N1  UNL     1      13.209 -19.490  41.880  1.00  0.00    -0.385 N 
ATOM     30  H12 UNL     1      12.480 -18.844  42.184  1.00  0.00     0.157 HD
ATOM     31  H11 UNL     1      13.079 -20.392  41.422  1.00  0.00     0.157 HD
ENDBRANCH   1  29
TORSDOF 10
ENDMDL
