MODEL 1
REMARK VINA RESULT: -6.726351213      0.000      0.000
REMARK  11 active torsions:
REMARK  status: ('A' for Active; 'I' for Inactive)
REMARK    1  A    between atoms: N1_1  and  C1_5 
REMARK    2  A    between atoms: C1_5  and  C2_6 
REMARK    3  A    between atoms: C2_6  and  C3_7 
REMARK    4  A    between atoms: C3_7  and  C4_8 
REMARK    5  A    between atoms: C4_8  and  N2_9 
REMARK    6  A    between atoms: C5_10  and  O1_11 
REMARK    7  A    between atoms: C6_13  and  C7_14 
REMARK    8  A    between atoms: C7_14  and  N3_15 
REMARK    9  A    between atoms: N3_15  and  N4_17 
REMARK       I    between atoms: N4_17  and  C8_19 
REMARK   10  A    between atoms: C9_22  and  N7_23 
REMARK   11  A    between atoms: N7_23  and  N8_25 
ROOT
HETATM    1  N2  UNL     1      17.753 -19.335  41.010  1.00  0.00    -0.279 N 
HETATM    2  C5  UNL     1      16.897 -19.891  41.883  1.00  0.00     0.162 A 
HETATM    3  C6  UNL     1      15.611 -19.407  42.067  1.00  0.00     0.077 A 
HETATM    4  C9  UNL     1      15.214 -18.314  41.318  1.00  0.00     0.139 A 
HETATM    5  N9  UNL     1      16.111 -17.800  40.462  1.00  0.00    -0.292 N 
ATOM      6  H9  UNL     1      15.828 -16.994  39.904  1.00  0.00     0.172 HD
HETATM    7  C10 UNL     1      17.355 -18.276  40.291  1.00  0.00     0.330 A 
HETATM    8  O2  UNL     1      18.143 -17.716  39.446  1.00  0.00    -0.246 OA
ENDROOT
BRANCH   1   9
HETATM    9  C4  UNL     1      19.082 -19.891  40.868  1.00  0.00     0.136 C 
BRANCH   9  10
HETATM   10  C3  UNL     1      20.103 -19.188  41.697  1.00  0.00     0.022 C 
BRANCH  10  11
HETATM   11  C2  UNL     1      20.761 -20.191  42.611  1.00  0.00     0.029 C 
BRANCH  11  12
HETATM   12  C1  UNL     1      20.387 -19.980  44.060  1.00  0.00     0.229 C 
BRANCH  12  13
HETATM   13  N1  UNL     1      20.457 -18.579  44.433  1.00  0.00    -0.079 N 
ATOM     14  H13 UNL     1      20.861 -18.014  43.684  1.00  0.00     0.274 HD
ATOM     15  H12 UNL     1      19.530 -18.157  44.468  1.00  0.00     0.274 HD
ATOM     16  H11 UNL     1      20.960 -18.447  45.311  1.00  0.00     0.274 HD
ENDBRANCH  12  13
ENDBRANCH  11  12
ENDBRANCH  10  11
ENDBRANCH   9  10
ENDBRANCH   1   9
BRANCH   2  17
HETATM   17  O1  UNL     1      17.275 -20.989  42.644  1.00  0.00    -0.345 OA
ATOM     18  H1  UNL     1      16.696 -21.337  43.312  1.00  0.00     0.219 HD
ENDBRANCH   2  17
BRANCH   3  19
HETATM   19  C7  UNL     1      14.681 -20.008  43.013  1.00  0.00     0.127 C 
BRANCH  19  20
HETATM   20  N3  UNL     1      14.953 -20.204  44.240  1.00  0.00    -0.309 N 
ATOM     21  H3  UNL     1      15.263 -19.423  44.817  1.00  0.00     0.186 HD
BRANCH  20  22
HETATM   22  N4  UNL     1      14.836 -21.459  44.802  1.00  0.00    -0.276 N 
HETATM   23  C8  UNL     1      15.785 -21.974  45.491  1.00  0.00     0.215 C 
HETATM   24  N5  UNL     1      15.663 -23.270  46.071  1.00  0.00    -0.065 NA
HETATM   25  N6  UNL     1      16.988 -21.241  45.681  1.00  0.00    -0.065 NA
ATOM     26  H4  UNL     1      13.974 -21.988  44.665  1.00  0.00     0.189 HD
ENDBRANCH  20  22
ENDBRANCH  19  20
ENDBRANCH   3  19
BRANCH   4  27
HETATM   27  N7  UNL     1      14.027 -17.856  41.478  1.00  0.00    -0.291 N 
ATOM     28  H7  UNL     1      13.253 -18.428  41.140  1.00  0.00     0.188 HD
BRANCH  27  29
HETATM   29  N8  UNL     1      13.715 -16.653  42.070  1.00  0.00    -0.344 N 
ATOM     30  H82 UNL     1      14.405 -15.909  41.975  1.00  0.00     0.176 HD
ATOM     31  H81 UNL     1      12.858 -16.459  42.586  1.00  0.00     0.176 HD
ENDBRANCH  27  29
ENDBRANCH   4  27
TORSDOF 11
ENDMDL
MODEL 2
REMARK VINA RESULT: -6.659335978      2.515      4.748
REMARK  11 active torsions:
REMARK  status: ('A' for Active; 'I' for Inactive)
REMARK    1  A    between atoms: N1_1  and  C1_5 
REMARK    2  A    between atoms: C1_5  and  C2_6 
REMARK    3  A    between atoms: C2_6  and  C3_7 
REMARK    4  A    between atoms: C3_7  and  C4_8 
REMARK    5  A    between atoms: C4_8  and  N2_9 
REMARK    6  A    between atoms: C5_10  and  O1_11 
REMARK    7  A    between atoms: C6_13  and  C7_14 
REMARK    8  A    between atoms: C7_14  and  N3_15 
REMARK    9  A    between atoms: N3_15  and  N4_17 
REMARK       I    between atoms: N4_17  and  C8_19 
REMARK   10  A    between atoms: C9_22  and  N7_23 
REMARK   11  A    between atoms: N7_23  and  N8_25 
ROOT
HETATM    1  N2  UNL     1      18.576 -18.617  42.027  1.00  0.00    -0.279 N 
HETATM    2  C5  UNL     1      17.730 -18.772  40.995  1.00  0.00     0.162 A 
HETATM    3  C6  UNL     1      16.360 -18.616  41.133  1.00  0.00     0.077 A 
HETATM    4  C9  UNL     1      15.864 -18.289  42.382  1.00  0.00     0.139 A 
HETATM    5  N9  UNL     1      16.755 -18.146  43.376  1.00  0.00    -0.292 N 
ATOM      6  H9  UNL     1      16.401 -17.904  44.301  1.00  0.00     0.172 HD
HETATM    7  C10 UNL     1      18.082 -18.300  43.233  1.00  0.00     0.330 A 
HETATM    8  O2  UNL     1      18.856 -18.142  44.244  1.00  0.00    -0.246 OA
ENDROOT
BRANCH   1   9
HETATM    9  C4  UNL     1      19.996 -18.795  41.814  1.00  0.00     0.136 C 
BRANCH   9  10
HETATM   10  C3  UNL     1      20.398 -20.227  41.707  1.00  0.00     0.022 C 
BRANCH  10  11
HETATM   11  C2  UNL     1      21.385 -20.538  42.803  1.00  0.00     0.029 C 
BRANCH  11  12
HETATM   12  C1  UNL     1      20.776 -21.368  43.908  1.00  0.00     0.229 C 
BRANCH  12  13
HETATM   13  N1  UNL     1      20.436 -20.555  45.063  1.00  0.00    -0.079 N 
ATOM     14  H13 UNL     1      20.112 -21.130  45.841  1.00  0.00     0.274 HD
ATOM     15  H12 UNL     1      21.270 -20.157  45.496  1.00  0.00     0.274 HD
ATOM     16  H11 UNL     1      19.758 -19.830  44.827  1.00  0.00     0.274 HD
ENDBRANCH  12  13
ENDBRANCH  11  12
ENDBRANCH  10  11
ENDBRANCH   9  10
ENDBRANCH   1   9
BRANCH   2  17
HETATM   17  O1  UNL     1      18.206 -19.100  39.733  1.00  0.00    -0.345 OA
ATOM     18  H1  UNL     1      17.671 -19.602  39.129  1.00  0.00     0.219 HD
ENDBRANCH   2  17
BRANCH   3  19
HETATM   19  C7  UNL     1      15.441 -18.784  40.015  1.00  0.00     0.127 C 
BRANCH  19  20
HETATM   20  N3  UNL     1      15.664 -18.333  38.846  1.00  0.00    -0.309 N 
ATOM     21  H3  UNL     1      15.785 -17.330  38.710  1.00  0.00     0.186 HD
BRANCH  20  22
HETATM   22  N4  UNL     1      15.745 -19.182  37.761  1.00  0.00    -0.276 N 
HETATM   23  C8  UNL     1      16.538 -18.942  36.783  1.00  0.00     0.215 C 
HETATM   24  N5  UNL     1      16.620 -19.819  35.663  1.00  0.00    -0.065 NA
HETATM   25  N6  UNL     1      17.352 -17.778  36.813  1.00  0.00    -0.065 NA
ATOM     26  H4  UNL     1      15.160 -20.017  37.737  1.00  0.00     0.189 HD
ENDBRANCH  20  22
ENDBRANCH  19  20
ENDBRANCH   3  19
BRANCH   4  27
HETATM   27  N7  UNL     1      14.598 -18.141  42.523  1.00  0.00    -0.291 N 
ATOM     28  H7  UNL     1      14.089 -18.882  43.007  1.00  0.00     0.188 HD
BRANCH  27  29
HETATM   29  N8  UNL     1      13.873 -17.061  42.075  1.00  0.00    -0.344 N 
ATOM     30  H82 UNL     1      13.743 -16.991  41.066  1.00  0.00     0.176 HD
ATOM     31  H81 UNL     1      13.464 -16.341  42.670  1.00  0.00     0.176 HD
ENDBRANCH  27  29
ENDBRANCH   4  27
TORSDOF 11
ENDMDL
MODEL 3
REMARK VINA RESULT: -6.596796771      2.505      5.521
REMARK  11 active torsions:
REMARK  status: ('A' for Active; 'I' for Inactive)
REMARK    1  A    between atoms: N1_1  and  C1_5 
REMARK    2  A    between atoms: C1_5  and  C2_6 
REMARK    3  A    between atoms: C2_6  and  C3_7 
REMARK    4  A    between atoms: C3_7  and  C4_8 
REMARK    5  A    between atoms: C4_8  and  N2_9 
REMARK    6  A    between atoms: C5_10  and  O1_11 
REMARK    7  A    between atoms: C6_13  and  C7_14 
REMARK    8  A    between atoms: C7_14  and  N3_15 
REMARK    9  A    between atoms: N3_15  and  N4_17 
REMARK       I    between atoms: N4_17  and  C8_19 
REMARK   10  A    between atoms: C9_22  and  N7_23 
REMARK   11  A    between atoms: N7_23  and  N8_25 
ROOT
HETATM    1  N2  UNL     1      17.046 -18.324  39.833  1.00  0.00    -0.279 N 
HETATM    2  C5  UNL     1      18.272 -18.586  40.314  1.00  0.00     0.162 A 
HETATM    3  C6  UNL     1      18.501 -19.580  41.252  1.00  0.00     0.077 A 
HETATM    4  C9  UNL     1      17.418 -20.318  41.696  1.00  0.00     0.139 A 
HETATM    5  N9  UNL     1      16.217 -20.014  41.180  1.00  0.00    -0.292 N 
ATOM      6  H9  UNL     1      15.412 -20.553  41.498  1.00  0.00     0.172 HD
HETATM    7  C10 UNL     1      16.005 -19.047  40.271  1.00  0.00     0.330 A 
HETATM    8  O2  UNL     1      14.818 -18.829  39.835  1.00  0.00    -0.246 OA
ENDROOT
BRANCH   1   9
HETATM    9  C4  UNL     1      16.878 -17.271  38.855  1.00  0.00     0.136 C 
BRANCH   9  10
HETATM   10  C3  UNL     1      17.426 -17.623  37.514  1.00  0.00     0.022 C 
BRANCH  10  11
HETATM   11  C2  UNL     1      16.315 -18.192  36.668  1.00  0.00     0.029 C 
BRANCH  11  12
HETATM   12  C1  UNL     1      16.444 -19.685  36.477  1.00  0.00     0.229 C 
BRANCH  12  13
HETATM   13  N1  UNL     1      15.824 -20.121  35.238  1.00  0.00    -0.079 N 
ATOM     14  H13 UNL     1      15.412 -21.050  35.334  1.00  0.00     0.274 HD
ATOM     15  H12 UNL     1      14.976 -19.591  35.039  1.00  0.00     0.274 HD
ATOM     16  H11 UNL     1      16.479 -20.083  34.456  1.00  0.00     0.274 HD
ENDBRANCH  12  13
ENDBRANCH  11  12
ENDBRANCH  10  11
ENDBRANCH   9  10
ENDBRANCH   1   9
BRANCH   2  17
HETATM   17  O1  UNL     1      19.372 -17.858  39.883  1.00  0.00    -0.345 OA
ATOM     18  H1  UNL     1      19.824 -17.267  40.475  1.00  0.00     0.219 HD
ENDBRANCH   2  17
BRANCH   3  19
HETATM   19  C7  UNL     1      19.830 -19.865  41.776  1.00  0.00     0.127 C 
BRANCH  19  20
HETATM   20  N3  UNL     1      20.560 -18.998  42.353  1.00  0.00    -0.309 N 
ATOM     21  H3  UNL     1      21.549 -19.195  42.505  1.00  0.00     0.186 HD
BRANCH  20  22
HETATM   22  N4  UNL     1      20.034 -17.795  42.775  1.00  0.00    -0.276 N 
HETATM   23  C8  UNL     1      19.748 -17.587  44.007  1.00  0.00     0.215 C 
HETATM   24  N5  UNL     1      19.205 -16.343  44.442  1.00  0.00    -0.065 NA
HETATM   25  N6  UNL     1      19.973 -18.616  44.961  1.00  0.00    -0.065 NA
ATOM     26  H4  UNL     1      19.870 -17.055  42.092  1.00  0.00     0.189 HD
ENDBRANCH  20  22
ENDBRANCH  19  20
ENDBRANCH   3  19
BRANCH   4  27
HETATM   27  N7  UNL     1      17.615 -21.242  42.563  1.00  0.00    -0.291 N 
ATOM     28  H7  UNL     1      18.543 -21.667  42.595  1.00  0.00     0.188 HD
BRANCH  27  29
HETATM   29  N8  UNL     1      16.675 -21.706  43.454  1.00  0.00    -0.344 N 
ATOM     30  H82 UNL     1      15.713 -21.747  43.116  1.00  0.00     0.176 HD
ATOM     31  H81 UNL     1      16.869 -22.006  44.409  1.00  0.00     0.176 HD
ENDBRANCH  27  29
ENDBRANCH   4  27
TORSDOF 11
ENDMDL
MODEL 4
REMARK VINA RESULT: -6.575327725      1.706      4.664
REMARK  11 active torsions:
REMARK  status: ('A' for Active; 'I' for Inactive)
REMARK    1  A    between atoms: N1_1  and  C1_5 
REMARK    2  A    between atoms: C1_5  and  C2_6 
REMARK    3  A    between atoms: C2_6  and  C3_7 
REMARK    4  A    between atoms: C3_7  and  C4_8 
REMARK    5  A    between atoms: C4_8  and  N2_9 
REMARK    6  A    between atoms: C5_10  and  O1_11 
REMARK    7  A    between atoms: C6_13  and  C7_14 
REMARK    8  A    between atoms: C7_14  and  N3_15 
REMARK    9  A    between atoms: N3_15  and  N4_17 
REMARK       I    between atoms: N4_17  and  C8_19 
REMARK   10  A    between atoms: C9_22  and  N7_23 
REMARK   11  A    between atoms: N7_23  and  N8_25 
ROOT
HETATM    1  N2  UNL     1      18.666 -19.536  41.738  1.00  0.00    -0.279 N 
HETATM    2  C5  UNL     1      18.310 -20.519  42.582  1.00  0.00     0.162 A 
HETATM    3  C6  UNL     1      19.105 -20.900  43.650  1.00  0.00     0.077 A 
HETATM    4  C9  UNL     1      20.303 -20.234  43.840  1.00  0.00     0.139 A 
HETATM    5  N9  UNL     1      20.607 -19.261  42.968  1.00  0.00    -0.292 N 
ATOM      6  H9  UNL     1      21.487 -18.762  43.099  1.00  0.00     0.172 HD
HETATM    7  C10 UNL     1      19.830 -18.899  41.934  1.00  0.00     0.330 A 
HETATM    8  O2  UNL     1      20.206 -17.954  41.151  1.00  0.00    -0.246 OA
ENDROOT
BRANCH   1   9
HETATM    9  C4  UNL     1      17.788 -19.189  40.641  1.00  0.00     0.136 C 
BRANCH   9  10
HETATM   10  C3  UNL     1      16.676 -18.282  41.046  1.00  0.00     0.022 C 
BRANCH  10  11
HETATM   11  C2  UNL     1      15.388 -18.799  40.457  1.00  0.00     0.029 C 
BRANCH  11  12
HETATM   12  C1  UNL     1      14.262 -18.820  41.463  1.00  0.00     0.229 C 
BRANCH  12  13
HETATM   13  N1  UNL     1      14.414 -19.906  42.414  1.00  0.00    -0.079 N 
ATOM     14  H13 UNL     1      15.361 -20.286  42.397  1.00  0.00     0.274 HD
ATOM     15  H12 UNL     1      14.398 -19.564  43.375  1.00  0.00     0.274 HD
ATOM     16  H11 UNL     1      13.717 -20.636  42.267  1.00  0.00     0.274 HD
ENDBRANCH  12  13
ENDBRANCH  11  12
ENDBRANCH  10  11
ENDBRANCH   9  10
ENDBRANCH   1   9
BRANCH   2  17
HETATM   17  O1  UNL     1      17.112 -21.200  42.409  1.00  0.00    -0.345 OA
ATOM     18  H1  UNL     1      17.000 -21.806  41.685  1.00  0.00     0.219 HD
ENDBRANCH   2  17
BRANCH   3  19
HETATM   19  C7  UNL     1      18.721 -21.966  44.565  1.00  0.00     0.127 C 
BRANCH  19  20
HETATM   20  N3  UNL     1      17.864 -21.822  45.494  1.00  0.00    -0.309 N 
ATOM     21  H3  UNL     1      18.143 -21.385  46.372  1.00  0.00     0.186 HD
BRANCH  20  22
HETATM   22  N4  UNL     1      16.562 -22.248  45.331  1.00  0.00    -0.276 N 
HETATM   23  C8  UNL     1      15.594 -21.414  45.232  1.00  0.00     0.215 C 
HETATM   24  N5  UNL     1      14.249 -21.854  45.064  1.00  0.00    -0.065 NA
HETATM   25  N6  UNL     1      15.864 -20.019  45.293  1.00  0.00    -0.065 NA
ATOM     26  H4  UNL     1      16.365 -23.248  45.289  1.00  0.00     0.189 HD
ENDBRANCH  20  22
ENDBRANCH  19  20
ENDBRANCH   3  19
BRANCH   4  27
HETATM   27  N7  UNL     1      21.049 -20.576  44.826  1.00  0.00    -0.291 N 
ATOM     28  H7  UNL     1      20.624 -20.591  45.753  1.00  0.00     0.188 HD
BRANCH  27  29
HETATM   29  N8  UNL     1      22.377 -20.924  44.731  1.00  0.00    -0.344 N 
ATOM     30  H82 UNL     1      22.782 -20.912  43.795  1.00  0.00     0.176 HD
ATOM     31  H81 UNL     1      22.972 -21.188  45.516  1.00  0.00     0.176 HD
ENDBRANCH  27  29
ENDBRANCH   4  27
TORSDOF 11
ENDMDL
MODEL 5
REMARK VINA RESULT: -6.518891155      0.696      1.025
REMARK  11 active torsions:
REMARK  status: ('A' for Active; 'I' for Inactive)
REMARK    1  A    between atoms: N1_1  and  C1_5 
REMARK    2  A    between atoms: C1_5  and  C2_6 
REMARK    3  A    between atoms: C2_6  and  C3_7 
REMARK    4  A    between atoms: C3_7  and  C4_8 
REMARK    5  A    between atoms: C4_8  and  N2_9 
REMARK    6  A    between atoms: C5_10  and  O1_11 
REMARK    7  A    between atoms: C6_13  and  C7_14 
REMARK    8  A    between atoms: C7_14  and  N3_15 
REMARK    9  A    between atoms: N3_15  and  N4_17 
REMARK       I    between atoms: N4_17  and  C8_19 
REMARK   10  A    between atoms: C9_22  and  N7_23 
REMARK   11  A    between atoms: N7_23  and  N8_25 
ROOT
HETATM    1  N2  UNL     1      17.791 -19.341  41.019  1.00  0.00    -0.279 N 
HETATM    2  C5  UNL     1      16.947 -19.859  41.926  1.00  0.00     0.162 A 
HETATM    3  C6  UNL     1      15.655 -19.383  42.089  1.00  0.00     0.077 A 
HETATM    4  C9  UNL     1      15.239 -18.341  41.281  1.00  0.00     0.139 A 
HETATM    5  N9  UNL     1      16.124 -17.864  40.392  1.00  0.00    -0.292 N 
ATOM      6  H9  UNL     1      15.827 -17.097  39.789  1.00  0.00     0.172 HD
HETATM    7  C10 UNL     1      17.375 -18.331  40.241  1.00  0.00     0.330 A 
HETATM    8  O2  UNL     1      18.150 -17.810  39.362  1.00  0.00    -0.246 OA
ENDROOT
BRANCH   1   9
HETATM    9  C4  UNL     1      19.127 -19.885  40.902  1.00  0.00     0.136 C 
BRANCH   9  10
HETATM   10  C3  UNL     1      20.136 -19.142  41.711  1.00  0.00     0.022 C 
BRANCH  10  11
HETATM   11  C2  UNL     1      20.838 -20.113  42.625  1.00  0.00     0.029 C 
BRANCH  11  12
HETATM   12  C1  UNL     1      20.445 -19.930  44.071  1.00  0.00     0.229 C 
BRANCH  12  13
HETATM   13  N1  UNL     1      20.466 -18.531  44.459  1.00  0.00    -0.079 N 
ATOM     14  H13 UNL     1      19.912 -18.369  45.301  1.00  0.00     0.274 HD
ATOM     15  H12 UNL     1      21.381 -18.257  44.815  1.00  0.00     0.274 HD
ATOM     16  H11 UNL     1      20.167 -17.924  43.695  1.00  0.00     0.274 HD
ENDBRANCH  12  13
ENDBRANCH  11  12
ENDBRANCH  10  11
ENDBRANCH   9  10
ENDBRANCH   1   9
BRANCH   2  17
HETATM   17  O1  UNL     1      17.344 -20.905  42.748  1.00  0.00    -0.345 OA
ATOM     18  H1  UNL     1      17.429 -21.786  42.403  1.00  0.00     0.219 HD
ENDBRANCH   2  17
BRANCH   3  19
HETATM   19  C7  UNL     1      14.738 -19.943  43.073  1.00  0.00     0.127 C 
BRANCH  19  20
HETATM   20  N3  UNL     1      14.711 -21.174  43.390  1.00  0.00    -0.309 N 
ATOM     21  H3  UNL     1      14.435 -21.866  42.694  1.00  0.00     0.186 HD
BRANCH  20  22
HETATM   22  N4  UNL     1      15.050 -21.588  44.661  1.00  0.00    -0.276 N 
HETATM   23  C8  UNL     1      14.597 -22.682  45.152  1.00  0.00     0.215 C 
HETATM   24  N5  UNL     1      14.948 -23.108  46.465  1.00  0.00    -0.065 NA
HETATM   25  N6  UNL     1      13.724 -23.488  44.372  1.00  0.00    -0.065 NA
ATOM     26  H4  UNL     1      15.676 -21.010  45.224  1.00  0.00     0.189 HD
ENDBRANCH  20  22
ENDBRANCH  19  20
ENDBRANCH   3  19
BRANCH   4  27
HETATM   27  N7  UNL     1      14.046 -17.892  41.420  1.00  0.00    -0.291 N 
ATOM     28  H7  UNL     1      13.285 -18.448  41.028  1.00  0.00     0.188 HD
BRANCH  27  29
HETATM   29  N8  UNL     1      13.710 -16.718  42.056  1.00  0.00    -0.344 N 
ATOM     30  H82 UNL     1      12.747 -16.639  42.380  1.00  0.00     0.176 HD
ATOM     31  H81 UNL     1      14.346 -15.939  42.221  1.00  0.00     0.176 HD
ENDBRANCH  27  29
ENDBRANCH   4  27
TORSDOF 11
ENDMDL
