MODEL 1
REMARK VINA RESULT: -8.012550583      0.000      0.000
REMARK  6 active torsions:
REMARK  status: ('A' for Active; 'I' for Inactive)
REMARK    1  A    between atoms: N3_4  and  C2_6 
REMARK    2  A    between atoms: C2_6  and  C3_7 
REMARK    3  A    between atoms: C3_7  and  C4_8 
REMARK    4  A    between atoms: C4_8  and  C5_9 
REMARK    5  A    between atoms: C7_14  and  C8_15 
REMARK    6  A    between atoms: C8_15  and  N5_16 
ROOT
HETATM    1  C5  UNL     1      20.554 -36.479  18.004  1.00  0.00     0.177 C 
HETATM    2  N4  UNL     1      20.398 -35.403  18.928  1.00  0.00    -0.346 N 
ATOM      3  H4  UNL     1      20.995 -35.570  19.738  1.00  0.00     0.163 HD
HETATM    4  C6  UNL     1      19.702 -34.188  19.110  1.00  0.00     0.242 C 
HETATM    5  O1  UNL     1      19.667 -33.859  20.318  1.00  0.00    -0.271 OA
HETATM    6  C7  UNL     1      19.013 -33.212  18.265  1.00  0.00     0.194 C 
HETATM    7  N8  UNL     1      17.836 -33.762  17.613  1.00  0.00    -0.349 N 
ATOM      8  H8  UNL     1      16.985 -33.230  17.793  1.00  0.00     0.163 HD
HETATM    9  C10 UNL     1      17.653 -34.788  16.853  1.00  0.00     0.191 C 
HETATM   10  N9  UNL     1      16.323 -34.987  16.413  1.00  0.00    -0.063 NA
HETATM   11  N10 UNL     1      18.569 -35.783  16.362  1.00  0.00    -0.299 N 
ATOM     12  H10 UNL     1      18.206 -36.238  15.524  1.00  0.00     0.171 HD
HETATM   13  C11 UNL     1      19.827 -36.303  16.717  1.00  0.00     0.246 C 
HETATM   14  O2  UNL     1      20.466 -36.703  15.716  1.00  0.00    -0.271 OA
ENDROOT
BRANCH   1  15
HETATM   15  C4  UNL     1      21.952 -36.908  17.784  1.00  0.00     0.036 C 
BRANCH  15  16
HETATM   16  C3  UNL     1      22.322 -38.321  17.922  1.00  0.00     0.022 C 
BRANCH  16  17
HETATM   17  C2  UNL     1      22.709 -39.104  16.730  1.00  0.00     0.122 C 
BRANCH  17  18
HETATM   18  N3  UNL     1      21.575 -39.681  16.011  1.00  0.00    -0.367 N 
HETATM   19  C1  UNL     1      21.670 -40.043  14.775  1.00  0.00     0.196 C 
HETATM   20  N1  UNL     1      22.868 -39.914  14.024  1.00  0.00    -0.067 NA
HETATM   21  N2  UNL     1      20.501 -40.592  14.177  1.00  0.00    -0.067 NA
ATOM     22  H3  UNL     1      20.686 -39.799  16.497  1.00  0.00     0.161 HD
ENDBRANCH  17  18
ENDBRANCH  16  17
ENDBRANCH  15  16
ENDBRANCH   1  15
BRANCH   6  23
HETATM   23  C8  UNL     1      18.679 -31.966  19.035  1.00  0.00     0.156 C 
BRANCH  23  24
HETATM   24  N5  UNL     1      19.142 -30.767  18.411  1.00  0.00    -0.364 N 
HETATM   25  C9  UNL     1      19.640 -29.845  19.164  1.00  0.00     0.197 C 
HETATM   26  N6  UNL     1      19.757 -29.945  20.573  1.00  0.00    -0.067 NA
HETATM   27  N7  UNL     1      20.096 -28.659  18.532  1.00  0.00    -0.067 NA
ATOM     28  H5  UNL     1      19.080 -30.644  17.400  1.00  0.00     0.161 HD
ENDBRANCH  23  24
ENDBRANCH   6  23
TORSDOF 6
ENDMDL
MODEL 2
REMARK VINA RESULT: -7.873797003      3.809      5.744
REMARK  6 active torsions:
REMARK  status: ('A' for Active; 'I' for Inactive)
REMARK    1  A    between atoms: N3_4  and  C2_6 
REMARK    2  A    between atoms: C2_6  and  C3_7 
REMARK    3  A    between atoms: C3_7  and  C4_8 
REMARK    4  A    between atoms: C4_8  and  C5_9 
REMARK    5  A    between atoms: C7_14  and  C8_15 
REMARK    6  A    between atoms: C8_15  and  N5_16 
ROOT
HETATM    1  C5  UNL     1      20.530 -32.961  18.921  1.00  0.00     0.177 C 
HETATM    2  N4  UNL     1      21.633 -33.473  18.174  1.00  0.00    -0.346 N 
ATOM      3  H4  UNL     1      22.205 -34.059  18.782  1.00  0.00     0.163 HD
HETATM    4  C6  UNL     1      22.206 -33.449  16.884  1.00  0.00     0.242 C 
HETATM    5  O1  UNL     1      23.415 -33.776  16.916  1.00  0.00    -0.271 OA
HETATM    6  C7  UNL     1      21.766 -33.143  15.523  1.00  0.00     0.194 C 
HETATM    7  N8  UNL     1      21.382 -31.752  15.353  1.00  0.00    -0.349 N 
ATOM      8  H8  UNL     1      21.879 -31.281  14.598  1.00  0.00     0.163 HD
HETATM    9  C10 UNL     1      20.536 -30.994  15.967  1.00  0.00     0.191 C 
HETATM   10  N9  UNL     1      20.455 -29.665  15.488  1.00  0.00    -0.063 NA
HETATM   11  N10 UNL     1      19.647 -31.258  17.067  1.00  0.00    -0.299 N 
ATOM     12  H10 UNL     1      18.878 -30.589  17.088  1.00  0.00     0.171 HD
HETATM   13  C11 UNL     1      19.545 -32.183  18.122  1.00  0.00     0.246 C 
HETATM   14  O2  UNL     1      18.353 -32.386  18.451  1.00  0.00    -0.271 OA
ENDROOT
BRANCH   1  15
HETATM   15  C4  UNL     1      19.862 -33.950  19.794  1.00  0.00     0.036 C 
BRANCH  15  16
HETATM   16  C3  UNL     1      20.178 -35.378  19.671  1.00  0.00     0.022 C 
BRANCH  16  17
HETATM   17  C2  UNL     1      19.467 -36.211  18.679  1.00  0.00     0.122 C 
BRANCH  17  18
HETATM   18  N3  UNL     1      18.221 -35.619  18.197  1.00  0.00    -0.367 N 
HETATM   19  C1  UNL     1      18.015 -35.402  16.941  1.00  0.00     0.196 C 
HETATM   20  N1  UNL     1      18.970 -35.716  15.939  1.00  0.00    -0.067 NA
HETATM   21  N2  UNL     1      16.764 -34.822  16.588  1.00  0.00    -0.067 NA
ATOM     22  H3  UNL     1      17.496 -35.371  18.870  1.00  0.00     0.161 HD
ENDBRANCH  17  18
ENDBRANCH  16  17
ENDBRANCH  15  16
ENDBRANCH   1  15
BRANCH   6  23
HETATM   23  C8  UNL     1      22.802 -33.551  14.513  1.00  0.00     0.156 C 
BRANCH  23  24
HETATM   24  N5  UNL     1      23.613 -32.466  14.056  1.00  0.00    -0.364 N 
HETATM   25  C9  UNL     1      23.698 -32.266  12.784  1.00  0.00     0.197 C 
HETATM   26  N6  UNL     1      23.039 -33.056  11.809  1.00  0.00    -0.067 NA
HETATM   27  N7  UNL     1      24.506 -31.186  12.343  1.00  0.00    -0.067 NA
ATOM     28  H5  UNL     1      24.109 -31.868  14.716  1.00  0.00     0.161 HD
ENDBRANCH  23  24
ENDBRANCH   6  23
TORSDOF 6
ENDMDL
MODEL 3
REMARK VINA RESULT: -7.815955915      2.835      6.792
REMARK  6 active torsions:
REMARK  status: ('A' for Active; 'I' for Inactive)
REMARK    1  A    between atoms: N3_4  and  C2_6 
REMARK    2  A    between atoms: C2_6  and  C3_7 
REMARK    3  A    between atoms: C3_7  and  C4_8 
REMARK    4  A    between atoms: C4_8  and  C5_9 
REMARK    5  A    between atoms: C7_14  and  C8_15 
REMARK    6  A    between atoms: C8_15  and  N5_16 
ROOT
HETATM    1  C5  UNL     1      18.620 -30.375  19.081  1.00  0.00     0.177 C 
HETATM    2  N4  UNL     1      18.418 -31.535  18.276  1.00  0.00    -0.346 N 
ATOM      3  H4  UNL     1      18.135 -31.246  17.339  1.00  0.00     0.163 HD
HETATM    4  C6  UNL     1      18.475 -32.945  18.327  1.00  0.00     0.242 C 
HETATM    5  O1  UNL     1      17.798 -33.461  17.408  1.00  0.00    -0.271 OA
HETATM    6  C7  UNL     1      19.111 -33.961  19.165  1.00  0.00     0.194 C 
HETATM    7  N8  UNL     1      18.619 -33.954  20.532  1.00  0.00    -0.349 N 
ATOM      8  H8  UNL     1      18.264 -34.859  20.842  1.00  0.00     0.163 HD
HETATM    9  C10 UNL     1      18.540 -33.032  21.432  1.00  0.00     0.191 C 
HETATM   10  N9  UNL     1      17.985 -33.438  22.668  1.00  0.00    -0.063 NA
HETATM   11  N10 UNL     1      18.922 -31.645  21.408  1.00  0.00    -0.299 N 
ATOM     12  H10 UNL     1      19.063 -31.285  22.351  1.00  0.00     0.171 HD
HETATM   13  C11 UNL     1      19.155 -30.648  20.443  1.00  0.00     0.246 C 
HETATM   14  O2  UNL     1      20.002 -29.811  20.832  1.00  0.00    -0.271 OA
ENDROOT
BRANCH   1  15
HETATM   15  C4  UNL     1      19.361 -29.281  18.416  1.00  0.00     0.036 C 
BRANCH  15  16
HETATM   16  C3  UNL     1      20.253 -29.572  17.288  1.00  0.00     0.022 C 
BRANCH  16  17
HETATM   17  C2  UNL     1      21.364 -30.532  17.451  1.00  0.00     0.122 C 
BRANCH  17  18
HETATM   18  N3  UNL     1      22.197 -30.677  16.258  1.00  0.00    -0.367 N 
HETATM   19  C1  UNL     1      21.863 -31.464  15.290  1.00  0.00     0.196 C 
HETATM   20  N1  UNL     1      20.675 -32.242  15.305  1.00  0.00    -0.067 NA
HETATM   21  N2  UNL     1      22.750 -31.525  14.179  1.00  0.00    -0.067 NA
ATOM     22  H3  UNL     1      23.063 -30.144  16.189  1.00  0.00     0.161 HD
ENDBRANCH  17  18
ENDBRANCH  16  17
ENDBRANCH  15  16
ENDBRANCH   1  15
BRANCH   6  23
HETATM   23  C8  UNL     1      18.993 -35.326  18.548  1.00  0.00     0.156 C 
BRANCH  23  24
HETATM   24  N5  UNL     1      20.117 -35.690  17.745  1.00  0.00    -0.364 N 
HETATM   25  C9  UNL     1      19.904 -36.013  16.514  1.00  0.00     0.197 C 
HETATM   26  N6  UNL     1      18.624 -36.031  15.907  1.00  0.00    -0.067 NA
HETATM   27  N7  UNL     1      21.029 -36.373  15.727  1.00  0.00    -0.067 NA
ATOM     28  H5  UNL     1      21.060 -35.695  18.134  1.00  0.00     0.161 HD
ENDBRANCH  23  24
ENDBRANCH   6  23
TORSDOF 6
ENDMDL
MODEL 4
REMARK VINA RESULT: -7.811737697      2.047      7.046
REMARK  6 active torsions:
REMARK  status: ('A' for Active; 'I' for Inactive)
REMARK    1  A    between atoms: N3_4  and  C2_6 
REMARK    2  A    between atoms: C2_6  and  C3_7 
REMARK    3  A    between atoms: C3_7  and  C4_8 
REMARK    4  A    between atoms: C4_8  and  C5_9 
REMARK    5  A    between atoms: C7_14  and  C8_15 
REMARK    6  A    between atoms: C8_15  and  N5_16 
ROOT
HETATM    1  C5  UNL     1      20.047 -33.023  18.054  1.00  0.00     0.177 C 
HETATM    2  N4  UNL     1      21.020 -34.042  17.829  1.00  0.00    -0.346 N 
ATOM      3  H4  UNL     1      21.952 -33.648  17.958  1.00  0.00     0.163 HD
HETATM    4  C6  UNL     1      21.138 -35.407  17.488  1.00  0.00     0.242 C 
HETATM    5  O1  UNL     1      22.279 -35.668  17.041  1.00  0.00    -0.271 OA
HETATM    6  C7  UNL     1      20.286 -36.596  17.518  1.00  0.00     0.194 C 
HETATM    7  N8  UNL     1      19.146 -36.495  16.622  1.00  0.00    -0.349 N 
ATOM      8  H8  UNL     1      19.080 -37.266  15.958  1.00  0.00     0.163 HD
HETATM    9  C10 UNL     1      18.201 -35.625  16.499  1.00  0.00     0.191 C 
HETATM   10  N9  UNL     1      17.258 -35.895  15.480  1.00  0.00    -0.063 NA
HETATM   11  N10 UNL     1      17.926 -34.411  17.222  1.00  0.00    -0.299 N 
ATOM     12  H10 UNL     1      16.946 -34.143  17.134  1.00  0.00     0.171 HD
HETATM   13  C11 UNL     1      18.635 -33.492  18.016  1.00  0.00     0.246 C 
HETATM   14  O2  UNL     1      17.900 -32.955  18.878  1.00  0.00    -0.271 OA
ENDROOT
BRANCH   1  15
HETATM   15  C4  UNL     1      20.305 -32.172  19.236  1.00  0.00     0.036 C 
BRANCH  15  16
HETATM   16  C3  UNL     1      20.421 -30.716  19.088  1.00  0.00     0.022 C 
BRANCH  16  17
HETATM   17  C2  UNL     1      20.224 -30.089  17.765  1.00  0.00     0.122 C 
BRANCH  17  18
HETATM   18  N3  UNL     1      21.360 -30.255  16.859  1.00  0.00    -0.367 N 
HETATM   19  C1  UNL     1      21.207 -30.696  15.655  1.00  0.00     0.196 C 
HETATM   20  N1  UNL     1      19.940 -31.051  15.120  1.00  0.00    -0.067 NA
HETATM   21  N2  UNL     1      22.383 -30.817  14.864  1.00  0.00    -0.067 NA
ATOM     22  H3  UNL     1      22.296 -30.017  17.186  1.00  0.00     0.161 HD
ENDBRANCH  17  18
ENDBRANCH  16  17
ENDBRANCH  15  16
ENDBRANCH   1  15
BRANCH   6  23
HETATM   23  C8  UNL     1      21.082 -37.842  17.251  1.00  0.00     0.156 C 
BRANCH  23  24
HETATM   24  N5  UNL     1      20.961 -38.321  15.910  1.00  0.00    -0.364 N 
HETATM   25  C9  UNL     1      21.804 -39.210  15.505  1.00  0.00     0.197 C 
HETATM   26  N6  UNL     1      22.845 -39.743  16.307  1.00  0.00    -0.067 NA
HETATM   27  N7  UNL     1      21.674 -39.678  14.172  1.00  0.00    -0.067 NA
ATOM     28  H5  UNL     1      20.231 -37.969  15.291  1.00  0.00     0.161 HD
ENDBRANCH  23  24
ENDBRANCH   6  23
TORSDOF 6
ENDMDL
MODEL 5
REMARK VINA RESULT: -7.731986989      3.087      5.628
REMARK  6 active torsions:
REMARK  status: ('A' for Active; 'I' for Inactive)
REMARK    1  A    between atoms: N3_4  and  C2_6 
REMARK    2  A    between atoms: C2_6  and  C3_7 
REMARK    3  A    between atoms: C3_7  and  C4_8 
REMARK    4  A    between atoms: C4_8  and  C5_9 
REMARK    5  A    between atoms: C7_14  and  C8_15 
REMARK    6  A    between atoms: C8_15  and  N5_16 
ROOT
HETATM    1  C5  UNL     1      20.054 -33.042  19.671  1.00  0.00     0.177 C 
HETATM    2  N4  UNL     1      21.137 -33.193  18.754  1.00  0.00    -0.346 N 
ATOM      3  H4  UNL     1      21.788 -33.889  19.119  1.00  0.00     0.163 HD
HETATM    4  C6  UNL     1      21.620 -32.712  17.517  1.00  0.00     0.242 C 
HETATM    5  O1  UNL     1      22.848 -32.926  17.394  1.00  0.00    -0.271 OA
HETATM    6  C7  UNL     1      21.069 -32.033  16.345  1.00  0.00     0.194 C 
HETATM    7  N8  UNL     1      20.577 -30.698  16.645  1.00  0.00    -0.349 N 
ATOM      8  H8  UNL     1      20.988 -29.971  16.061  1.00  0.00     0.163 HD
HETATM    9  C10 UNL     1      19.724 -30.250  17.504  1.00  0.00     0.191 C 
HETATM   10  N9  UNL     1      19.517 -28.851  17.479  1.00  0.00    -0.063 NA
HETATM   11  N10 UNL     1      18.931 -30.926  18.498  1.00  0.00    -0.299 N 
ATOM     12  H10 UNL     1      18.120 -30.368  18.763  1.00  0.00     0.171 HD
HETATM   13  C11 UNL     1      18.965 -32.141  19.204  1.00  0.00     0.246 C 
HETATM   14  O2  UNL     1      17.815 -32.542  19.499  1.00  0.00    -0.271 OA
ENDROOT
BRANCH   1  15
HETATM   15  C4  UNL     1      19.516 -34.311  20.208  1.00  0.00     0.036 C 
BRANCH  15  16
HETATM   16  C3  UNL     1      20.041 -35.596  19.733  1.00  0.00     0.022 C 
BRANCH  16  17
HETATM   17  C2  UNL     1      19.373 -36.304  18.621  1.00  0.00     0.122 C 
BRANCH  17  18
HETATM   18  N3  UNL     1      18.148 -35.653  18.161  1.00  0.00    -0.367 N 
HETATM   19  C1  UNL     1      17.955 -35.376  16.914  1.00  0.00     0.196 C 
HETATM   20  N1  UNL     1      18.905 -35.676  15.903  1.00  0.00    -0.067 NA
HETATM   21  N2  UNL     1      16.725 -34.742  16.582  1.00  0.00    -0.067 NA
ATOM     22  H3  UNL     1      17.427 -35.412  18.841  1.00  0.00     0.161 HD
ENDBRANCH  17  18
ENDBRANCH  16  17
ENDBRANCH  15  16
ENDBRANCH   1  15
BRANCH   6  23
HETATM   23  C8  UNL     1      22.060 -32.008  15.216  1.00  0.00     0.156 C 
BRANCH  23  24
HETATM   24  N5  UNL     1      22.302 -33.293  14.640  1.00  0.00    -0.364 N 
HETATM   25  C9  UNL     1      22.949 -33.345  13.524  1.00  0.00     0.197 C 
HETATM   26  N6  UNL     1      23.434 -32.207  12.832  1.00  0.00    -0.067 NA
HETATM   27  N7  UNL     1      23.183 -34.627  12.962  1.00  0.00    -0.067 NA
ATOM     28  H5  UNL     1      21.973 -34.143  15.096  1.00  0.00     0.161 HD
ENDBRANCH  23  24
ENDBRANCH   6  23
TORSDOF 6
ENDMDL
