MODEL 1
REMARK VINA RESULT: -7.902766180      0.000      0.000
REMARK  10 active torsions:
REMARK  status: ('A' for Active; 'I' for Inactive)
REMARK    1  A    between atoms: O1_2  and  C2_3 
REMARK    2  A    between atoms: C7_10  and  O4_11 
REMARK    3  A    between atoms: C7_10  and  C8_13 
REMARK    4  A    between atoms: C9_14  and  C10_15 
REMARK    5  A    between atoms: C10_15  and  C12_18 
REMARK    6  A    between atoms: C10_15  and  N2_21 
REMARK    7  A    between atoms: C12_18  and  O5_19 
REMARK    8  A    between atoms: N2_21  and  O6_22 
REMARK    9  A    between atoms: O6_22  and  C13_23 
REMARK   10  A    between atoms: C13_23  and  O7_24 
ROOT
HETATM    1  C10 UNL     1     -16.603  38.364 -11.876  1.00  0.00     0.228 C 
HETATM    2  C11 UNL     1     -15.265  38.642 -12.362  1.00  0.00     0.105 C 
HETATM    3  N1  UNL     1     -14.215  38.864 -12.743  1.00  0.00    -0.194 NA
ENDROOT
BRANCH   1   4
HETATM    4  C9  UNL     1     -16.623  37.380 -10.792  1.00  0.00    -0.053 C 
HETATM    5  C8  UNL     1     -16.626  36.583  -9.892  1.00  0.00    -0.028 C 
BRANCH   5   6
HETATM    6  C7  UNL     1     -16.620  35.623  -8.772  1.00  0.00     0.286 C 
HETATM    7  C3  UNL     1     -16.192  34.277  -9.229  1.00  0.00     0.147 C 
HETATM    8  C2  UNL     1     -15.288  34.023 -10.156  1.00  0.00     0.173 C 
HETATM    9  O2  UNL     1     -16.943  33.383  -8.478  1.00  0.00    -0.310 OA
HETATM   10  C4  UNL     1     -17.840  34.176  -7.687  1.00  0.00     0.168 C 
HETATM   11  C5  UNL     1     -19.159  33.464  -7.659  1.00  0.00     0.079 C 
HETATM   12  C6  UNL     1     -17.289  34.411  -6.310  1.00  0.00     0.079 C 
HETATM   13  O3  UNL     1     -17.915  35.404  -8.360  1.00  0.00    -0.303 OA
BRANCH   8  14
HETATM   14  O1  UNL     1     -14.931  32.746 -10.541  1.00  0.00    -0.365 OA
HETATM   15  C1  UNL     1     -14.327  32.445 -11.770  1.00  0.00     0.209 C 
ENDBRANCH   8  14
BRANCH   6  16
HETATM   16  O4  UNL     1     -15.768  36.027  -7.753  1.00  0.00    -0.350 OA
ATOM     17  H4  UNL     1     -15.958  35.507  -6.981  1.00  0.00     0.214 HD
ENDBRANCH   6  16
ENDBRANCH   5   6
ENDBRANCH   1   4
BRANCH   1  18
HETATM   18  C12 UNL     1     -17.223  39.686 -11.409  1.00  0.00     0.222 C 
BRANCH  18  19
HETATM   19  O5  UNL     1     -16.528  40.747 -11.959  1.00  0.00    -0.397 OA
ATOM     20  H5  UNL     1     -16.950  41.024 -12.764  1.00  0.00     0.209 HD
ENDBRANCH  18  19
ENDBRANCH   1  18
BRANCH   1  21
HETATM   21  N2  UNL     1     -17.457  37.844 -12.928  1.00  0.00    -0.057 NA
BRANCH  21  22
HETATM   22  O6  UNL     1     -18.167  38.806 -13.521  1.00  0.00    -0.258 OA
BRANCH  22  23
HETATM   23  C13 UNL     1     -17.881  38.981 -14.861  1.00  0.00     0.361 C 
BRANCH  23  24
HETATM   24  O7  UNL     1     -18.941  39.465 -15.595  1.00  0.00    -0.375 OA
ATOM     25  H7  UNL     1     -18.705  40.166 -16.191  1.00  0.00     0.212 HD
ENDBRANCH  23  24
ENDBRANCH  22  23
ENDBRANCH  21  22
ENDBRANCH   1  21
TORSDOF 10
ENDMDL
MODEL 2
REMARK VINA RESULT: -6.906954581      1.404      2.038
REMARK  10 active torsions:
REMARK  status: ('A' for Active; 'I' for Inactive)
REMARK    1  A    between atoms: O1_2  and  C2_3 
REMARK    2  A    between atoms: C7_10  and  O4_11 
REMARK    3  A    between atoms: C7_10  and  C8_13 
REMARK    4  A    between atoms: C9_14  and  C10_15 
REMARK    5  A    between atoms: C10_15  and  C12_18 
REMARK    6  A    between atoms: C10_15  and  N2_21 
REMARK    7  A    between atoms: C12_18  and  O5_19 
REMARK    8  A    between atoms: N2_21  and  O6_22 
REMARK    9  A    between atoms: O6_22  and  C13_23 
REMARK   10  A    between atoms: C13_23  and  O7_24 
ROOT
HETATM    1  C10 UNL     1     -16.595  38.390 -11.686  1.00  0.00     0.228 C 
HETATM    2  C11 UNL     1     -16.354  39.737 -11.204  1.00  0.00     0.105 C 
HETATM    3  N1  UNL     1     -16.168  40.795 -10.828  1.00  0.00    -0.194 NA
ENDROOT
BRANCH   1   4
HETATM    4  C9  UNL     1     -16.634  37.398 -10.610  1.00  0.00    -0.053 C 
HETATM    5  C8  UNL     1     -16.646  36.587  -9.722  1.00  0.00    -0.028 C 
BRANCH   5   6
HETATM    6  C7  UNL     1     -16.640  35.603  -8.623  1.00  0.00     0.286 C 
HETATM    7  C3  UNL     1     -16.247  34.259  -9.117  1.00  0.00     0.147 C 
HETATM    8  C2  UNL     1     -15.364  34.009 -10.065  1.00  0.00     0.173 C 
HETATM    9  O2  UNL     1     -17.002  33.364  -8.373  1.00  0.00    -0.310 OA
HETATM   10  C4  UNL     1     -17.869  34.156  -7.549  1.00  0.00     0.168 C 
HETATM   11  C5  UNL     1     -19.202  33.470  -7.514  1.00  0.00     0.079 C 
HETATM   12  C6  UNL     1     -17.291  34.350  -6.177  1.00  0.00     0.079 C 
HETATM   13  O3  UNL     1     -17.931  35.400  -8.194  1.00  0.00    -0.303 OA
BRANCH   8  14
HETATM   14  O1  UNL     1     -15.039  32.734 -10.484  1.00  0.00    -0.365 OA
HETATM   15  C1  UNL     1     -14.331  32.459 -11.663  1.00  0.00     0.209 C 
ENDBRANCH   8  14
BRANCH   6  16
HETATM   16  O4  UNL     1     -15.763  35.968  -7.611  1.00  0.00    -0.350 OA
ATOM     17  H4  UNL     1     -16.077  35.594  -6.795  1.00  0.00     0.214 HD
ENDBRANCH   6  16
ENDBRANCH   5   6
ENDBRANCH   1   4
BRANCH   1  18
HETATM   18  C12 UNL     1     -17.919  38.391 -12.459  1.00  0.00     0.222 C 
BRANCH  18  19
HETATM   19  O5  UNL     1     -18.183  39.665 -12.930  1.00  0.00    -0.397 OA
ATOM     20  H5  UNL     1     -17.369  40.147 -13.023  1.00  0.00     0.209 HD
ENDBRANCH  18  19
ENDBRANCH   1  18
BRANCH   1  21
HETATM   21  N2  UNL     1     -15.564  37.960 -12.612  1.00  0.00    -0.057 NA
BRANCH  21  22
HETATM   22  O6  UNL     1     -15.387  38.832 -13.607  1.00  0.00    -0.258 OA
BRANCH  22  23
HETATM   23  C13 UNL     1     -14.129  39.402 -13.648  1.00  0.00     0.361 C 
BRANCH  23  24
HETATM   24  O7  UNL     1     -13.297  38.981 -12.634  1.00  0.00    -0.375 OA
ATOM     25  H7  UNL     1     -13.648  39.130 -11.765  1.00  0.00     0.212 HD
ENDBRANCH  23  24
ENDBRANCH  22  23
ENDBRANCH  21  22
ENDBRANCH   1  21
TORSDOF 10
ENDMDL
MODEL 3
REMARK VINA RESULT: -6.634475596      1.335      2.047
REMARK  10 active torsions:
REMARK  status: ('A' for Active; 'I' for Inactive)
REMARK    1  A    between atoms: O1_2  and  C2_3 
REMARK    2  A    between atoms: C7_10  and  O4_11 
REMARK    3  A    between atoms: C7_10  and  C8_13 
REMARK    4  A    between atoms: C9_14  and  C10_15 
REMARK    5  A    between atoms: C10_15  and  C12_18 
REMARK    6  A    between atoms: C10_15  and  N2_21 
REMARK    7  A    between atoms: C12_18  and  O5_19 
REMARK    8  A    between atoms: N2_21  and  O6_22 
REMARK    9  A    between atoms: O6_22  and  C13_23 
REMARK   10  A    between atoms: C13_23  and  O7_24 
ROOT
HETATM    1  C10 UNL     1     -16.302  38.611 -12.033  1.00  0.00     0.228 C 
HETATM    2  C11 UNL     1     -17.297  38.442 -13.075  1.00  0.00     0.105 C 
HETATM    3  N1  UNL     1     -18.076  38.309 -13.895  1.00  0.00    -0.194 NA
ENDROOT
BRANCH   1   4
HETATM    4  C9  UNL     1     -16.441  37.637 -10.948  1.00  0.00    -0.053 C 
HETATM    5  C8  UNL     1     -16.535  36.836 -10.057  1.00  0.00    -0.028 C 
BRANCH   5   6
HETATM    6  C7  UNL     1     -16.625  35.856  -8.958  1.00  0.00     0.286 C 
HETATM    7  C3  UNL     1     -16.232  34.501  -9.422  1.00  0.00     0.147 C 
HETATM    8  C2  UNL     1     -15.294  34.227 -10.308  1.00  0.00     0.173 C 
HETATM    9  O2  UNL     1     -17.056  33.627  -8.727  1.00  0.00    -0.310 OA
HETATM   10  C4  UNL     1     -17.957  34.443  -7.965  1.00  0.00     0.168 C 
HETATM   11  C5  UNL     1     -19.305  33.788  -8.018  1.00  0.00     0.079 C 
HETATM   12  C6  UNL     1     -17.467  34.628  -6.558  1.00  0.00     0.079 C 
HETATM   13  O3  UNL     1     -17.947  35.685  -8.616  1.00  0.00    -0.303 OA
BRANCH   8  14
HETATM   14  O1  UNL     1     -14.972  32.943 -10.701  1.00  0.00    -0.365 OA
HETATM   15  C1  UNL     1     -14.303  32.640 -11.896  1.00  0.00     0.209 C 
ENDBRANCH   8  14
BRANCH   6  16
HETATM   16  O4  UNL     1     -15.809  36.204  -7.890  1.00  0.00    -0.350 OA
ATOM     17  H4  UNL     1     -16.280  36.025  -7.084  1.00  0.00     0.214 HD
ENDBRANCH   6  16
ENDBRANCH   5   6
ENDBRANCH   1   4
BRANCH   1  18
HETATM   18  C12 UNL     1     -14.916  38.499 -12.678  1.00  0.00     0.222 C 
BRANCH  18  19
HETATM   19  O5  UNL     1     -15.014  38.726 -14.038  1.00  0.00    -0.397 OA
ATOM     20  H5  UNL     1     -14.173  39.009 -14.378  1.00  0.00     0.209 HD
ENDBRANCH  18  19
ENDBRANCH   1  18
BRANCH   1  21
HETATM   21  N2  UNL     1     -16.381  39.926 -11.425  1.00  0.00    -0.057 NA
BRANCH  21  22
HETATM   22  O6  UNL     1     -15.513  40.783 -11.966  1.00  0.00    -0.258 OA
BRANCH  22  23
HETATM   23  C13 UNL     1     -16.096  41.874 -12.581  1.00  0.00     0.361 C 
BRANCH  23  24
HETATM   24  O7  UNL     1     -17.184  41.553 -13.363  1.00  0.00    -0.375 OA
ATOM     25  H7  UNL     1     -17.964  41.343 -12.864  1.00  0.00     0.212 HD
ENDBRANCH  23  24
ENDBRANCH  22  23
ENDBRANCH  21  22
ENDBRANCH   1  21
TORSDOF 10
ENDMDL
MODEL 4
REMARK VINA RESULT: -6.603251448      1.468      1.835
REMARK  10 active torsions:
REMARK  status: ('A' for Active; 'I' for Inactive)
REMARK    1  A    between atoms: O1_2  and  C2_3 
REMARK    2  A    between atoms: C7_10  and  O4_11 
REMARK    3  A    between atoms: C7_10  and  C8_13 
REMARK    4  A    between atoms: C9_14  and  C10_15 
REMARK    5  A    between atoms: C10_15  and  C12_18 
REMARK    6  A    between atoms: C10_15  and  N2_21 
REMARK    7  A    between atoms: C12_18  and  O5_19 
REMARK    8  A    between atoms: N2_21  and  O6_22 
REMARK    9  A    between atoms: O6_22  and  C13_23 
REMARK   10  A    between atoms: C13_23  and  O7_24 
ROOT
HETATM    1  C10 UNL     1     -16.883  38.209 -11.441  1.00  0.00     0.228 C 
HETATM    2  C11 UNL     1     -15.727  38.227 -12.317  1.00  0.00     0.105 C 
HETATM    3  N1  UNL     1     -14.819  38.245 -13.004  1.00  0.00    -0.194 NA
ENDROOT
BRANCH   1   4
HETATM    4  C9  UNL     1     -16.750  37.254 -10.340  1.00  0.00    -0.053 C 
HETATM    5  C8  UNL     1     -16.658  36.461  -9.440  1.00  0.00    -0.028 C 
BRANCH   5   6
HETATM    6  C7  UNL     1     -16.564  35.475  -8.347  1.00  0.00     0.286 C 
HETATM    7  C3  UNL     1     -16.213  34.132  -8.872  1.00  0.00     0.147 C 
HETATM    8  C2  UNL     1     -15.408  33.883  -9.888  1.00  0.00     0.173 C 
HETATM    9  O2  UNL     1     -16.907  33.236  -8.071  1.00  0.00    -0.310 OA
HETATM   10  C4  UNL     1     -17.705  34.028  -7.180  1.00  0.00     0.168 C 
HETATM   11  C5  UNL     1     -19.031  33.342  -7.040  1.00  0.00     0.079 C 
HETATM   12  C6  UNL     1     -17.020  34.219  -5.858  1.00  0.00     0.079 C 
HETATM   13  O3  UNL     1     -17.818  35.272  -7.816  1.00  0.00    -0.303 OA
BRANCH   8  14
HETATM   14  O1  UNL     1     -15.118  32.608 -10.332  1.00  0.00    -0.365 OA
HETATM   15  C1  UNL     1     -14.371  32.339 -11.489  1.00  0.00     0.209 C 
ENDBRANCH   8  14
BRANCH   6  16
HETATM   16  O4  UNL     1     -15.609  35.838  -7.407  1.00  0.00    -0.350 OA
ATOM     17  H4  UNL     1     -15.043  35.091  -7.253  1.00  0.00     0.214 HD
ENDBRANCH   6  16
ENDBRANCH   5   6
ENDBRANCH   1   4
BRANCH   1  18
HETATM   18  C12 UNL     1     -17.088  39.627 -10.896  1.00  0.00     0.222 C 
BRANCH  18  19
HETATM   19  O5  UNL     1     -16.356  40.527 -11.649  1.00  0.00    -0.397 OA
ATOM     20  H5  UNL     1     -16.846  41.334 -11.751  1.00  0.00     0.209 HD
ENDBRANCH  18  19
ENDBRANCH   1  18
BRANCH   1  21
HETATM   21  N2  UNL     1     -18.093  37.852 -12.158  1.00  0.00    -0.057 NA
BRANCH  21  22
HETATM   22  O6  UNL     1     -18.516  36.624 -11.852  1.00  0.00    -0.258 OA
BRANCH  22  23
HETATM   23  C13 UNL     1     -19.504  36.585 -10.887  1.00  0.00     0.361 C 
BRANCH  23  24
HETATM   24  O7  UNL     1     -20.510  35.685 -11.159  1.00  0.00    -0.375 OA
ATOM     25  H7  UNL     1     -20.707  35.102 -10.436  1.00  0.00     0.212 HD
ENDBRANCH  23  24
ENDBRANCH  22  23
ENDBRANCH  21  22
ENDBRANCH   1  21
TORSDOF 10
ENDMDL
MODEL 5
REMARK VINA RESULT: -6.387814544      1.754      3.106
REMARK  10 active torsions:
REMARK  status: ('A' for Active; 'I' for Inactive)
REMARK    1  A    between atoms: O1_2  and  C2_3 
REMARK    2  A    between atoms: C7_10  and  O4_11 
REMARK    3  A    between atoms: C7_10  and  C8_13 
REMARK    4  A    between atoms: C9_14  and  C10_15 
REMARK    5  A    between atoms: C10_15  and  C12_18 
REMARK    6  A    between atoms: C10_15  and  N2_21 
REMARK    7  A    between atoms: C12_18  and  O5_19 
REMARK    8  A    between atoms: N2_21  and  O6_22 
REMARK    9  A    between atoms: O6_22  and  C13_23 
REMARK   10  A    between atoms: C13_23  and  O7_24 
ROOT
HETATM    1  C10 UNL     1     -15.854  39.623 -12.644  1.00  0.00     0.228 C 
HETATM    2  C11 UNL     1     -14.592  39.701 -13.356  1.00  0.00     0.105 C 
HETATM    3  N1  UNL     1     -13.601  39.765 -13.913  1.00  0.00    -0.194 NA
ENDROOT
BRANCH   1   4
HETATM    4  C9  UNL     1     -16.031  38.354 -11.936  1.00  0.00    -0.053 C 
HETATM    5  C8  UNL     1     -16.180  37.303 -11.372  1.00  0.00    -0.028 C 
BRANCH   5   6
HETATM    6  C7  UNL     1     -16.363  36.001 -10.702  1.00  0.00     0.286 C 
HETATM    7  C3  UNL     1     -17.757  35.845 -10.215  1.00  0.00     0.147 C 
HETATM    8  C2  UNL     1     -18.843  36.296 -10.814  1.00  0.00     0.173 C 
HETATM    9  O2  UNL     1     -17.648  35.141  -9.024  1.00  0.00    -0.310 OA
HETATM   10  C4  UNL     1     -16.244  34.979  -8.778  1.00  0.00     0.168 C 
HETATM   11  C5  UNL     1     -16.024  35.163  -7.307  1.00  0.00     0.079 C 
HETATM   12  C6  UNL     1     -15.756  33.646  -9.266  1.00  0.00     0.079 C 
HETATM   13  O3  UNL     1     -15.634  35.990  -9.535  1.00  0.00    -0.303 OA
BRANCH   8  14
HETATM   14  O1  UNL     1     -20.117  36.120 -10.312  1.00  0.00    -0.365 OA
HETATM   15  C1  UNL     1     -20.589  36.753  -9.153  1.00  0.00     0.209 C 
ENDBRANCH   8  14
BRANCH   6  16
HETATM   16  O4  UNL     1     -16.078  34.941 -11.552  1.00  0.00    -0.350 OA
ATOM     17  H4  UNL     1     -15.381  35.208 -12.139  1.00  0.00     0.214 HD
ENDBRANCH   6  16
ENDBRANCH   5   6
ENDBRANCH   1   4
BRANCH   1  18
HETATM   18  C12 UNL     1     -15.917  40.797 -11.660  1.00  0.00     0.222 C 
BRANCH  18  19
HETATM   19  O5  UNL     1     -15.673  41.981 -12.332  1.00  0.00    -0.397 OA
ATOM     20  H5  UNL     1     -14.830  42.332 -12.069  1.00  0.00     0.209 HD
ENDBRANCH  18  19
ENDBRANCH   1  18
BRANCH   1  21
HETATM   21  N2  UNL     1     -16.985  39.761 -13.542  1.00  0.00    -0.057 NA
BRANCH  21  22
HETATM   22  O6  UNL     1     -17.035  38.777 -14.442  1.00  0.00    -0.258 OA
BRANCH  22  23
HETATM   23  C13 UNL     1     -17.753  39.083 -15.582  1.00  0.00     0.361 C 
BRANCH  23  24
HETATM   24  O7  UNL     1     -19.068  39.412 -15.338  1.00  0.00    -0.375 OA
ATOM     25  H7  UNL     1     -19.620  39.378 -16.110  1.00  0.00     0.212 HD
ENDBRANCH  23  24
ENDBRANCH  22  23
ENDBRANCH  21  22
ENDBRANCH   1  21
TORSDOF 10
ENDMDL
