MODEL 1
REMARK VINA RESULT: -7.531965527      0.000      0.000
REMARK  4 active torsions:
REMARK  status: ('A' for Active; 'I' for Inactive)
REMARK    1  A    between atoms: N1_2  and  C2_4 
REMARK    2  A    between atoms: C3_7  and  N3_8 
REMARK       I    between atoms: N3_8  and  C4_10 
REMARK    3  A    between atoms: C4_10  and  C5_12 
REMARK    4  A    between atoms: C6_15  and  N5_16 
ROOT
HETATM    1  C2  UNL     1     -18.344  37.364 -11.347  1.00  0.00     0.679 A 
HETATM    2  N2  UNL     1     -18.442  38.430 -12.132  1.00  0.00    -0.174 N 
ATOM      3  H2  UNL     1     -19.372  38.787 -12.352  1.00  0.00     0.186 HD
HETATM    4  C3  UNL     1     -17.378  39.061 -12.650  1.00  0.00     0.158 A 
HETATM    5  C6  UNL     1     -16.131  38.613 -12.377  1.00  0.00     0.163 A 
HETATM    6  C7  UNL     1     -16.042  37.482 -11.542  1.00  0.00     0.146 A 
HETATM    7  N6  UNL     1     -17.112  36.870 -11.039  1.00  0.00    -0.199 N 
ATOM      8  H6  UNL     1     -17.011  36.053 -10.437  1.00  0.00     0.183 HD
ENDROOT
BRANCH   4   9
HETATM    9  N3  UNL     1     -17.619  40.198 -13.439  1.00  0.00    -0.303 N 
HETATM   10  C4  UNL     1     -17.827  40.085 -14.865  1.00  0.00     0.312 C 
HETATM   11  O1  UNL     1     -17.782  38.966 -15.418  1.00  0.00    -0.262 OA
ATOM     12  H3  UNL     1     -17.647  41.118 -12.998  1.00  0.00     0.171 HD
BRANCH  10  13
HETATM   13  C5  UNL     1     -18.092  41.287 -15.659  1.00  0.00     0.322 C 
HETATM   14  N4  UNL     1     -17.397  42.478 -15.358  1.00  0.00    -0.053 NA
HETATM   15  O2  UNL     1     -18.908  41.293 -16.588  1.00  0.00    -0.266 OA
ENDBRANCH  10  13
ENDBRANCH   4   9
BRANCH   5  16
HETATM   16  N5  UNL     1     -14.969  39.211 -12.869  1.00  0.00    -0.110 N 
HETATM   17  O3  UNL     1     -14.190  39.891 -12.223  1.00  0.00    -0.532 OA
HETATM   18  O4  UNL     1     -14.704  39.039 -14.230  1.00  0.00    -0.532 OA
ENDBRANCH   5  16
BRANCH   1  19
HETATM   19  N1  UNL     1     -19.342  36.723 -10.826  1.00  0.00    -0.230 N 
HETATM   20  C1  UNL     1     -19.521  36.753  -9.389  1.00  0.00     0.165 C 
ATOM     21  H1  UNL     1     -19.991  36.206 -11.419  1.00  0.00     0.177 HD
ENDBRANCH   1  19
TORSDOF 4
ENDMDL
MODEL 2
REMARK VINA RESULT: -7.332934437      2.359      5.661
REMARK  4 active torsions:
REMARK  status: ('A' for Active; 'I' for Inactive)
REMARK    1  A    between atoms: N1_2  and  C2_4 
REMARK    2  A    between atoms: C3_7  and  N3_8 
REMARK       I    between atoms: N3_8  and  C4_10 
REMARK    3  A    between atoms: C4_10  and  C5_12 
REMARK    4  A    between atoms: C6_15  and  N5_16 
ROOT
HETATM    1  C2  UNL     1     -16.476  43.230 -13.108  1.00  0.00     0.679 A 
HETATM    2  N2  UNL     1     -16.644  42.012 -12.608  1.00  0.00    -0.174 N 
ATOM      3  H2  UNL     1     -16.324  41.830 -11.657  1.00  0.00     0.186 HD
HETATM    4  C3  UNL     1     -17.215  41.010 -13.292  1.00  0.00     0.158 A 
HETATM    5  C6  UNL     1     -17.651  41.219 -14.555  1.00  0.00     0.163 A 
HETATM    6  C7  UNL     1     -17.467  42.516 -15.072  1.00  0.00     0.146 A 
HETATM    7  N6  UNL     1     -16.897  43.497 -14.376  1.00  0.00    -0.199 N 
ATOM      8  H6  UNL     1     -16.780  44.426 -14.782  1.00  0.00     0.183 HD
ENDROOT
BRANCH   4   9
HETATM    9  N3  UNL     1     -17.363  39.777 -12.634  1.00  0.00    -0.303 N 
HETATM   10  C4  UNL     1     -16.215  39.063 -12.122  1.00  0.00     0.312 C 
HETATM   11  O1  UNL     1     -15.067  39.532 -12.273  1.00  0.00    -0.262 OA
ATOM     12  H3  UNL     1     -18.296  39.380 -12.515  1.00  0.00     0.171 HD
BRANCH  10  13
HETATM   13  C5  UNL     1     -16.402  37.788 -11.427  1.00  0.00     0.322 C 
HETATM   14  N4  UNL     1     -17.277  37.729 -10.321  1.00  0.00    -0.053 NA
HETATM   15  O2  UNL     1     -15.815  36.757 -11.777  1.00  0.00    -0.266 OA
ENDBRANCH  10  13
ENDBRANCH   4   9
BRANCH   5  16
HETATM   16  N5  UNL     1     -18.260  40.235 -15.337  1.00  0.00    -0.110 N 
HETATM   17  O3  UNL     1     -19.351  40.327 -15.874  1.00  0.00    -0.532 OA
HETATM   18  O4  UNL     1     -17.568  39.030 -15.479  1.00  0.00    -0.532 OA
ENDBRANCH   5  16
BRANCH   1  19
HETATM   19  N1  UNL     1     -15.930  44.226 -12.486  1.00  0.00    -0.230 N 
HETATM   20  C1  UNL     1     -16.096  44.333 -11.051  1.00  0.00     0.165 C 
ATOM     21  H1  UNL     1     -15.392  44.925 -12.999  1.00  0.00     0.177 HD
ENDBRANCH   1  19
TORSDOF 4
ENDMDL
MODEL 3
REMARK VINA RESULT: -7.304045450      2.811      5.478
REMARK  4 active torsions:
REMARK  status: ('A' for Active; 'I' for Inactive)
REMARK    1  A    between atoms: N1_2  and  C2_4 
REMARK    2  A    between atoms: C3_7  and  N3_8 
REMARK       I    between atoms: N3_8  and  C4_10 
REMARK    3  A    between atoms: C4_10  and  C5_12 
REMARK    4  A    between atoms: C6_15  and  N5_16 
ROOT
HETATM    1  C2  UNL     1     -16.003  42.494 -11.725  1.00  0.00     0.679 A 
HETATM    2  N2  UNL     1     -15.750  41.195 -11.621  1.00  0.00    -0.174 N 
ATOM      3  H2  UNL     1     -15.280  40.857 -10.781  1.00  0.00     0.186 HD
HETATM    4  C3  UNL     1     -16.082  40.304 -12.568  1.00  0.00     0.158 A 
HETATM    5  C6  UNL     1     -16.706  40.719 -13.693  1.00  0.00     0.163 A 
HETATM    6  C7  UNL     1     -16.969  42.099 -13.789  1.00  0.00     0.146 A 
HETATM    7  N6  UNL     1     -16.631  42.967 -12.838  1.00  0.00    -0.199 N 
ATOM      8  H6  UNL     1     -16.837  43.961 -12.940  1.00  0.00     0.183 HD
ENDROOT
BRANCH   4   9
HETATM    9  N3  UNL     1     -15.787  38.953 -12.318  1.00  0.00    -0.303 N 
HETATM   10  C4  UNL     1     -16.600  38.167 -11.418  1.00  0.00     0.312 C 
HETATM   11  O1  UNL     1     -17.575  38.688 -10.837  1.00  0.00    -0.262 OA
ATOM     12  H3  UNL     1     -14.986  38.520 -12.780  1.00  0.00     0.171 HD
BRANCH  10  13
HETATM   13  C5  UNL     1     -16.277  36.757 -11.190  1.00  0.00     0.322 C 
HETATM   14  N4  UNL     1     -16.928  36.061 -10.149  1.00  0.00    -0.053 NA
HETATM   15  O2  UNL     1     -15.448  36.153 -11.881  1.00  0.00    -0.266 OA
ENDBRANCH  10  13
ENDBRANCH   4   9
BRANCH   5  16
HETATM   16  N5  UNL     1     -17.091  39.861 -14.726  1.00  0.00    -0.110 N 
HETATM   17  O3  UNL     1     -18.230  39.701 -15.131  1.00  0.00    -0.532 OA
HETATM   18  O4  UNL     1     -16.080  39.098 -15.315  1.00  0.00    -0.532 OA
ENDBRANCH   5  16
BRANCH   1  19
HETATM   19  N1  UNL     1     -15.701  43.389 -10.839  1.00  0.00    -0.230 N 
HETATM   20  C1  UNL     1     -16.400  44.657 -10.856  1.00  0.00     0.165 C 
ATOM     21  H1  UNL     1     -14.982  43.203 -10.139  1.00  0.00     0.177 HD
ENDBRANCH   1  19
TORSDOF 4
ENDMDL
MODEL 4
REMARK VINA RESULT: -7.206003332      2.329      5.418
REMARK  4 active torsions:
REMARK  status: ('A' for Active; 'I' for Inactive)
REMARK    1  A    between atoms: N1_2  and  C2_4 
REMARK    2  A    between atoms: C3_7  and  N3_8 
REMARK       I    between atoms: N3_8  and  C4_10 
REMARK    3  A    between atoms: C4_10  and  C5_12 
REMARK    4  A    between atoms: C6_15  and  N5_16 
ROOT
HETATM    1  C2  UNL     1     -18.320  42.118 -15.900  1.00  0.00     0.679 A 
HETATM    2  N2  UNL     1     -18.275  41.213 -14.930  1.00  0.00    -0.174 N 
ATOM      3  H2  UNL     1     -18.796  40.345 -15.051  1.00  0.00     0.186 HD
HETATM    4  C3  UNL     1     -17.578  41.386 -13.797  1.00  0.00     0.158 A 
HETATM    5  C6  UNL     1     -16.877  42.526 -13.605  1.00  0.00     0.163 A 
HETATM    6  C7  UNL     1     -16.933  43.476 -14.642  1.00  0.00     0.146 A 
HETATM    7  N6  UNL     1     -17.631  43.285 -15.759  1.00  0.00    -0.199 N 
ATOM      8  H6  UNL     1     -17.650  43.995 -16.491  1.00  0.00     0.183 HD
ENDROOT
BRANCH   4   9
HETATM    9  N3  UNL     1     -17.587  40.335 -12.864  1.00  0.00    -0.303 N 
HETATM   10  C4  UNL     1     -17.309  38.976 -13.270  1.00  0.00     0.312 C 
HETATM   11  O1  UNL     1     -17.067  38.716 -14.468  1.00  0.00    -0.262 OA
ATOM     12  H3  UNL     1     -17.793  40.534 -11.884  1.00  0.00     0.171 HD
BRANCH  10  13
HETATM   13  C5  UNL     1     -17.310  37.904 -12.272  1.00  0.00     0.322 C 
HETATM   14  N4  UNL     1     -16.079  37.399 -11.802  1.00  0.00    -0.053 NA
HETATM   15  O2  UNL     1     -18.359  37.422 -11.827  1.00  0.00    -0.266 OA
ENDBRANCH  10  13
ENDBRANCH   4   9
BRANCH   5  16
HETATM   16  N5  UNL     1     -16.121  42.786 -12.459  1.00  0.00    -0.110 N 
HETATM   17  O3  UNL     1     -15.353  42.007 -11.921  1.00  0.00    -0.532 OA
HETATM   18  O4  UNL     1     -16.295  44.038 -11.865  1.00  0.00    -0.532 OA
ENDBRANCH   5  16
BRANCH   1  19
HETATM   19  N1  UNL     1     -18.979  41.996 -17.008  1.00  0.00    -0.230 N 
HETATM   20  C1  UNL     1     -20.243  41.289 -16.998  1.00  0.00     0.165 C 
ATOM     21  H1  UNL     1     -18.613  42.391 -17.874  1.00  0.00     0.177 HD
ENDBRANCH   1  19
TORSDOF 4
ENDMDL
MODEL 5
REMARK VINA RESULT: -7.086669531      3.502      4.797
REMARK  4 active torsions:
REMARK  status: ('A' for Active; 'I' for Inactive)
REMARK    1  A    between atoms: N1_2  and  C2_4 
REMARK    2  A    between atoms: C3_7  and  N3_8 
REMARK       I    between atoms: N3_8  and  C4_10 
REMARK    3  A    between atoms: C4_10  and  C5_12 
REMARK    4  A    between atoms: C6_15  and  N5_16 
ROOT
HETATM    1  C2  UNL     1     -18.335  40.753 -14.888  1.00  0.00     0.679 A 
HETATM    2  N2  UNL     1     -17.862  41.616 -13.996  1.00  0.00    -0.174 N 
ATOM      3  H2  UNL     1     -18.434  42.425 -13.753  1.00  0.00     0.186 HD
HETATM    4  C3  UNL     1     -16.669  41.475 -13.400  1.00  0.00     0.158 A 
HETATM    5  C6  UNL     1     -15.887  40.414 -13.701  1.00  0.00     0.163 A 
HETATM    6  C7  UNL     1     -16.401  39.507 -14.647  1.00  0.00     0.146 A 
HETATM    7  N6  UNL     1     -17.589  39.665 -15.227  1.00  0.00    -0.199 N 
ATOM      8  H6  UNL     1     -17.931  38.988 -15.909  1.00  0.00     0.183 HD
ENDROOT
BRANCH   4   9
HETATM    9  N3  UNL     1     -16.301  42.443 -12.449  1.00  0.00    -0.303 N 
HETATM   10  C4  UNL     1     -15.775  43.726 -12.857  1.00  0.00     0.312 C 
HETATM   11  O1  UNL     1     -15.629  43.986 -14.070  1.00  0.00    -0.262 OA
ATOM     12  H3  UNL     1     -16.407  42.236 -11.455  1.00  0.00     0.171 HD
BRANCH  10  13
HETATM   13  C5  UNL     1     -15.415  44.720 -11.844  1.00  0.00     0.322 C 
HETATM   14  N4  UNL     1     -16.308  44.974 -10.781  1.00  0.00    -0.053 NA
HETATM   15  O2  UNL     1     -14.351  45.349 -11.890  1.00  0.00    -0.266 OA
ENDBRANCH  10  13
ENDBRANCH   4   9
BRANCH   5  16
HETATM   16  N5  UNL     1     -14.634  40.187 -13.125  1.00  0.00    -0.110 N 
HETATM   17  O3  UNL     1     -14.409  40.077 -11.932  1.00  0.00    -0.532 OA
HETATM   18  O4  UNL     1     -13.547  40.119 -13.999  1.00  0.00    -0.532 OA
ENDBRANCH   5  16
BRANCH   1  19
HETATM   19  N1  UNL     1     -19.478  40.848 -15.488  1.00  0.00    -0.230 N 
HETATM   20  C1  UNL     1     -19.541  41.503 -16.779  1.00  0.00     0.165 C 
ATOM     21  H1  UNL     1     -20.322  40.468 -15.059  1.00  0.00     0.177 HD
ENDBRANCH   1  19
TORSDOF 4
ENDMDL
