MODEL 1
REMARK VINA RESULT: -7.240758711      0.000      0.000
REMARK  4 active torsions:
REMARK  status: ('A' for Active; 'I' for Inactive)
REMARK    1  A    between atoms: C3_3  and  O1_4 
REMARK    2  A    between atoms: C4_7  and  C5_8 
REMARK    3  A    between atoms: C5_8  and  N1_10 
REMARK    4  A    between atoms: C7_16  and  N2_17 
REMARK       I    between atoms: N2_17  and  C8_19 
ROOT
HETATM    1  C1  UNL     1     -17.804  40.484 -15.905  1.00  0.00     0.018 C 
HETATM    2  C2  UNL     1     -17.582  40.145 -14.766  1.00  0.00    -0.045 C 
HETATM    3  C3  UNL     1     -17.301  39.711 -13.384  1.00  0.00     0.280 C 
HETATM    4  O2  UNL     1     -17.394  38.324 -13.264  1.00  0.00    -0.306 OA
HETATM    5  C4  UNL     1     -16.858  38.046 -12.006  1.00  0.00     0.331 C 
HETATM    6  O3  UNL     1     -15.505  38.237 -12.107  1.00  0.00    -0.203 OA
HETATM    7  O4  UNL     1     -15.232  39.483 -12.140  1.00  0.00    -0.205 OA
HETATM    8  C7  UNL     1     -16.011  40.278 -12.932  1.00  0.00     0.338 C 
ENDROOT
BRANCH   3   9
HETATM    9  O1  UNL     1     -18.354  40.233 -12.608  1.00  0.00    -0.352 OA
ATOM     10  H1  UNL     1     -18.311  39.769 -11.780  1.00  0.00     0.214 HD
ENDBRANCH   3   9
BRANCH   8  11
HETATM   11  N2  UNL     1     -16.270  41.515 -12.197  1.00  0.00    -0.327 N 
HETATM   12  C8  UNL     1     -15.693  42.753 -12.584  1.00  0.00     0.215 C 
HETATM   13  C9  UNL     1     -15.953  43.996 -11.845  1.00  0.00     0.117 C 
HETATM   14  O5  UNL     1     -14.941  42.746 -13.596  1.00  0.00    -0.274 OA
ATOM     15  H2  UNL     1     -16.884  41.488 -11.383  1.00  0.00     0.165 HD
ENDBRANCH   8  11
BRANCH   5  16
HETATM   16  C5  UNL     1     -17.262  36.701 -11.483  1.00  0.00     0.237 C 
HETATM   17  C6  UNL     1     -16.595  36.335 -10.198  1.00  0.00     0.045 C 
BRANCH  16  18
HETATM   18  N1  UNL     1     -18.706  36.719 -11.320  1.00  0.00    -0.071 N 
ATOM     19  H13 UNL     1     -19.027  36.135 -10.548  1.00  0.00     0.274 HD
ATOM     20  H12 UNL     1     -19.057  37.609 -10.967  1.00  0.00     0.274 HD
ATOM     21  H11 UNL     1     -19.115  36.455 -12.216  1.00  0.00     0.274 HD
ENDBRANCH  16  18
ENDBRANCH   5  16
TORSDOF 4
ENDMDL
MODEL 2
REMARK VINA RESULT: -7.052113448      3.245      6.662
REMARK  4 active torsions:
REMARK  status: ('A' for Active; 'I' for Inactive)
REMARK    1  A    between atoms: C3_3  and  O1_4 
REMARK    2  A    between atoms: C4_7  and  C5_8 
REMARK    3  A    between atoms: C5_8  and  N1_10 
REMARK    4  A    between atoms: C7_16  and  N2_17 
REMARK       I    between atoms: N2_17  and  C8_19 
ROOT
HETATM    1  C1  UNL     1     -15.288  33.747  -9.809  1.00  0.00     0.018 C 
HETATM    2  C2  UNL     1     -15.871  34.806  -9.789  1.00  0.00    -0.045 C 
HETATM    3  C3  UNL     1     -16.583  36.098  -9.790  1.00  0.00     0.280 C 
HETATM    4  O2  UNL     1     -16.254  36.853 -10.916  1.00  0.00    -0.306 OA
HETATM    5  C4  UNL     1     -17.177  37.900 -10.917  1.00  0.00     0.331 C 
HETATM    6  O3  UNL     1     -18.382  37.357 -11.276  1.00  0.00    -0.203 OA
HETATM    7  O4  UNL     1     -18.877  36.690 -10.305  1.00  0.00    -0.205 OA
HETATM    8  C7  UNL     1     -18.034  35.872  -9.609  1.00  0.00     0.338 C 
ENDROOT
BRANCH   3   9
HETATM    9  O1  UNL     1     -16.066  36.810  -8.689  1.00  0.00    -0.352 OA
ATOM     10  H1  UNL     1     -15.434  37.416  -9.056  1.00  0.00     0.214 HD
ENDBRANCH   3   9
BRANCH   8  11
HETATM   11  N2  UNL     1     -18.360  36.006  -8.190  1.00  0.00    -0.327 N 
HETATM   12  C8  UNL     1     -18.554  34.875  -7.354  1.00  0.00     0.215 C 
HETATM   13  C9  UNL     1     -18.883  35.012  -5.928  1.00  0.00     0.117 C 
HETATM   14  O5  UNL     1     -18.434  33.739  -7.885  1.00  0.00    -0.274 OA
ATOM     15  H2  UNL     1     -18.451  36.940  -7.789  1.00  0.00     0.165 HD
ENDBRANCH   8  11
BRANCH   5  16
HETATM   16  C5  UNL     1     -16.741  39.063 -11.755  1.00  0.00     0.237 C 
HETATM   17  C6  UNL     1     -15.558  38.766 -12.618  1.00  0.00     0.045 C 
BRANCH  16  18
HETATM   18  N1  UNL     1     -17.878  39.457 -12.569  1.00  0.00    -0.071 N 
ATOM     19  H13 UNL     1     -18.266  38.687 -13.113  1.00  0.00     0.274 HD
ATOM     20  H12 UNL     1     -18.712  39.663 -12.019  1.00  0.00     0.274 HD
ATOM     21  H11 UNL     1     -17.578  40.242 -13.147  1.00  0.00     0.274 HD
ENDBRANCH  16  18
ENDBRANCH   5  16
TORSDOF 4
ENDMDL
MODEL 3
REMARK VINA RESULT: -6.976625749      2.264      5.556
REMARK  4 active torsions:
REMARK  status: ('A' for Active; 'I' for Inactive)
REMARK    1  A    between atoms: C3_3  and  O1_4 
REMARK    2  A    between atoms: C4_7  and  C5_8 
REMARK    3  A    between atoms: C5_8  and  N1_10 
REMARK    4  A    between atoms: C7_16  and  N2_17 
REMARK       I    between atoms: N2_17  and  C8_19 
ROOT
HETATM    1  C1  UNL     1     -19.854  37.150  -9.244  1.00  0.00     0.018 C 
HETATM    2  C2  UNL     1     -19.069  37.278 -10.154  1.00  0.00    -0.045 C 
HETATM    3  C3  UNL     1     -18.113  37.459 -11.263  1.00  0.00     0.280 C 
HETATM    4  O2  UNL     1     -18.405  38.608 -11.997  1.00  0.00    -0.306 OA
HETATM    5  C4  UNL     1     -17.294  38.788 -12.821  1.00  0.00     0.331 C 
HETATM    6  O3  UNL     1     -16.274  39.215 -12.014  1.00  0.00    -0.203 OA
HETATM    7  O4  UNL     1     -15.819  38.244 -11.320  1.00  0.00    -0.205 OA
HETATM    8  C7  UNL     1     -16.728  37.402 -10.745  1.00  0.00     0.338 C 
ENDROOT
BRANCH   3   9
HETATM    9  O1  UNL     1     -18.345  36.378 -12.136  1.00  0.00    -0.352 OA
ATOM     10  H1  UNL     1     -17.627  36.399 -12.758  1.00  0.00     0.214 HD
ENDBRANCH   3   9
BRANCH   8  11
HETATM   11  N2  UNL     1     -16.222  36.038 -10.897  1.00  0.00    -0.327 N 
HETATM   12  C8  UNL     1     -15.934  35.215  -9.777  1.00  0.00     0.215 C 
HETATM   13  C9  UNL     1     -15.425  33.845  -9.930  1.00  0.00     0.117 C 
HETATM   14  O5  UNL     1     -16.132  35.709  -8.633  1.00  0.00    -0.274 OA
ATOM     15  H2  UNL     1     -16.073  35.667 -11.836  1.00  0.00     0.165 HD
ENDBRANCH   8  11
BRANCH   5  16
HETATM   16  C5  UNL     1     -17.575  39.677 -13.995  1.00  0.00     0.237 C 
HETATM   17  C6  UNL     1     -17.562  41.132 -13.659  1.00  0.00     0.045 C 
BRANCH  16  18
HETATM   18  N1  UNL     1     -16.577  39.380 -15.009  1.00  0.00    -0.071 N 
ATOM     19  H13 UNL     1     -15.911  40.140 -15.148  1.00  0.00     0.274 HD
ATOM     20  H12 UNL     1     -15.907  38.670 -14.715  1.00  0.00     0.274 HD
ATOM     21  H11 UNL     1     -17.078  39.129 -15.861  1.00  0.00     0.274 HD
ENDBRANCH  16  18
ENDBRANCH   5  16
TORSDOF 4
ENDMDL
MODEL 4
REMARK VINA RESULT: -6.806884758      2.084      5.224
REMARK  4 active torsions:
REMARK  status: ('A' for Active; 'I' for Inactive)
REMARK    1  A    between atoms: C3_3  and  O1_4 
REMARK    2  A    between atoms: C4_7  and  C5_8 
REMARK    3  A    between atoms: C5_8  and  N1_10 
REMARK    4  A    between atoms: C7_16  and  N2_17 
REMARK       I    between atoms: N2_17  and  C8_19 
ROOT
HETATM    1  C1  UNL     1     -15.302  41.665 -11.850  1.00  0.00     0.018 C 
HETATM    2  C2  UNL     1     -16.125  41.256 -12.634  1.00  0.00    -0.045 C 
HETATM    3  C3  UNL     1     -17.117  40.766 -13.612  1.00  0.00     0.280 C 
HETATM    4  O2  UNL     1     -17.131  41.561 -14.757  1.00  0.00    -0.306 OA
HETATM    5  C4  UNL     1     -17.901  40.842 -15.672  1.00  0.00     0.331 C 
HETATM    6  O3  UNL     1     -17.138  39.777 -16.071  1.00  0.00    -0.203 OA
HETATM    7  O4  UNL     1     -17.092  38.893 -15.151  1.00  0.00    -0.205 OA
HETATM    8  C7  UNL     1     -16.894  39.326 -13.871  1.00  0.00     0.338 C 
ENDROOT
BRANCH   3   9
HETATM    9  O1  UNL     1     -18.371  40.955 -12.998  1.00  0.00    -0.352 OA
ATOM     10  H1  UNL     1     -18.808  41.619 -13.519  1.00  0.00     0.214 HD
ENDBRANCH   3   9
BRANCH   8  11
HETATM   11  N2  UNL     1     -17.775  38.547 -13.001  1.00  0.00    -0.327 N 
HETATM   12  C8  UNL     1     -17.266  37.712 -11.971  1.00  0.00     0.215 C 
HETATM   13  C9  UNL     1     -18.151  36.930 -11.098  1.00  0.00     0.117 C 
HETATM   14  O5  UNL     1     -16.013  37.667 -11.833  1.00  0.00    -0.274 OA
ATOM     15  H2  UNL     1     -18.784  38.605 -13.138  1.00  0.00     0.165 HD
ENDBRANCH   8  11
BRANCH   5  16
HETATM   16  C5  UNL     1     -18.423  41.691 -16.791  1.00  0.00     0.237 C 
HETATM   17  C6  UNL     1     -19.888  41.529 -17.030  1.00  0.00     0.045 C 
BRANCH  16  18
HETATM   18  N1  UNL     1     -18.111  43.073 -16.465  1.00  0.00    -0.071 N 
ATOM     19  H13 UNL     1     -17.111  43.243 -16.362  1.00  0.00     0.274 HD
ATOM     20  H12 UNL     1     -18.274  43.713 -17.242  1.00  0.00     0.274 HD
ATOM     21  H11 UNL     1     -18.644  43.314 -15.630  1.00  0.00     0.274 HD
ENDBRANCH  16  18
ENDBRANCH   5  16
TORSDOF 4
ENDMDL
MODEL 5
REMARK VINA RESULT: -6.712396109      2.072      5.049
REMARK  4 active torsions:
REMARK  status: ('A' for Active; 'I' for Inactive)
REMARK    1  A    between atoms: C3_3  and  O1_4 
REMARK    2  A    between atoms: C4_7  and  C5_8 
REMARK    3  A    between atoms: C5_8  and  N1_10 
REMARK    4  A    between atoms: C7_16  and  N2_17 
REMARK       I    between atoms: N2_17  and  C8_19 
ROOT
HETATM    1  C1  UNL     1     -13.519  39.781 -12.622  1.00  0.00     0.018 C 
HETATM    2  C2  UNL     1     -14.681  39.832 -12.950  1.00  0.00    -0.045 C 
HETATM    3  C3  UNL     1     -16.093  39.895 -13.373  1.00  0.00     0.280 C 
HETATM    4  O2  UNL     1     -16.233  40.629 -14.551  1.00  0.00    -0.306 OA
HETATM    5  C4  UNL     1     -17.544  40.383 -14.961  1.00  0.00     0.331 C 
HETATM    6  O3  UNL     1     -17.575  39.094 -15.420  1.00  0.00    -0.203 OA
HETATM    7  O4  UNL     1     -17.543  38.272 -14.443  1.00  0.00    -0.205 OA
HETATM    8  C7  UNL     1     -16.660  38.529 -13.434  1.00  0.00     0.338 C 
ENDROOT
BRANCH   3   9
HETATM    9  O1  UNL     1     -16.749  40.643 -12.376  1.00  0.00    -0.352 OA
ATOM     10  H1  UNL     1     -17.559  40.179 -12.205  1.00  0.00     0.214 HD
ENDBRANCH   3   9
BRANCH   8  11
HETATM   11  N2  UNL     1     -17.338  38.242 -12.170  1.00  0.00    -0.327 N 
HETATM   12  C8  UNL     1     -16.857  37.258 -11.267  1.00  0.00     0.215 C 
HETATM   13  C9  UNL     1     -17.540  36.970  -9.998  1.00  0.00     0.117 C 
HETATM   14  O5  UNL     1     -15.813  36.633 -11.598  1.00  0.00    -0.274 OA
ATOM     15  H2  UNL     1     -18.181  38.765 -11.931  1.00  0.00     0.165 HD
ENDBRANCH   8  11
BRANCH   5  16
HETATM   16  C5  UNL     1     -18.053  41.405 -15.933  1.00  0.00     0.237 C 
HETATM   17  C6  UNL     1     -19.486  41.212 -16.307  1.00  0.00     0.045 C 
BRANCH  16  18
HETATM   18  N1  UNL     1     -17.858  42.711 -15.326  1.00  0.00    -0.071 N 
ATOM     19  H13 UNL     1     -18.654  43.335 -15.455  1.00  0.00     0.274 HD
ATOM     20  H12 UNL     1     -17.875  42.685 -14.306  1.00  0.00     0.274 HD
ATOM     21  H11 UNL     1     -16.989  43.092 -15.701  1.00  0.00     0.274 HD
ENDBRANCH  16  18
ENDBRANCH   5  16
TORSDOF 4
ENDMDL
