MODEL 1
REMARK VINA RESULT: -9.209034086      0.000      0.000
REMARK  14 active torsions:
REMARK  status: ('A' for Active; 'I' for Inactive)
REMARK    1  A    between atoms: C3_3  and  C5_5 
REMARK    2  A    between atoms: C3_3  and  C13_14 
REMARK    3  A    between atoms: C6_6  and  C7_7 
REMARK    4  A    between atoms: C8_8  and  C10_10 
REMARK    5  A    between atoms: C11_11  and  C12_12 
REMARK    6  A    between atoms: C13_14  and  O2_15 
REMARK    7  A    between atoms: C13_14  and  C14_17 
REMARK    8  A    between atoms: C14_17  and  C15_18 
REMARK    9  A    between atoms: C16_19  and  C18_21 
REMARK   10  A    between atoms: C18_21  and  C19_22 
REMARK   11  A    between atoms: C19_22  and  C20_23 
REMARK   12  A    between atoms: C23_26  and  C24_27 
REMARK   13  A    between atoms: C24_27  and  O3_28 
REMARK   14  A    between atoms: C27_33  and  O5_34 
ROOT
HETATM    1  C1  UNL     1      32.578  46.434  34.268  1.00  0.00     0.098 C 
HETATM    2  C2  UNL     1      31.619  45.666  34.341  1.00  0.00    -0.171 C 
HETATM    3  C3  UNL     1      30.442  44.757  34.473  1.00  0.00     0.051 C 
HETATM    4  C4  UNL     1      29.231  45.586  34.643  1.00  0.00     0.035 C 
ENDROOT
BRANCH   3   5
HETATM    5  C5  UNL     1      30.325  44.031  33.146  1.00  0.00    -0.003 C 
HETATM    6  C6  UNL     1      29.177  43.750  32.580  1.00  0.00    -0.002 C 
BRANCH   6   7
HETATM    7  C7  UNL     1      29.084  43.063  31.323  1.00  0.00     0.006 C 
HETATM    8  C8  UNL     1      28.196  42.153  31.033  1.00  0.00    -0.062 C 
HETATM    9  C9  UNL     1      28.242  41.537  29.664  1.00  0.00     0.048 C 
BRANCH   8  10
HETATM   10  C10 UNL     1      27.205  41.705  31.963  1.00  0.00     0.010 C 
HETATM   11  C11 UNL     1      26.838  40.455  32.061  1.00  0.00     0.042 C 
BRANCH  11  12
HETATM   12  C12 UNL     1      25.813  40.097  33.054  1.00  0.00     0.258 C 
HETATM   13  O1  UNL     1      26.076  40.243  34.282  1.00  0.00    -0.302 OA
ENDBRANCH  11  12
ENDBRANCH   8  10
ENDBRANCH   6   7
ENDBRANCH   3   5
BRANCH   3  14
HETATM   14  C13 UNL     1      30.792  43.782  35.526  1.00  0.00     0.144 C 
BRANCH  14  15
HETATM   15  O2  UNL     1      31.305  42.624  34.952  1.00  0.00    -0.393 OA
ATOM     16  H2  UNL     1      31.347  41.930  35.600  1.00  0.00     0.210 HD
ENDBRANCH  14  15
BRANCH  14  17
HETATM   17  C14 UNL     1      29.803  43.479  36.586  1.00  0.00     0.061 C 
BRANCH  17  18
HETATM   18  C15 UNL     1      30.185  42.394  37.511  1.00  0.00    -0.022 C 
HETATM   19  C16 UNL     1      29.452  41.329  37.741  1.00  0.00    -0.087 C 
HETATM   20  C17 UNL     1      28.155  41.173  37.047  1.00  0.00     0.043 C 
BRANCH  19  21
HETATM   21  C18 UNL     1      29.886  40.288  38.701  1.00  0.00     0.037 C 
BRANCH  21  22
HETATM   22  C19 UNL     1      29.770  40.871  40.104  1.00  0.00     0.032 C 
BRANCH  22  23
HETATM   23  C20 UNL     1      31.012  41.473  40.569  1.00  0.00    -0.021 C 
HETATM   24  C21 UNL     1      31.932  40.875  41.262  1.00  0.00    -0.054 C 
HETATM   25  C22 UNL     1      31.837  39.477  41.682  1.00  0.00     0.050 C 
HETATM   26  C27 UNL     1      33.135  41.684  41.602  1.00  0.00     0.154 C 
HETATM   27  C23 UNL     1      32.583  39.124  42.955  1.00  0.00     0.083 C 
HETATM   28  C25 UNL     1      33.833  39.850  43.117  1.00  0.00     0.136 C 
HETATM   29  O4  UNL     1      34.588  39.549  44.034  1.00  0.00    -0.297 OA
HETATM   30  C26 UNL     1      34.267  40.954  42.219  1.00  0.00     0.115 C 
BRANCH  27  31
HETATM   31  C24 UNL     1      31.610  39.286  44.108  1.00  0.00     0.176 C 
BRANCH  31  32
HETATM   32  O3  UNL     1      32.008  38.563  45.228  1.00  0.00    -0.400 OA
ATOM     33  H3  UNL     1      32.073  37.633  45.045  1.00  0.00     0.209 HD
ENDBRANCH  31  32
ENDBRANCH  27  31
BRANCH  26  34
HETATM   34  O5  UNL     1      32.832  42.801  42.401  1.00  0.00    -0.391 OA
ATOM     35  H5  UNL     1      33.447  42.920  43.114  1.00  0.00     0.210 HD
ENDBRANCH  26  34
ENDBRANCH  22  23
ENDBRANCH  21  22
ENDBRANCH  19  21
ENDBRANCH  17  18
ENDBRANCH  14  17
ENDBRANCH   3  14
TORSDOF 14
ENDMDL
MODEL 2
REMARK VINA RESULT: -9.120224828      0.960      1.240
REMARK  14 active torsions:
REMARK  status: ('A' for Active; 'I' for Inactive)
REMARK    1  A    between atoms: C3_3  and  C5_5 
REMARK    2  A    between atoms: C3_3  and  C13_14 
REMARK    3  A    between atoms: C6_6  and  C7_7 
REMARK    4  A    between atoms: C8_8  and  C10_10 
REMARK    5  A    between atoms: C11_11  and  C12_12 
REMARK    6  A    between atoms: C13_14  and  O2_15 
REMARK    7  A    between atoms: C13_14  and  C14_17 
REMARK    8  A    between atoms: C14_17  and  C15_18 
REMARK    9  A    between atoms: C16_19  and  C18_21 
REMARK   10  A    between atoms: C18_21  and  C19_22 
REMARK   11  A    between atoms: C19_22  and  C20_23 
REMARK   12  A    between atoms: C23_26  and  C24_27 
REMARK   13  A    between atoms: C24_27  and  O3_28 
REMARK   14  A    between atoms: C27_33  and  O5_34 
ROOT
HETATM    1  C1  UNL     1      32.699  46.711  34.144  1.00  0.00     0.098 C 
HETATM    2  C2  UNL     1      31.714  45.975  34.179  1.00  0.00    -0.171 C 
HETATM    3  C3  UNL     1      30.504  45.105  34.264  1.00  0.00     0.051 C 
HETATM    4  C4  UNL     1      29.315  45.973  34.394  1.00  0.00     0.035 C 
ENDROOT
BRANCH   3   5
HETATM    5  C5  UNL     1      30.411  44.388  32.930  1.00  0.00    -0.003 C 
HETATM    6  C6  UNL     1      29.309  43.830  32.491  1.00  0.00    -0.002 C 
BRANCH   6   7
HETATM    7  C7  UNL     1      29.238  43.156  31.225  1.00  0.00     0.006 C 
HETATM    8  C8  UNL     1      28.482  42.124  30.969  1.00  0.00    -0.062 C 
HETATM    9  C9  UNL     1      28.530  41.543  29.585  1.00  0.00     0.048 C 
BRANCH   8  10
HETATM   10  C10 UNL     1      27.636  41.515  31.950  1.00  0.00     0.010 C 
HETATM   11  C11 UNL     1      26.444  41.058  31.672  1.00  0.00     0.042 C 
BRANCH  11  12
HETATM   12  C12 UNL     1      25.656  40.444  32.752  1.00  0.00     0.258 C 
HETATM   13  O1  UNL     1      26.122  40.452  33.928  1.00  0.00    -0.302 OA
ENDBRANCH  11  12
ENDBRANCH   8  10
ENDBRANCH   6   7
ENDBRANCH   3   5
BRANCH   3  14
HETATM   14  C13 UNL     1      30.783  44.115  35.325  1.00  0.00     0.144 C 
BRANCH  14  15
HETATM   15  O2  UNL     1      31.457  43.022  34.791  1.00  0.00    -0.393 OA
ATOM     16  H2  UNL     1      31.244  42.927  33.869  1.00  0.00     0.210 HD
ENDBRANCH  14  15
BRANCH  14  17
HETATM   17  C14 UNL     1      29.687  43.698  36.228  1.00  0.00     0.061 C 
BRANCH  17  18
HETATM   18  C15 UNL     1      30.058  42.692  37.243  1.00  0.00    -0.022 C 
HETATM   19  C16 UNL     1      29.727  41.423  37.178  1.00  0.00    -0.087 C 
HETATM   20  C17 UNL     1      28.932  40.934  36.030  1.00  0.00     0.043 C 
BRANCH  19  21
HETATM   21  C18 UNL     1      30.113  40.471  38.246  1.00  0.00     0.037 C 
BRANCH  21  22
HETATM   22  C19 UNL     1      30.340  41.270  39.523  1.00  0.00     0.032 C 
BRANCH  22  23
HETATM   23  C20 UNL     1      31.660  41.052  40.098  1.00  0.00    -0.021 C 
HETATM   24  C21 UNL     1      31.904  40.566  41.277  1.00  0.00    -0.054 C 
HETATM   25  C22 UNL     1      30.851  40.169  42.212  1.00  0.00     0.050 C 
HETATM   26  C27 UNL     1      33.338  40.403  41.642  1.00  0.00     0.154 C 
HETATM   27  C23 UNL     1      31.216  40.257  43.683  1.00  0.00     0.083 C 
HETATM   28  C25 UNL     1      32.603  39.919  43.959  1.00  0.00     0.136 C 
HETATM   29  O4  UNL     1      32.976  39.820  45.123  1.00  0.00    -0.297 OA
HETATM   30  C26 UNL     1      33.618  39.673  42.900  1.00  0.00     0.115 C 
BRANCH  27  31
HETATM   31  C24 UNL     1      30.796  41.631  44.170  1.00  0.00     0.176 C 
BRANCH  31  32
HETATM   32  O3  UNL     1      31.862  42.524  44.186  1.00  0.00    -0.400 OA
ATOM     33  H3  UNL     1      32.230  42.652  43.318  1.00  0.00     0.209 HD
ENDBRANCH  31  32
ENDBRANCH  27  31
BRANCH  26  34
HETATM   34  O5  UNL     1      34.035  41.624  41.666  1.00  0.00    -0.391 OA
ATOM     35  H5  UNL     1      34.961  41.522  41.480  1.00  0.00     0.210 HD
ENDBRANCH  26  34
ENDBRANCH  22  23
ENDBRANCH  21  22
ENDBRANCH  19  21
ENDBRANCH  17  18
ENDBRANCH  14  17
ENDBRANCH   3  14
TORSDOF 14
ENDMDL
MODEL 3
REMARK VINA RESULT: -8.866601518      1.039      1.838
REMARK  14 active torsions:
REMARK  status: ('A' for Active; 'I' for Inactive)
REMARK    1  A    between atoms: C3_3  and  C5_5 
REMARK    2  A    between atoms: C3_3  and  C13_14 
REMARK    3  A    between atoms: C6_6  and  C7_7 
REMARK    4  A    between atoms: C8_8  and  C10_10 
REMARK    5  A    between atoms: C11_11  and  C12_12 
REMARK    6  A    between atoms: C13_14  and  O2_15 
REMARK    7  A    between atoms: C13_14  and  C14_17 
REMARK    8  A    between atoms: C14_17  and  C15_18 
REMARK    9  A    between atoms: C16_19  and  C18_21 
REMARK   10  A    between atoms: C18_21  and  C19_22 
REMARK   11  A    between atoms: C19_22  and  C20_23 
REMARK   12  A    between atoms: C23_26  and  C24_27 
REMARK   13  A    between atoms: C24_27  and  O3_28 
REMARK   14  A    between atoms: C27_33  and  O5_34 
ROOT
HETATM    1  C1  UNL     1      32.752  46.602  34.259  1.00  0.00     0.098 C 
HETATM    2  C2  UNL     1      31.735  45.914  34.325  1.00  0.00    -0.171 C 
HETATM    3  C3  UNL     1      30.488  45.103  34.447  1.00  0.00     0.051 C 
HETATM    4  C4  UNL     1      29.344  46.027  34.587  1.00  0.00     0.035 C 
ENDROOT
BRANCH   3   5
HETATM    5  C5  UNL     1      30.335  44.371  33.127  1.00  0.00    -0.003 C 
HETATM    6  C6  UNL     1      29.186  43.921  32.685  1.00  0.00    -0.002 C 
BRANCH   6   7
HETATM    7  C7  UNL     1      29.059  43.231  31.432  1.00  0.00     0.006 C 
HETATM    8  C8  UNL     1      28.335  42.164  31.237  1.00  0.00    -0.062 C 
HETATM    9  C9  UNL     1      28.314  41.572  29.857  1.00  0.00     0.048 C 
BRANCH   8  10
HETATM   10  C10 UNL     1      27.587  41.527  32.278  1.00  0.00     0.010 C 
HETATM   11  C11 UNL     1      26.757  40.543  32.055  1.00  0.00     0.042 C 
BRANCH  11  12
HETATM   12  C12 UNL     1      26.040  39.954  33.196  1.00  0.00     0.258 C 
HETATM   13  O1  UNL     1      24.874  40.365  33.463  1.00  0.00    -0.302 OA
ENDBRANCH  11  12
ENDBRANCH   8  10
ENDBRANCH   6   7
ENDBRANCH   3   5
BRANCH   3  14
HETATM   14  C13 UNL     1      30.742  44.117  35.518  1.00  0.00     0.144 C 
BRANCH  14  15
HETATM   15  O2  UNL     1      31.395  43.005  34.996  1.00  0.00    -0.393 OA
ATOM     16  H2  UNL     1      30.810  42.256  34.995  1.00  0.00     0.210 HD
ENDBRANCH  14  15
BRANCH  14  17
HETATM   17  C14 UNL     1      29.634  43.731  36.421  1.00  0.00     0.061 C 
BRANCH  17  18
HETATM   18  C15 UNL     1      29.966  42.690  37.414  1.00  0.00    -0.022 C 
HETATM   19  C16 UNL     1      29.443  41.486  37.421  1.00  0.00    -0.087 C 
HETATM   20  C17 UNL     1      28.456  41.112  36.385  1.00  0.00     0.043 C 
BRANCH  19  21
HETATM   21  C18 UNL     1      29.804  40.495  38.463  1.00  0.00     0.037 C 
BRANCH  21  22
HETATM   22  C19 UNL     1      29.533  41.130  39.821  1.00  0.00     0.032 C 
BRANCH  22  23
HETATM   23  C20 UNL     1      29.945  40.282  40.932  1.00  0.00    -0.021 C 
HETATM   24  C21 UNL     1      30.928  40.521  41.745  1.00  0.00    -0.054 C 
HETATM   25  C22 UNL     1      31.780  41.706  41.646  1.00  0.00     0.050 C 
HETATM   26  C27 UNL     1      31.147  39.525  42.830  1.00  0.00     0.154 C 
HETATM   27  C23 UNL     1      33.193  41.543  42.174  1.00  0.00     0.083 C 
HETATM   28  C25 UNL     1      33.281  40.677  43.340  1.00  0.00     0.136 C 
HETATM   29  O4  UNL     1      34.348  40.581  43.936  1.00  0.00    -0.297 OA
HETATM   30  C26 UNL     1      32.136  39.890  43.870  1.00  0.00     0.115 C 
BRANCH  27  31
HETATM   31  C24 UNL     1      34.063  41.116  41.008  1.00  0.00     0.176 C 
BRANCH  31  32
HETATM   32  O3  UNL     1      33.960  39.752  40.756  1.00  0.00    -0.400 OA
ATOM     33  H3  UNL     1      34.804  39.364  40.553  1.00  0.00     0.209 HD
ENDBRANCH  31  32
ENDBRANCH  27  31
BRANCH  26  34
HETATM   34  O5  UNL     1      31.464  38.246  42.337  1.00  0.00    -0.391 OA
ATOM     35  H5  UNL     1      32.399  38.080  42.322  1.00  0.00     0.210 HD
ENDBRANCH  26  34
ENDBRANCH  22  23
ENDBRANCH  21  22
ENDBRANCH  19  21
ENDBRANCH  17  18
ENDBRANCH  14  17
ENDBRANCH   3  14
TORSDOF 14
ENDMDL
MODEL 4
REMARK VINA RESULT: -8.847098569      2.942      6.939
REMARK  14 active torsions:
REMARK  status: ('A' for Active; 'I' for Inactive)
REMARK    1  A    between atoms: C3_3  and  C5_5 
REMARK    2  A    between atoms: C3_3  and  C13_14 
REMARK    3  A    between atoms: C6_6  and  C7_7 
REMARK    4  A    between atoms: C8_8  and  C10_10 
REMARK    5  A    between atoms: C11_11  and  C12_12 
REMARK    6  A    between atoms: C13_14  and  O2_15 
REMARK    7  A    between atoms: C13_14  and  C14_17 
REMARK    8  A    between atoms: C14_17  and  C15_18 
REMARK    9  A    between atoms: C16_19  and  C18_21 
REMARK   10  A    between atoms: C18_21  and  C19_22 
REMARK   11  A    between atoms: C19_22  and  C20_23 
REMARK   12  A    between atoms: C23_26  and  C24_27 
REMARK   13  A    between atoms: C24_27  and  O3_28 
REMARK   14  A    between atoms: C27_33  and  O5_34 
ROOT
HETATM    1  C1  UNL     1      31.187  46.734  35.430  1.00  0.00     0.098 C 
HETATM    2  C2  UNL     1      30.789  45.625  35.075  1.00  0.00    -0.171 C 
HETATM    3  C3  UNL     1      30.336  44.283  34.605  1.00  0.00     0.051 C 
HETATM    4  C4  UNL     1      31.530  43.455  34.339  1.00  0.00     0.035 C 
ENDROOT
BRANCH   3   5
HETATM    5  C5  UNL     1      29.590  43.661  35.771  1.00  0.00    -0.003 C 
HETATM    6  C6  UNL     1      30.181  42.973  36.716  1.00  0.00    -0.002 C 
BRANCH   6   7
HETATM    7  C7  UNL     1      29.461  42.393  37.813  1.00  0.00     0.006 C 
HETATM    8  C8  UNL     1      29.983  41.622  38.727  1.00  0.00    -0.062 C 
HETATM    9  C9  UNL     1      29.081  41.103  39.809  1.00  0.00     0.048 C 
BRANCH   8  10
HETATM   10  C10 UNL     1      31.361  41.236  38.727  1.00  0.00     0.010 C 
HETATM   11  C11 UNL     1      31.923  40.612  39.728  1.00  0.00     0.042 C 
BRANCH  11  12
HETATM   12  C12 UNL     1      33.347  40.255  39.626  1.00  0.00     0.258 C 
HETATM   13  O1  UNL     1      33.664  39.167  39.065  1.00  0.00    -0.302 OA
ENDBRANCH  11  12
ENDBRANCH   8  10
ENDBRANCH   6   7
ENDBRANCH   3   5
BRANCH   3  14
HETATM   14  C13 UNL     1      29.384  44.534  33.503  1.00  0.00     0.144 C 
BRANCH  14  15
HETATM   15  O2  UNL     1      28.249  45.173  33.990  1.00  0.00    -0.393 OA
ATOM     16  H2  UNL     1      27.681  44.544  34.420  1.00  0.00     0.210 HD
ENDBRANCH  14  15
BRANCH  14  17
HETATM   17  C14 UNL     1      29.040  43.428  32.580  1.00  0.00     0.061 C 
BRANCH  17  18
HETATM   18  C15 UNL     1      28.211  42.356  33.167  1.00  0.00    -0.022 C 
HETATM   19  C16 UNL     1      27.321  41.663  32.495  1.00  0.00    -0.087 C 
HETATM   20  C17 UNL     1      27.107  41.946  31.059  1.00  0.00     0.043 C 
BRANCH  19  21
HETATM   21  C18 UNL     1      26.504  40.615  33.153  1.00  0.00     0.037 C 
BRANCH  21  22
HETATM   22  C19 UNL     1      27.235  40.182  34.418  1.00  0.00     0.032 C 
BRANCH  22  23
HETATM   23  C20 UNL     1      27.110  38.755  34.681  1.00  0.00    -0.021 C 
HETATM   24  C21 UNL     1      27.409  38.159  35.794  1.00  0.00    -0.054 C 
HETATM   25  C22 UNL     1      27.932  38.865  36.964  1.00  0.00     0.050 C 
HETATM   26  C27 UNL     1      27.171  36.690  35.844  1.00  0.00     0.154 C 
HETATM   27  C23 UNL     1      28.813  38.041  37.885  1.00  0.00     0.083 C 
HETATM   28  C25 UNL     1      28.399  36.651  37.996  1.00  0.00     0.136 C 
HETATM   29  O4  UNL     1      28.949  35.925  38.816  1.00  0.00    -0.297 OA
HETATM   30  C26 UNL     1      27.324  36.042  37.167  1.00  0.00     0.115 C 
BRANCH  27  31
HETATM   31  C24 UNL     1      30.247  38.234  37.429  1.00  0.00     0.176 C 
BRANCH  31  32
HETATM   32  O3  UNL     1      31.156  37.692  38.332  1.00  0.00    -0.400 OA
ATOM     33  H3  UNL     1      32.027  37.623  37.958  1.00  0.00     0.209 HD
ENDBRANCH  31  32
ENDBRANCH  27  31
BRANCH  26  34
HETATM   34  O5  UNL     1      27.940  35.982  34.904  1.00  0.00    -0.391 OA
ATOM     35  H5  UNL     1      28.850  36.255  34.894  1.00  0.00     0.210 HD
ENDBRANCH  26  34
ENDBRANCH  22  23
ENDBRANCH  21  22
ENDBRANCH  19  21
ENDBRANCH  17  18
ENDBRANCH  14  17
ENDBRANCH   3  14
TORSDOF 14
ENDMDL
MODEL 5
REMARK VINA RESULT: -8.765436137      1.281      2.107
REMARK  14 active torsions:
REMARK  status: ('A' for Active; 'I' for Inactive)
REMARK    1  A    between atoms: C3_3  and  C5_5 
REMARK    2  A    between atoms: C3_3  and  C13_14 
REMARK    3  A    between atoms: C6_6  and  C7_7 
REMARK    4  A    between atoms: C8_8  and  C10_10 
REMARK    5  A    between atoms: C11_11  and  C12_12 
REMARK    6  A    between atoms: C13_14  and  O2_15 
REMARK    7  A    between atoms: C13_14  and  C14_17 
REMARK    8  A    between atoms: C14_17  and  C15_18 
REMARK    9  A    between atoms: C16_19  and  C18_21 
REMARK   10  A    between atoms: C18_21  and  C19_22 
REMARK   11  A    between atoms: C19_22  and  C20_23 
REMARK   12  A    between atoms: C23_26  and  C24_27 
REMARK   13  A    between atoms: C24_27  and  O3_28 
REMARK   14  A    between atoms: C27_33  and  O5_34 
ROOT
HETATM    1  C1  UNL     1      32.468  46.760  34.139  1.00  0.00     0.098 C 
HETATM    2  C2  UNL     1      31.538  45.967  34.283  1.00  0.00    -0.171 C 
HETATM    3  C3  UNL     1      30.404  45.022  34.503  1.00  0.00     0.051 C 
HETATM    4  C4  UNL     1      29.246  45.793  35.001  1.00  0.00     0.035 C 
ENDROOT
BRANCH   3   5
HETATM    5  C5  UNL     1      30.044  44.476  33.134  1.00  0.00    -0.003 C 
HETATM    6  C6  UNL     1      28.974  43.754  32.908  1.00  0.00    -0.002 C 
BRANCH   6   7
HETATM    7  C7  UNL     1      28.647  43.245  31.606  1.00  0.00     0.006 C 
HETATM    8  C8  UNL     1      27.757  42.322  31.366  1.00  0.00    -0.062 C 
HETATM    9  C9  UNL     1      27.540  41.910  29.938  1.00  0.00     0.048 C 
BRANCH   8  10
HETATM   10  C10 UNL     1      27.004  41.676  32.398  1.00  0.00     0.010 C 
HETATM   11  C11 UNL     1      26.394  40.535  32.222  1.00  0.00     0.042 C 
BRANCH  11  12
HETATM   12  C12 UNL     1      25.650  39.953  33.350  1.00  0.00     0.258 C 
HETATM   13  O1  UNL     1      24.518  40.433  33.647  1.00  0.00    -0.302 OA
ENDBRANCH  11  12
ENDBRANCH   8  10
ENDBRANCH   6   7
ENDBRANCH   3   5
BRANCH   3  14
HETATM   14  C13 UNL     1      30.939  43.924  35.334  1.00  0.00     0.144 C 
BRANCH  14  15
HETATM   15  O2  UNL     1      31.572  42.983  34.530  1.00  0.00    -0.393 OA
ATOM     16  H2  UNL     1      31.291  42.108  34.770  1.00  0.00     0.210 HD
ENDBRANCH  14  15
BRANCH  14  17
HETATM   17  C14 UNL     1      30.060  43.287  36.341  1.00  0.00     0.061 C 
BRANCH  17  18
HETATM   18  C15 UNL     1      30.513  41.968  36.826  1.00  0.00    -0.022 C 
HETATM   19  C16 UNL     1      29.920  40.833  36.535  1.00  0.00    -0.087 C 
HETATM   20  C17 UNL     1      28.720  40.836  35.670  1.00  0.00     0.043 C 
BRANCH  19  21
HETATM   21  C18 UNL     1      30.415  39.545  37.076  1.00  0.00     0.037 C 
BRANCH  21  22
HETATM   22  C19 UNL     1      31.480  39.858  38.120  1.00  0.00     0.032 C 
BRANCH  22  23
HETATM   23  C20 UNL     1      31.100  39.427  39.459  1.00  0.00    -0.021 C 
HETATM   24  C21 UNL     1      31.185  40.141  40.540  1.00  0.00    -0.054 C 
HETATM   25  C22 UNL     1      31.694  41.513  40.554  1.00  0.00     0.050 C 
HETATM   26  C27 UNL     1      30.709  39.500  41.796  1.00  0.00     0.154 C 
HETATM   27  C23 UNL     1      32.333  41.960  41.856  1.00  0.00     0.083 C 
HETATM   28  C25 UNL     1      31.692  41.407  43.038  1.00  0.00     0.136 C 
HETATM   29  O4  UNL     1      32.031  41.805  44.147  1.00  0.00    -0.297 OA
HETATM   30  C26 UNL     1      30.622  40.374  42.989  1.00  0.00     0.115 C 
BRANCH  27  31
HETATM   31  C24 UNL     1      33.818  41.667  41.753  1.00  0.00     0.176 C 
BRANCH  31  32
HETATM   32  O3  UNL     1      34.239  40.774  42.733  1.00  0.00    -0.400 OA
ATOM     33  H3  UNL     1      34.910  41.151  43.291  1.00  0.00     0.209 HD
ENDBRANCH  31  32
ENDBRANCH  27  31
BRANCH  26  34
HETATM   34  O5  UNL     1      31.446  38.351  42.133  1.00  0.00    -0.391 OA
ATOM     35  H5  UNL     1      31.549  38.242  43.071  1.00  0.00     0.210 HD
ENDBRANCH  26  34
ENDBRANCH  22  23
ENDBRANCH  21  22
ENDBRANCH  19  21
ENDBRANCH  17  18
ENDBRANCH  14  17
ENDBRANCH   3  14
TORSDOF 14
ENDMDL
