MODEL 1
REMARK VINA RESULT: -6.793499107      0.000      0.000
REMARK  14 active torsions:
REMARK  status: ('A' for Active; 'I' for Inactive)
REMARK    1  A    between atoms: N1_5  and  C4_6 
REMARK    2  A    between atoms: C7_9  and  S1_10 
REMARK    3  A    between atoms: S1_10  and  C8_11 
REMARK    4  A    between atoms: C8_11  and  C9_12 
REMARK    5  A    between atoms: C10_13  and  C11_14 
REMARK    6  A    between atoms: C10_13  and  C13_16 
REMARK    7  A    between atoms: C13_16  and  C14_17 
REMARK    8  A    between atoms: C14_17  and  C15_18 
REMARK    9  A    between atoms: C15_18  and  C16_19 
REMARK   10  A    between atoms: C16_19  and  C17_20 
REMARK   11  A    between atoms: C19_22  and  O2_23 
REMARK   12  A    between atoms: C20_25  and  C21_26 
REMARK   13  A    between atoms: C21_26  and  O3_27 
REMARK   14  A    between atoms: C22_29  and  O4_31 
ROOT
HETATM    1  C1  UNL     1      25.579  41.591  27.853  1.00  0.00     0.025 C 
HETATM    2  C2  UNL     1      26.189  41.187  28.941  1.00  0.00     0.009 C 
HETATM    3  C3  UNL     1      26.722  39.849  29.233  1.00  0.00     0.249 C 
HETATM    4  O1  UNL     1      27.095  39.017  28.359  1.00  0.00    -0.268 OA
HETATM    5  N1  UNL     1      26.731  39.689  30.679  1.00  0.00    -0.342 N 
HETATM    6  C6  UNL     1      26.196  40.881  31.204  1.00  0.00     0.115 C 
HETATM    7  C7  UNL     1      26.594  41.362  32.538  1.00  0.00     0.104 C 
HETATM    8  C19 UNL     1      27.987  41.837  32.620  1.00  0.00     0.143 C 
HETATM    9  C20 UNL     1      28.671  42.324  31.410  1.00  0.00     0.074 C 
HETATM   10  C22 UNL     1      27.912  42.392  30.138  1.00  0.00     0.072 C 
HETATM   11  C23 UNL     1      28.710  41.769  28.992  1.00  0.00     0.047 C 
HETATM   12  C24 UNL     1      26.504  41.941  30.192  1.00  0.00     0.082 C 
ENDROOT
BRANCH   7  13
HETATM   13  S1  UNL     1      26.245  40.171  33.860  1.00  0.00    -0.132 SA
BRANCH  13  14
HETATM   14  C8  UNL     1      27.582  39.784  34.919  1.00  0.00     0.045 C 
BRANCH  14  15
HETATM   15  C9  UNL     1      27.915  40.584  36.093  1.00  0.00     0.009 C 
HETATM   16  C10 UNL     1      28.893  41.321  36.489  1.00  0.00    -0.080 C 
BRANCH  16  17
HETATM   17  C11 UNL     1      30.137  41.608  35.778  1.00  0.00     0.029 C 
HETATM   18  C12 UNL     1      30.533  43.074  35.886  1.00  0.00     0.010 C 
ENDBRANCH  16  17
BRANCH  16  19
HETATM   19  C13 UNL     1      28.751  41.984  37.859  1.00  0.00     0.034 C 
BRANCH  19  20
HETATM   20  C14 UNL     1      29.157  41.058  38.965  1.00  0.00     0.004 C 
BRANCH  20  21
HETATM   21  C15 UNL     1      30.564  41.477  39.404  1.00  0.00     0.000 C 
BRANCH  21  22
HETATM   22  C16 UNL     1      31.201  40.250  40.024  1.00  0.00    -0.000 C 
BRANCH  22  23
HETATM   23  C17 UNL     1      32.453  40.614  40.798  1.00  0.00    -0.005 C 
HETATM   24  C18 UNL     1      32.087  41.499  41.964  1.00  0.00     0.005 C 
ENDBRANCH  22  23
ENDBRANCH  21  22
ENDBRANCH  20  21
ENDBRANCH  19  20
ENDBRANCH  16  19
ENDBRANCH  14  15
ENDBRANCH  13  14
ENDBRANCH   7  13
BRANCH   8  25
HETATM   25  O2  UNL     1      27.983  42.928  33.542  1.00  0.00    -0.394 OA
ATOM     26  H2  UNL     1      28.202  42.560  34.389  1.00  0.00     0.210 HD
ENDBRANCH   8  25
BRANCH   5  27
HETATM   27  C4  UNL     1      27.211  38.453  31.251  1.00  0.00     0.122 C 
HETATM   28  C5  UNL     1      26.184  37.363  31.303  1.00  0.00     0.026 C 
ENDBRANCH   5  27
BRANCH   9  29
HETATM   29  C21 UNL     1      29.398  43.647  31.708  1.00  0.00     0.174 C 
BRANCH  29  30
HETATM   30  O3  UNL     1      30.560  43.339  32.392  1.00  0.00    -0.400 OA
ATOM     31  H3  UNL     1      30.766  44.077  32.953  1.00  0.00     0.209 HD
ENDBRANCH  29  30
ENDBRANCH   9  29
BRANCH  10  32
HETATM   32  O4  UNL     1      27.839  43.767  29.775  1.00  0.00    -0.389 OA
ATOM     33  H4  UNL     1      27.940  43.809  28.831  1.00  0.00     0.210 HD
ENDBRANCH  10  32
TORSDOF 14
ENDMDL
MODEL 2
REMARK VINA RESULT: -6.777589576      4.023      6.712
REMARK  14 active torsions:
REMARK  status: ('A' for Active; 'I' for Inactive)
REMARK    1  A    between atoms: N1_5  and  C4_6 
REMARK    2  A    between atoms: C7_9  and  S1_10 
REMARK    3  A    between atoms: S1_10  and  C8_11 
REMARK    4  A    between atoms: C8_11  and  C9_12 
REMARK    5  A    between atoms: C10_13  and  C11_14 
REMARK    6  A    between atoms: C10_13  and  C13_16 
REMARK    7  A    between atoms: C13_16  and  C14_17 
REMARK    8  A    between atoms: C14_17  and  C15_18 
REMARK    9  A    between atoms: C15_18  and  C16_19 
REMARK   10  A    between atoms: C16_19  and  C17_20 
REMARK   11  A    between atoms: C19_22  and  O2_23 
REMARK   12  A    between atoms: C20_25  and  C21_26 
REMARK   13  A    between atoms: C21_26  and  O3_27 
REMARK   14  A    between atoms: C22_29  and  O4_31 
ROOT
HETATM    1  C1  UNL     1      26.769  38.211  32.145  1.00  0.00     0.025 C 
HETATM    2  C2  UNL     1      26.817  38.154  33.454  1.00  0.00     0.009 C 
HETATM    3  C3  UNL     1      26.281  39.124  34.419  1.00  0.00     0.249 C 
HETATM    4  O1  UNL     1      25.315  39.905  34.192  1.00  0.00    -0.268 OA
HETATM    5  N1  UNL     1      27.061  39.000  35.641  1.00  0.00    -0.342 N 
HETATM    6  C6  UNL     1      28.032  38.013  35.382  1.00  0.00     0.115 C 
HETATM    7  C7  UNL     1      28.572  37.183  36.472  1.00  0.00     0.104 C 
HETATM    8  C19 UNL     1      27.606  36.223  37.037  1.00  0.00     0.143 C 
HETATM    9  C20 UNL     1      26.476  35.750  36.220  1.00  0.00     0.074 C 
HETATM   10  C22 UNL     1      26.372  36.201  34.812  1.00  0.00     0.072 C 
HETATM   11  C23 UNL     1      24.957  36.686  34.496  1.00  0.00     0.047 C 
HETATM   12  C24 UNL     1      27.432  37.120  34.341  1.00  0.00     0.082 C 
ENDROOT
BRANCH   7  13
HETATM   13  S1  UNL     1      29.353  38.153  37.789  1.00  0.00    -0.132 SA
BRANCH  13  14
HETATM   14  C8  UNL     1      30.674  39.190  37.301  1.00  0.00     0.045 C 
BRANCH  14  15
HETATM   15  C9  UNL     1      30.498  40.610  37.012  1.00  0.00     0.009 C 
HETATM   16  C10 UNL     1      30.030  41.647  37.613  1.00  0.00    -0.080 C 
BRANCH  16  17
HETATM   17  C11 UNL     1      29.450  41.714  38.952  1.00  0.00     0.029 C 
HETATM   18  C12 UNL     1      30.413  41.211  40.020  1.00  0.00     0.010 C 
ENDBRANCH  16  17
BRANCH  16  19
HETATM   19  C13 UNL     1      30.085  42.972  36.853  1.00  0.00     0.034 C 
BRANCH  19  20
HETATM   20  C14 UNL     1      30.265  42.757  35.381  1.00  0.00     0.004 C 
BRANCH  20  21
HETATM   21  C15 UNL     1      30.922  44.023  34.821  1.00  0.00     0.000 C 
BRANCH  21  22
HETATM   22  C16 UNL     1      30.114  45.191  35.349  1.00  0.00    -0.000 C 
BRANCH  22  23
HETATM   23  C17 UNL     1      30.932  46.469  35.347  1.00  0.00    -0.005 C 
HETATM   24  C18 UNL     1      32.009  46.377  34.294  1.00  0.00     0.005 C 
ENDBRANCH  22  23
ENDBRANCH  21  22
ENDBRANCH  20  21
ENDBRANCH  19  20
ENDBRANCH  16  19
ENDBRANCH  14  15
ENDBRANCH  13  14
ENDBRANCH   7  13
BRANCH   8  25
HETATM   25  O2  UNL     1      28.359  35.060  37.387  1.00  0.00    -0.394 OA
ATOM     26  H2  UNL     1      27.772  34.505  37.887  1.00  0.00     0.210 HD
ENDBRANCH   8  25
BRANCH   5  27
HETATM   27  C4  UNL     1      26.748  39.845  36.769  1.00  0.00     0.122 C 
HETATM   28  C5  UNL     1      25.623  39.337  37.619  1.00  0.00     0.026 C 
ENDBRANCH   5  27
BRANCH   9  29
HETATM   29  C21 UNL     1      26.339  34.222  36.338  1.00  0.00     0.174 C 
BRANCH  29  30
HETATM   30  O3  UNL     1      25.865  33.942  37.607  1.00  0.00    -0.400 OA
ATOM     31  H3  UNL     1      26.466  34.335  38.229  1.00  0.00     0.209 HD
ENDBRANCH  29  30
ENDBRANCH   9  29
BRANCH  10  32
HETATM   32  O4  UNL     1      26.509  35.042  33.997  1.00  0.00    -0.389 OA
ATOM     33  H4  UNL     1      26.665  35.345  33.110  1.00  0.00     0.210 HD
ENDBRANCH  10  32
TORSDOF 14
ENDMDL
MODEL 3
REMARK VINA RESULT: -6.745685302      4.062      6.615
REMARK  14 active torsions:
REMARK  status: ('A' for Active; 'I' for Inactive)
REMARK    1  A    between atoms: N1_5  and  C4_6 
REMARK    2  A    between atoms: C7_9  and  S1_10 
REMARK    3  A    between atoms: S1_10  and  C8_11 
REMARK    4  A    between atoms: C8_11  and  C9_12 
REMARK    5  A    between atoms: C10_13  and  C11_14 
REMARK    6  A    between atoms: C10_13  and  C13_16 
REMARK    7  A    between atoms: C13_16  and  C14_17 
REMARK    8  A    between atoms: C14_17  and  C15_18 
REMARK    9  A    between atoms: C15_18  and  C16_19 
REMARK   10  A    between atoms: C16_19  and  C17_20 
REMARK   11  A    between atoms: C19_22  and  O2_23 
REMARK   12  A    between atoms: C20_25  and  C21_26 
REMARK   13  A    between atoms: C21_26  and  O3_27 
REMARK   14  A    between atoms: C22_29  and  O4_31 
ROOT
HETATM    1  C1  UNL     1      26.887  38.140  32.294  1.00  0.00     0.025 C 
HETATM    2  C2  UNL     1      26.899  38.113  33.605  1.00  0.00     0.009 C 
HETATM    3  C3  UNL     1      26.238  39.041  34.533  1.00  0.00     0.249 C 
HETATM    4  O1  UNL     1      25.206  39.716  34.261  1.00  0.00    -0.268 OA
HETATM    5  N1  UNL     1      26.988  39.021  35.779  1.00  0.00    -0.342 N 
HETATM    6  C6  UNL     1      28.062  38.134  35.570  1.00  0.00     0.115 C 
HETATM    7  C7  UNL     1      28.649  37.383  36.694  1.00  0.00     0.104 C 
HETATM    8  C19 UNL     1      27.768  36.340  37.251  1.00  0.00     0.143 C 
HETATM    9  C20 UNL     1      26.718  35.739  36.412  1.00  0.00     0.074 C 
HETATM   10  C22 UNL     1      26.613  36.151  34.992  1.00  0.00     0.072 C 
HETATM   11  C23 UNL     1      25.167  36.483  34.625  1.00  0.00     0.047 C 
HETATM   12  C24 UNL     1      27.588  37.165  34.532  1.00  0.00     0.082 C 
ENDROOT
BRANCH   7  13
HETATM   13  S1  UNL     1      29.287  38.453  38.011  1.00  0.00    -0.132 SA
BRANCH  13  14
HETATM   14  C8  UNL     1      30.767  39.313  37.655  1.00  0.00     0.045 C 
BRANCH  14  15
HETATM   15  C9  UNL     1      31.814  39.526  38.649  1.00  0.00     0.009 C 
HETATM   16  C10 UNL     1      31.975  40.220  39.720  1.00  0.00    -0.080 C 
BRANCH  16  17
HETATM   17  C11 UNL     1      31.019  41.136  40.340  1.00  0.00     0.029 C 
HETATM   18  C12 UNL     1      29.979  40.399  41.173  1.00  0.00     0.010 C 
ENDBRANCH  16  17
BRANCH  16  19
HETATM   19  C13 UNL     1      33.315  40.080  40.444  1.00  0.00     0.034 C 
BRANCH  19  20
HETATM   20  C14 UNL     1      33.498  41.148  41.478  1.00  0.00     0.004 C 
BRANCH  20  21
HETATM   21  C15 UNL     1      33.742  40.440  42.814  1.00  0.00     0.000 C 
BRANCH  21  22
HETATM   22  C16 UNL     1      32.727  41.004  43.788  1.00  0.00    -0.000 C 
BRANCH  22  23
HETATM   23  C17 UNL     1      31.830  39.911  44.338  1.00  0.00    -0.005 C 
HETATM   24  C18 UNL     1      32.588  38.607  44.376  1.00  0.00     0.005 C 
ENDBRANCH  22  23
ENDBRANCH  21  22
ENDBRANCH  20  21
ENDBRANCH  19  20
ENDBRANCH  16  19
ENDBRANCH  14  15
ENDBRANCH  13  14
ENDBRANCH   7  13
BRANCH   8  25
HETATM   25  O2  UNL     1      28.624  35.267  37.648  1.00  0.00    -0.394 OA
ATOM     26  H2  UNL     1      28.774  34.746  36.868  1.00  0.00     0.210 HD
ENDBRANCH   8  25
BRANCH   5  27
HETATM   27  C4  UNL     1      26.556  39.850  36.879  1.00  0.00     0.122 C 
HETATM   28  C5  UNL     1      25.424  39.272  37.672  1.00  0.00     0.026 C 
ENDBRANCH   5  27
BRANCH   9  29
HETATM   29  C21 UNL     1      26.733  34.207  36.559  1.00  0.00     0.174 C 
BRANCH  29  30
HETATM   30  O3  UNL     1      25.966  33.888  37.664  1.00  0.00    -0.400 OA
ATOM     31  H3  UNL     1      26.430  34.197  38.433  1.00  0.00     0.209 HD
ENDBRANCH  29  30
ENDBRANCH   9  29
BRANCH  10  32
HETATM   32  O4  UNL     1      26.892  34.997  34.206  1.00  0.00    -0.389 OA
ATOM     33  H4  UNL     1      26.099  34.474  34.193  1.00  0.00     0.210 HD
ENDBRANCH  10  32
TORSDOF 14
ENDMDL
MODEL 4
REMARK VINA RESULT: -6.678220897      3.247      5.979
REMARK  14 active torsions:
REMARK  status: ('A' for Active; 'I' for Inactive)
REMARK    1  A    between atoms: N1_5  and  C4_6 
REMARK    2  A    between atoms: C7_9  and  S1_10 
REMARK    3  A    between atoms: S1_10  and  C8_11 
REMARK    4  A    between atoms: C8_11  and  C9_12 
REMARK    5  A    between atoms: C10_13  and  C11_14 
REMARK    6  A    between atoms: C10_13  and  C13_16 
REMARK    7  A    between atoms: C13_16  and  C14_17 
REMARK    8  A    between atoms: C14_17  and  C15_18 
REMARK    9  A    between atoms: C15_18  and  C16_19 
REMARK   10  A    between atoms: C16_19  and  C17_20 
REMARK   11  A    between atoms: C19_22  and  O2_23 
REMARK   12  A    between atoms: C20_25  and  C21_26 
REMARK   13  A    between atoms: C21_26  and  O3_27 
REMARK   14  A    between atoms: C22_29  and  O4_31 
ROOT
HETATM    1  C1  UNL     1      24.250  38.504  38.282  1.00  0.00     0.025 C 
HETATM    2  C2  UNL     1      25.364  38.663  37.608  1.00  0.00     0.009 C 
HETATM    3  C3  UNL     1      26.563  37.814  37.633  1.00  0.00     0.249 C 
HETATM    4  O1  UNL     1      26.567  36.585  37.926  1.00  0.00    -0.268 OA
HETATM    5  N1  UNL     1      27.696  38.648  37.265  1.00  0.00    -0.342 N 
HETATM    6  C6  UNL     1      27.176  39.941  37.061  1.00  0.00     0.115 C 
HETATM    7  C7  UNL     1      27.822  40.873  36.121  1.00  0.00     0.104 C 
HETATM    8  C19 UNL     1      27.690  40.491  34.703  1.00  0.00     0.143 C 
HETATM    9  C20 UNL     1      26.565  39.646  34.270  1.00  0.00     0.074 C 
HETATM   10  C22 UNL     1      25.541  39.251  35.268  1.00  0.00     0.072 C 
HETATM   11  C23 UNL     1      25.251  37.752  35.189  1.00  0.00     0.047 C 
HETATM   12  C24 UNL     1      25.751  39.741  36.648  1.00  0.00     0.082 C 
ENDROOT
BRANCH   7  13
HETATM   13  S1  UNL     1      29.553  41.217  36.533  1.00  0.00    -0.132 SA
BRANCH  13  14
HETATM   14  C8  UNL     1      29.829  42.137  37.994  1.00  0.00     0.045 C 
BRANCH  14  15
HETATM   15  C9  UNL     1      30.247  41.518  39.249  1.00  0.00     0.009 C 
HETATM   16  C10 UNL     1      31.170  40.715  39.646  1.00  0.00    -0.080 C 
BRANCH  16  17
HETATM   17  C11 UNL     1      32.217  40.093  38.838  1.00  0.00     0.029 C 
HETATM   18  C12 UNL     1      33.549  40.035  39.574  1.00  0.00     0.010 C 
ENDBRANCH  16  17
BRANCH  16  19
HETATM   19  C13 UNL     1      31.191  40.364  41.134  1.00  0.00     0.034 C 
BRANCH  19  20
HETATM   20  C14 UNL     1      31.614  41.533  41.970  1.00  0.00     0.004 C 
BRANCH  20  21
HETATM   21  C15 UNL     1      31.680  41.044  43.421  1.00  0.00     0.000 C 
BRANCH  21  22
HETATM   22  C16 UNL     1      31.575  39.533  43.366  1.00  0.00    -0.000 C 
BRANCH  22  23
HETATM   23  C17 UNL     1      32.760  38.876  44.048  1.00  0.00    -0.005 C 
HETATM   24  C18 UNL     1      34.033  39.570  43.627  1.00  0.00     0.005 C 
ENDBRANCH  22  23
ENDBRANCH  21  22
ENDBRANCH  20  21
ENDBRANCH  19  20
ENDBRANCH  16  19
ENDBRANCH  14  15
ENDBRANCH  13  14
ENDBRANCH   7  13
BRANCH   8  25
HETATM   25  O2  UNL     1      27.575  41.713  33.971  1.00  0.00    -0.394 OA
ATOM     26  H2  UNL     1      26.984  42.265  34.468  1.00  0.00     0.210 HD
ENDBRANCH   8  25
BRANCH   5  27
HETATM   27  C4  UNL     1      29.016  38.064  37.209  1.00  0.00     0.122 C 
HETATM   28  C5  UNL     1      29.565  37.664  38.544  1.00  0.00     0.026 C 
ENDBRANCH   5  27
BRANCH   9  29
HETATM   29  C21 UNL     1      25.922  40.227  32.998  1.00  0.00     0.174 C 
BRANCH  29  30
HETATM   30  O3  UNL     1      26.569  39.666  31.912  1.00  0.00    -0.400 OA
ATOM     31  H3  UNL     1      25.922  39.544  31.226  1.00  0.00     0.209 HD
ENDBRANCH  29  30
ENDBRANCH   9  29
BRANCH  10  32
HETATM   32  O4  UNL     1      24.314  39.843  34.855  1.00  0.00    -0.389 OA
ATOM     33  H4  UNL     1      24.013  39.354  34.098  1.00  0.00     0.210 HD
ENDBRANCH  10  32
TORSDOF 14
ENDMDL
MODEL 5
REMARK VINA RESULT: -6.657331487      0.909      1.296
REMARK  14 active torsions:
REMARK  status: ('A' for Active; 'I' for Inactive)
REMARK    1  A    between atoms: N1_5  and  C4_6 
REMARK    2  A    between atoms: C7_9  and  S1_10 
REMARK    3  A    between atoms: S1_10  and  C8_11 
REMARK    4  A    between atoms: C8_11  and  C9_12 
REMARK    5  A    between atoms: C10_13  and  C11_14 
REMARK    6  A    between atoms: C10_13  and  C13_16 
REMARK    7  A    between atoms: C13_16  and  C14_17 
REMARK    8  A    between atoms: C14_17  and  C15_18 
REMARK    9  A    between atoms: C15_18  and  C16_19 
REMARK   10  A    between atoms: C16_19  and  C17_20 
REMARK   11  A    between atoms: C19_22  and  O2_23 
REMARK   12  A    between atoms: C20_25  and  C21_26 
REMARK   13  A    between atoms: C21_26  and  O3_27 
REMARK   14  A    between atoms: C22_29  and  O4_31 
ROOT
HETATM    1  C1  UNL     1      25.737  42.005  27.708  1.00  0.00     0.025 C 
HETATM    2  C2  UNL     1      26.275  41.478  28.781  1.00  0.00     0.009 C 
HETATM    3  C3  UNL     1      26.760  40.102  28.965  1.00  0.00     0.249 C 
HETATM    4  O1  UNL     1      27.162  39.352  28.032  1.00  0.00    -0.268 OA
HETATM    5  N1  UNL     1      26.682  39.798  30.385  1.00  0.00    -0.342 N 
HETATM    6  C6  UNL     1      26.146  40.948  30.999  1.00  0.00     0.115 C 
HETATM    7  C7  UNL     1      26.478  41.281  32.394  1.00  0.00     0.104 C 
HETATM    8  C19 UNL     1      27.876  41.705  32.599  1.00  0.00     0.143 C 
HETATM    9  C20 UNL     1      28.638  42.291  31.484  1.00  0.00     0.074 C 
HETATM   10  C22 UNL     1      27.955  42.508  30.186  1.00  0.00     0.072 C 
HETATM   11  C23 UNL     1      28.802  41.979  29.028  1.00  0.00     0.047 C 
HETATM   12  C24 UNL     1      26.536  42.094  30.118  1.00  0.00     0.082 C 
ENDROOT
BRANCH   7  13
HETATM   13  S1  UNL     1      26.028  39.975  33.568  1.00  0.00    -0.132 SA
BRANCH  13  14
HETATM   14  C8  UNL     1      27.312  39.393  34.603  1.00  0.00     0.045 C 
BRANCH  14  15
HETATM   15  C9  UNL     1      27.731  40.096  35.811  1.00  0.00     0.009 C 
HETATM   16  C10 UNL     1      28.615  39.947  36.734  1.00  0.00    -0.080 C 
BRANCH  16  17
HETATM   17  C11 UNL     1      29.594  38.869  36.863  1.00  0.00     0.029 C 
HETATM   18  C12 UNL     1      29.271  37.937  38.023  1.00  0.00     0.010 C 
ENDBRANCH  16  17
BRANCH  16  19
HETATM   19  C13 UNL     1      28.663  41.014  37.827  1.00  0.00     0.034 C 
BRANCH  19  20
HETATM   20  C14 UNL     1      30.028  41.621  37.945  1.00  0.00     0.004 C 
BRANCH  20  21
HETATM   21  C15 UNL     1      30.469  41.449  39.403  1.00  0.00     0.000 C 
BRANCH  21  22
HETATM   22  C16 UNL     1      31.720  40.594  39.372  1.00  0.00    -0.000 C 
BRANCH  22  23
HETATM   23  C17 UNL     1      32.166  40.226  40.774  1.00  0.00    -0.005 C 
HETATM   24  C18 UNL     1      32.205  41.465  41.633  1.00  0.00     0.005 C 
ENDBRANCH  22  23
ENDBRANCH  21  22
ENDBRANCH  20  21
ENDBRANCH  19  20
ENDBRANCH  16  19
ENDBRANCH  14  15
ENDBRANCH  13  14
ENDBRANCH   7  13
BRANCH   8  25
HETATM   25  O2  UNL     1      27.844  42.699  33.626  1.00  0.00    -0.394 OA
ATOM     26  H2  UNL     1      27.105  43.262  33.426  1.00  0.00     0.210 HD
ENDBRANCH   8  25
BRANCH   5  27
HETATM   27  C4  UNL     1      27.100  38.498  30.854  1.00  0.00     0.122 C 
HETATM   28  C5  UNL     1      26.024  37.457  30.809  1.00  0.00     0.026 C 
ENDBRANCH   5  27
BRANCH   9  29
HETATM   29  C21 UNL     1      29.377  43.556  31.953  1.00  0.00     0.174 C 
BRANCH  29  30
HETATM   30  O3  UNL     1      30.552  43.151  32.561  1.00  0.00    -0.400 OA
ATOM     31  H3  UNL     1      31.220  43.105  31.887  1.00  0.00     0.209 HD
ENDBRANCH  29  30
ENDBRANCH   9  29
BRANCH  10  32
HETATM   32  O4  UNL     1      27.934  43.913  29.961  1.00  0.00    -0.389 OA
ATOM     33  H4  UNL     1      28.836  44.209  29.983  1.00  0.00     0.210 HD
ENDBRANCH  10  32
TORSDOF 14
ENDMDL
