MODEL 1
REMARK VINA RESULT: -7.652693505      0.000      0.000
REMARK  7 active torsions:
REMARK  status: ('A' for Active; 'I' for Inactive)
REMARK    1  A    between atoms: C5_5  and  C6_6 
REMARK    2  A    between atoms: C10_11  and  C11_12 
REMARK    3  A    between atoms: C11_12  and  O3_14 
REMARK    4  A    between atoms: O3_14  and  C12_15 
REMARK    5  A    between atoms: C14_17  and  O4_18 
REMARK    6  A    between atoms: C17_22  and  C19_24 
REMARK    7  A    between atoms: C19_24  and  O6_26 
ROOT
HETATM    1  C12 UNL     1       2.902   6.987  19.945  1.00  0.00     0.142 C 
HETATM    2  C13 UNL     1       3.818   7.372  18.804  1.00  0.00     0.065 C 
HETATM    3  C14 UNL     1       4.325   6.074  18.206  1.00  0.00     0.121 C 
HETATM    4  C15 UNL     1       5.126   5.296  19.262  1.00  0.00     0.038 C 
HETATM    5  C16 UNL     1       4.182   5.011  20.404  1.00  0.00     0.016 C 
HETATM    6  C17 UNL     1       4.574   3.902  21.295  1.00  0.00     0.049 C 
HETATM    7  C18 UNL     1       4.515   2.626  20.419  1.00  0.00     0.026 C 
HETATM    8  C21 UNL     1       3.520   3.693  22.361  1.00  0.00     0.020 C 
HETATM    9  C22 UNL     1       2.336   4.624  22.184  1.00  0.00     0.002 C 
HETATM   10  C23 UNL     1       2.806   6.063  22.199  1.00  0.00     0.012 C 
HETATM   11  C24 UNL     1       3.719   6.281  21.034  1.00  0.00    -0.012 C 
HETATM   12  C25 UNL     1       4.814   7.215  21.482  1.00  0.00     0.018 C 
ENDROOT
BRANCH   1  13
HETATM   13  O3  UNL     1       2.118   8.016  20.420  1.00  0.00    -0.315 OA
BRANCH  13  14
HETATM   14  C11 UNL     1       0.929   8.446  19.844  1.00  0.00     0.268 C 
HETATM   15  O2  UNL     1       0.947   8.634  18.624  1.00  0.00    -0.264 OA
BRANCH  14  16
HETATM   16  C10 UNL     1      -0.234   8.634  20.747  1.00  0.00     0.122 C 
HETATM   17  C2  UNL     1      -0.557   7.399  21.510  1.00  0.00    -0.075 C 
HETATM   18  C1  UNL     1      -0.986   6.287  20.945  1.00  0.00     0.015 C 
HETATM   19  C3  UNL     1      -0.333   7.594  22.955  1.00  0.00     0.035 C 
HETATM   20  C4  UNL     1       0.396   8.895  23.034  1.00  0.00     0.015 C 
HETATM   21  C5  UNL     1       0.095   9.681  21.798  1.00  0.00     0.038 C 
BRANCH  21  22
HETATM   22  C6  UNL     1      -0.951  10.688  21.952  1.00  0.00    -0.029 A 
HETATM   23  C7  UNL     1      -1.806  10.888  23.014  1.00  0.00     0.034 A 
HETATM   24  C8  UNL     1      -2.631  11.973  22.697  1.00  0.00     0.142 A 
HETATM   25  O1  UNL     1      -2.281  12.388  21.513  1.00  0.00    -0.334 OA
HETATM   26  C9  UNL     1      -1.282  11.653  21.026  1.00  0.00     0.148 A 
ENDBRANCH  21  22
ENDBRANCH  14  16
ENDBRANCH  13  14
ENDBRANCH   1  13
BRANCH   3  27
HETATM   27  O4  UNL     1       3.264   5.278  17.770  1.00  0.00    -0.395 OA
ATOM     28  H4  UNL     1       2.730   4.994  18.503  1.00  0.00     0.210 HD
ENDBRANCH   3  27
BRANCH   6  29
HETATM   29  C19 UNL     1       5.910   3.917  21.868  1.00  0.00     0.267 C 
HETATM   30  O5  UNL     1       6.877   3.339  21.340  1.00  0.00    -0.264 OA
BRANCH  29  31
HETATM   31  O6  UNL     1       6.158   4.593  23.056  1.00  0.00    -0.326 OA
HETATM   32  C20 UNL     1       6.857   4.046  24.134  1.00  0.00     0.213 C 
ENDBRANCH  29  31
ENDBRANCH   6  29
TORSDOF 7
ENDMDL
MODEL 2
REMARK VINA RESULT: -7.427668499      1.515      1.975
REMARK  7 active torsions:
REMARK  status: ('A' for Active; 'I' for Inactive)
REMARK    1  A    between atoms: C5_5  and  C6_6 
REMARK    2  A    between atoms: C10_11  and  C11_12 
REMARK    3  A    between atoms: C11_12  and  O3_14 
REMARK    4  A    between atoms: O3_14  and  C12_15 
REMARK    5  A    between atoms: C14_17  and  O4_18 
REMARK    6  A    between atoms: C17_22  and  C19_24 
REMARK    7  A    between atoms: C19_24  and  O6_26 
ROOT
HETATM    1  C12 UNL     1       2.706   6.522  20.819  1.00  0.00     0.142 C 
HETATM    2  C13 UNL     1       4.102   7.074  21.007  1.00  0.00     0.065 C 
HETATM    3  C14 UNL     1       5.013   6.246  20.120  1.00  0.00     0.121 C 
HETATM    4  C15 UNL     1       4.980   4.778  20.572  1.00  0.00     0.038 C 
HETATM    5  C16 UNL     1       3.552   4.310  20.436  1.00  0.00     0.016 C 
HETATM    6  C17 UNL     1       3.364   2.849  20.359  1.00  0.00     0.049 C 
HETATM    7  C18 UNL     1       4.041   2.412  19.036  1.00  0.00     0.026 C 
HETATM    8  C21 UNL     1       1.898   2.522  20.174  1.00  0.00     0.020 C 
HETATM    9  C22 UNL     1       1.045   3.770  20.054  1.00  0.00     0.002 C 
HETATM   10  C23 UNL     1       1.229   4.639  21.281  1.00  0.00     0.012 C 
HETATM   11  C24 UNL     1       2.656   5.082  21.344  1.00  0.00    -0.012 C 
HETATM   12  C25 UNL     1       3.065   5.095  22.795  1.00  0.00     0.018 C 
ENDROOT
BRANCH   1  13
HETATM   13  O3  UNL     1       1.702   7.327  21.312  1.00  0.00    -0.315 OA
BRANCH  13  14
HETATM   14  C11 UNL     1       0.897   8.160  20.545  1.00  0.00     0.268 C 
HETATM   15  O2  UNL     1       1.342   8.487  19.441  1.00  0.00    -0.264 OA
BRANCH  14  16
HETATM   16  C10 UNL     1      -0.406   8.568  21.126  1.00  0.00     0.122 C 
HETATM   17  C2  UNL     1      -1.065   7.457  21.861  1.00  0.00    -0.075 C 
HETATM   18  C1  UNL     1      -1.501   6.357  21.277  1.00  0.00     0.015 C 
HETATM   19  C3  UNL     1      -1.158   7.754  23.303  1.00  0.00     0.035 C 
HETATM   20  C4  UNL     1      -0.294   8.960  23.478  1.00  0.00     0.015 C 
HETATM   21  C5  UNL     1      -0.188   9.660  22.160  1.00  0.00     0.038 C 
BRANCH  21  22
HETATM   22  C6  UNL     1      -1.091  10.795  21.996  1.00  0.00    -0.029 A 
HETATM   23  C7  UNL     1      -1.245  11.623  20.906  1.00  0.00     0.034 A 
HETATM   24  C8  UNL     1      -2.231  12.566  21.223  1.00  0.00     0.142 A 
HETATM   25  O1  UNL     1      -2.633  12.306  22.434  1.00  0.00    -0.334 OA
HETATM   26  C9  UNL     1      -1.983  11.258  22.938  1.00  0.00     0.148 A 
ENDBRANCH  21  22
ENDBRANCH  14  16
ENDBRANCH  13  14
ENDBRANCH   1  13
BRANCH   3  27
HETATM   27  O4  UNL     1       4.606   6.315  18.786  1.00  0.00    -0.395 OA
ATOM     28  H4  UNL     1       3.692   6.567  18.723  1.00  0.00     0.210 HD
ENDBRANCH   3  27
BRANCH   6  29
HETATM   29  C19 UNL     1       3.964   2.020  21.392  1.00  0.00     0.267 C 
HETATM   30  O5  UNL     1       5.117   1.561  21.303  1.00  0.00    -0.264 OA
BRANCH  29  31
HETATM   31  O6  UNL     1       3.252   1.706  22.543  1.00  0.00    -0.326 OA
HETATM   32  C20 UNL     1       3.837   1.539  23.800  1.00  0.00     0.213 C 
ENDBRANCH  29  31
ENDBRANCH   6  29
TORSDOF 7
ENDMDL
MODEL 3
REMARK VINA RESULT: -7.269569035      1.293      2.752
REMARK  7 active torsions:
REMARK  status: ('A' for Active; 'I' for Inactive)
REMARK    1  A    between atoms: C5_5  and  C6_6 
REMARK    2  A    between atoms: C10_11  and  C11_12 
REMARK    3  A    between atoms: C11_12  and  O3_14 
REMARK    4  A    between atoms: O3_14  and  C12_15 
REMARK    5  A    between atoms: C14_17  and  O4_18 
REMARK    6  A    between atoms: C17_22  and  C19_24 
REMARK    7  A    between atoms: C19_24  and  O6_26 
ROOT
HETATM    1  C12 UNL     1       2.770   6.684  21.426  1.00  0.00     0.142 C 
HETATM    2  C13 UNL     1       1.886   5.456  21.394  1.00  0.00     0.065 C 
HETATM    3  C14 UNL     1       2.592   4.400  22.222  1.00  0.00     0.121 C 
HETATM    4  C15 UNL     1       3.951   4.066  21.587  1.00  0.00     0.038 C 
HETATM    5  C16 UNL     1       4.754   5.343  21.576  1.00  0.00     0.016 C 
HETATM    6  C17 UNL     1       6.215   5.178  21.455  1.00  0.00     0.049 C 
HETATM    7  C18 UNL     1       6.659   4.454  22.751  1.00  0.00     0.026 C 
HETATM    8  C21 UNL     1       6.898   6.527  21.508  1.00  0.00     0.020 C 
HETATM    9  C22 UNL     1       5.913   7.658  21.733  1.00  0.00     0.002 C 
HETATM   10  C23 UNL     1       4.865   7.653  20.640  1.00  0.00     0.012 C 
HETATM   11  C24 UNL     1       4.096   6.373  20.721  1.00  0.00    -0.012 C 
HETATM   12  C25 UNL     1       3.788   5.937  19.310  1.00  0.00     0.018 C 
ENDROOT
BRANCH   1  13
HETATM   13  O3  UNL     1       2.162   7.838  20.979  1.00  0.00    -0.315 OA
BRANCH  13  14
HETATM   14  C11 UNL     1       0.990   7.887  20.236  1.00  0.00     0.268 C 
HETATM   15  O2  UNL     1       1.085   7.584  19.043  1.00  0.00    -0.264 OA
BRANCH  14  16
HETATM   16  C10 UNL     1      -0.248   8.294  20.945  1.00  0.00     0.122 C 
HETATM   17  C2  UNL     1      -0.858   7.167  21.700  1.00  0.00    -0.075 C 
HETATM   18  C1  UNL     1      -1.364   6.096  21.121  1.00  0.00     0.015 C 
HETATM   19  C3  UNL     1      -0.816   7.416  23.153  1.00  0.00     0.035 C 
HETATM   20  C4  UNL     1       0.081   8.602  23.289  1.00  0.00     0.015 C 
HETATM   21  C5  UNL     1       0.081   9.346  21.992  1.00  0.00     0.038 C 
BRANCH  21  22
HETATM   22  C6  UNL     1      -0.812  10.499  21.947  1.00  0.00    -0.029 A 
HETATM   23  C7  UNL     1      -1.005  11.402  20.924  1.00  0.00     0.034 A 
HETATM   24  C8  UNL     1      -1.961  12.331  21.351  1.00  0.00     0.142 A 
HETATM   25  O1  UNL     1      -2.311  11.992  22.559  1.00  0.00    -0.334 OA
HETATM   26  C9  UNL     1      -1.653  10.906  22.960  1.00  0.00     0.148 A 
ENDBRANCH  21  22
ENDBRANCH  14  16
ENDBRANCH  13  14
ENDBRANCH   1  13
BRANCH   3  27
HETATM   27  O4  UNL     1       2.805   4.849  23.527  1.00  0.00    -0.395 OA
ATOM     28  H4  UNL     1       2.131   5.466  23.787  1.00  0.00     0.210 HD
ENDBRANCH   3  27
BRANCH   6  29
HETATM   29  C19 UNL     1       6.730   4.368  20.363  1.00  0.00     0.267 C 
HETATM   30  O5  UNL     1       6.890   3.137  20.454  1.00  0.00    -0.264 OA
BRANCH  29  31
HETATM   31  O6  UNL     1       7.070   4.955  19.151  1.00  0.00    -0.326 OA
HETATM   32  C20 UNL     1       6.831   4.368  17.907  1.00  0.00     0.213 C 
ENDBRANCH  29  31
ENDBRANCH   6  29
TORSDOF 7
ENDMDL
MODEL 4
REMARK VINA RESULT: -7.113685034      2.122      3.924
REMARK  7 active torsions:
REMARK  status: ('A' for Active; 'I' for Inactive)
REMARK    1  A    between atoms: C5_5  and  C6_6 
REMARK    2  A    between atoms: C10_11  and  C11_12 
REMARK    3  A    between atoms: C11_12  and  O3_14 
REMARK    4  A    between atoms: O3_14  and  C12_15 
REMARK    5  A    between atoms: C14_17  and  O4_18 
REMARK    6  A    between atoms: C17_22  and  C19_24 
REMARK    7  A    between atoms: C19_24  and  O6_26 
ROOT
HETATM    1  C12 UNL     1       2.565   5.052  22.288  1.00  0.00     0.142 C 
HETATM    2  C13 UNL     1       2.244   3.637  22.717  1.00  0.00     0.065 C 
HETATM    3  C14 UNL     1       3.386   3.192  23.612  1.00  0.00     0.121 C 
HETATM    4  C15 UNL     1       4.700   3.199  22.816  1.00  0.00     0.038 C 
HETATM    5  C16 UNL     1       4.923   4.616  22.351  1.00  0.00     0.016 C 
HETATM    6  C17 UNL     1       6.312   4.958  21.987  1.00  0.00     0.049 C 
HETATM    7  C18 UNL     1       7.124   4.851  23.301  1.00  0.00     0.026 C 
HETATM    8  C21 UNL     1       6.402   6.415  21.589  1.00  0.00     0.020 C 
HETATM    9  C22 UNL     1       5.073   7.131  21.735  1.00  0.00     0.002 C 
HETATM   10  C23 UNL     1       4.018   6.434  20.902  1.00  0.00     0.012 C 
HETATM   11  C24 UNL     1       3.834   5.046  21.427  1.00  0.00    -0.012 C 
HETATM   12  C25 UNL     1       3.597   4.139  20.245  1.00  0.00     0.018 C 
ENDROOT
BRANCH   1  13
HETATM   13  O3  UNL     1       1.509   5.728  21.715  1.00  0.00    -0.315 OA
BRANCH  13  14
HETATM   14  C11 UNL     1       0.796   6.755  22.319  1.00  0.00     0.268 C 
HETATM   15  O2  UNL     1       0.875   6.828  23.549  1.00  0.00    -0.264 OA
BRANCH  14  16
HETATM   16  C10 UNL     1       0.017   7.655  21.432  1.00  0.00     0.122 C 
HETATM   17  C2  UNL     1      -0.875   8.564  22.200  1.00  0.00    -0.075 C 
HETATM   18  C1  UNL     1      -1.897   8.141  22.918  1.00  0.00     0.015 C 
HETATM   19  C3  UNL     1      -0.460   9.970  22.045  1.00  0.00     0.035 C 
HETATM   20  C4  UNL     1       0.875   9.882  21.382  1.00  0.00     0.015 C 
HETATM   21  C5  UNL     1       0.962   8.569  20.670  1.00  0.00     0.038 C 
BRANCH  21  22
HETATM   22  C6  UNL     1       0.674   8.628  19.240  1.00  0.00    -0.029 A 
HETATM   23  C7  UNL     1      -0.491   9.006  18.609  1.00  0.00     0.034 A 
HETATM   24  C8  UNL     1      -0.283   8.897  17.229  1.00  0.00     0.142 A 
HETATM   25  O1  UNL     1       0.938   8.478  17.058  1.00  0.00    -0.334 OA
HETATM   26  C9  UNL     1       1.550   8.302  18.228  1.00  0.00     0.148 A 
ENDBRANCH  21  22
ENDBRANCH  14  16
ENDBRANCH  13  14
ENDBRANCH   1  13
BRANCH   3  27
HETATM   27  O4  UNL     1       3.520   4.046  24.709  1.00  0.00    -0.395 OA
ATOM     28  H4  UNL     1       2.673   4.361  24.999  1.00  0.00     0.210 HD
ENDBRANCH   3  27
BRANCH   6  29
HETATM   29  C19 UNL     1       7.004   4.106  21.033  1.00  0.00     0.267 C 
HETATM   30  O5  UNL     1       6.903   4.253  19.801  1.00  0.00    -0.264 OA
BRANCH  29  31
HETATM   31  O6  UNL     1       7.820   3.074  21.475  1.00  0.00    -0.326 OA
HETATM   32  C20 UNL     1       7.743   1.762  21.002  1.00  0.00     0.213 C 
ENDBRANCH  29  31
ENDBRANCH   6  29
TORSDOF 7
ENDMDL
MODEL 5
REMARK VINA RESULT: -6.978188994      3.406      6.659
REMARK  7 active torsions:
REMARK  status: ('A' for Active; 'I' for Inactive)
REMARK    1  A    between atoms: C5_5  and  C6_6 
REMARK    2  A    between atoms: C10_11  and  C11_12 
REMARK    3  A    between atoms: C11_12  and  O3_14 
REMARK    4  A    between atoms: O3_14  and  C12_15 
REMARK    5  A    between atoms: C14_17  and  O4_18 
REMARK    6  A    between atoms: C17_22  and  C19_24 
REMARK    7  A    between atoms: C19_24  and  O6_26 
ROOT
HETATM    1  C12 UNL     1       1.162   8.532  16.797  1.00  0.00     0.142 C 
HETATM    2  C13 UNL     1       0.248   9.417  15.979  1.00  0.00     0.065 C 
HETATM    3  C14 UNL     1      -0.080   8.643  14.716  1.00  0.00     0.121 C 
HETATM    4  C15 UNL     1       1.210   8.373  13.926  1.00  0.00     0.038 C 
HETATM    5  C16 UNL     1       2.109   7.556  14.821  1.00  0.00     0.016 C 
HETATM    6  C17 UNL     1       3.171   6.795  14.135  1.00  0.00     0.049 C 
HETATM    7  C18 UNL     1       2.436   5.745  13.267  1.00  0.00     0.026 C 
HETATM    8  C21 UNL     1       3.962   5.985  15.140  1.00  0.00     0.020 C 
HETATM    9  C22 UNL     1       3.412   6.125  16.547  1.00  0.00     0.002 C 
HETATM   10  C23 UNL     1       3.402   7.583  16.953  1.00  0.00     0.012 C 
HETATM   11  C24 UNL     1       2.481   8.328  16.041  1.00  0.00    -0.012 C 
HETATM   12  C25 UNL     1       3.091   9.683  15.785  1.00  0.00     0.018 C 
ENDROOT
BRANCH   1  13
HETATM   13  O3  UNL     1       1.329   8.936  18.104  1.00  0.00    -0.315 OA
BRANCH  13  14
HETATM   14  C11 UNL     1       0.709   8.358  19.204  1.00  0.00     0.268 C 
HETATM   15  O2  UNL     1      -0.442   7.944  19.031  1.00  0.00    -0.264 OA
BRANCH  14  16
HETATM   16  C10 UNL     1       1.486   8.295  20.467  1.00  0.00     0.122 C 
HETATM   17  C2  UNL     1       0.681   8.722  21.642  1.00  0.00    -0.075 C 
HETATM   18  C1  UNL     1       0.230   9.951  21.806  1.00  0.00     0.015 C 
HETATM   19  C3  UNL     1       0.466   7.600  22.575  1.00  0.00     0.035 C 
HETATM   20  C4  UNL     1       0.928   6.403  21.811  1.00  0.00     0.015 C 
HETATM   21  C5  UNL     1       1.885   6.857  20.755  1.00  0.00     0.038 C 
BRANCH  21  22
HETATM   22  C6  UNL     1       3.295   6.712  21.103  1.00  0.00    -0.029 A 
HETATM   23  C7  UNL     1       4.385   7.375  20.583  1.00  0.00     0.034 A 
HETATM   24  C8  UNL     1       5.527   6.893  21.235  1.00  0.00     0.142 A 
HETATM   25  O1  UNL     1       5.129   5.995  22.091  1.00  0.00    -0.334 OA
HETATM   26  C9  UNL     1       3.806   5.851  22.050  1.00  0.00     0.148 A 
ENDBRANCH  21  22
ENDBRANCH  14  16
ENDBRANCH  13  14
ENDBRANCH   1  13
BRANCH   3  27
HETATM   27  O4  UNL     1      -0.683   7.421  15.023  1.00  0.00    -0.395 OA
ATOM     28  H4  UNL     1      -0.746   7.302  15.963  1.00  0.00     0.210 HD
ENDBRANCH   3  27
BRANCH   6  29
HETATM   29  C19 UNL     1       4.050   7.507  13.222  1.00  0.00     0.267 C 
HETATM   30  O5  UNL     1       3.790   7.655  12.014  1.00  0.00    -0.264 OA
BRANCH  29  31
HETATM   31  O6  UNL     1       5.240   8.059  13.678  1.00  0.00    -0.326 OA
HETATM   32  C20 UNL     1       5.839   9.190  13.118  1.00  0.00     0.213 C 
ENDBRANCH  29  31
ENDBRANCH   6  29
TORSDOF 7
ENDMDL
