MODEL 1
REMARK VINA RESULT: -7.248546920      0.000      0.000
REMARK  5 active torsions:
REMARK  status: ('A' for Active; 'I' for Inactive)
REMARK    1  A    between atoms: C5_9  and  C6_10 
REMARK    2  A    between atoms: C9_14  and  S2_15 
REMARK    3  A    between atoms: S2_15  and  N2_18 
REMARK    4  A    between atoms: C12_21  and  C13_22 
REMARK    5  A    between atoms: C13_22  and  C14_23 
ROOT
HETATM    1  S2  UNL     1      21.430  11.014 -12.356  1.00  0.00     0.271 S 
HETATM    2  O2  UNL     1      20.402  10.755 -13.437  1.00  0.00    -0.199 OA
HETATM    3  O3  UNL     1      22.720  11.425 -13.066  1.00  0.00    -0.199 OA
ENDROOT
BRANCH   1   4
HETATM    4  C9  UNL     1      20.872  12.501 -11.569  1.00  0.00     0.131 A 
HETATM    5  C6  UNL     1      19.642  12.757 -11.051  1.00  0.00     0.010 A 
HETATM    6  C7  UNL     1      19.459  13.984 -10.486  1.00  0.00     0.021 A 
HETATM    7  C8  UNL     1      20.524  14.834 -10.495  1.00  0.00     0.052 A 
HETATM    8  S1  UNL     1      21.738  13.938 -11.271  1.00  0.00    -0.087 SA
BRANCH   5   9
HETATM    9  C5  UNL     1      18.537  11.750 -11.064  1.00  0.00     0.047 A 
HETATM   10  C1  UNL     1      17.467  11.913 -11.922  1.00  0.00     0.256 A 
HETATM   11  O1  UNL     1      17.496  12.899 -12.690  1.00  0.00    -0.267 OA
HETATM   12  N1  UNL     1      16.439  11.055 -11.938  1.00  0.00    -0.330 N 
HETATM   13  C2  UNL     1      16.424   9.994 -11.102  1.00  0.00     0.133 A 
ATOM     14  H1  UNL     1      15.663  11.203 -12.585  1.00  0.00     0.168 HD
HETATM   15  C3  UNL     1      17.478   9.807 -10.233  1.00  0.00     0.132 A 
HETATM   16  F1  UNL     1      17.436   8.747  -9.404  1.00  0.00    -0.205 F 
HETATM   17  C4  UNL     1      18.534  10.679 -10.209  1.00  0.00     0.061 A 
ENDBRANCH   5   9
ENDBRANCH   1   4
BRANCH   1  18
HETATM   18  N2  UNL     1      21.632   9.717 -11.347  1.00  0.00    -0.286 N 
HETATM   19  C10 UNL     1      21.918   8.462 -11.819  1.00  0.00     0.076 C 
HETATM   20  C11 UNL     1      22.085   7.389 -10.779  1.00  0.00     0.050 C 
HETATM   21  C12 UNL     1      21.532   7.690  -9.440  1.00  0.00    -0.002 C 
HETATM   22  C17 UNL     1      21.493   9.127  -9.022  1.00  0.00     0.026 C 
HETATM   23  C18 UNL     1      22.105  10.073 -10.045  1.00  0.00     0.141 C 
BRANCH  21  24
HETATM   24  C13 UNL     1      22.459   6.995  -8.426  1.00  0.00     0.069 C 
BRANCH  24  25
HETATM   25  C14 UNL     1      21.730   6.757  -7.143  1.00  0.00     0.046 A 
HETATM   26  N3  UNL     1      21.897   5.887  -6.273  1.00  0.00    -0.367 N 
HETATM   27  C15 UNL     1      21.131   5.806  -5.138  1.00  0.00     0.072 A 
ATOM     28  H3  UNL     1      22.638   5.200  -6.409  1.00  0.00     0.165 HD
HETATM   29  C16 UNL     1      20.066   6.857  -5.043  1.00  0.00     0.125 A 
HETATM   30  S3  UNL     1      20.358   7.765  -6.586  1.00  0.00    -0.112 SA
ENDBRANCH  24  25
ENDBRANCH  21  24
ENDBRANCH   1  18
TORSDOF 5
ENDMDL
MODEL 2
REMARK VINA RESULT: -7.213283744      1.713      2.163
REMARK  5 active torsions:
REMARK  status: ('A' for Active; 'I' for Inactive)
REMARK    1  A    between atoms: C5_9  and  C6_10 
REMARK    2  A    between atoms: C9_14  and  S2_15 
REMARK    3  A    between atoms: S2_15  and  N2_18 
REMARK    4  A    between atoms: C12_21  and  C13_22 
REMARK    5  A    between atoms: C13_22  and  C14_23 
ROOT
HETATM    1  S2  UNL     1      22.103  13.178 -12.791  1.00  0.00     0.271 S 
HETATM    2  O2  UNL     1      21.470  13.531 -14.120  1.00  0.00    -0.199 OA
HETATM    3  O3  UNL     1      23.591  13.507 -12.911  1.00  0.00    -0.199 OA
ENDROOT
BRANCH   1   4
HETATM    4  C9  UNL     1      21.475  14.398 -11.669  1.00  0.00     0.131 A 
HETATM    5  C6  UNL     1      20.232  14.464 -11.123  1.00  0.00     0.010 A 
HETATM    6  C7  UNL     1      19.992  15.505 -10.275  1.00  0.00     0.021 A 
HETATM    7  C8  UNL     1      21.018  16.375 -10.057  1.00  0.00     0.052 A 
HETATM    8  S1  UNL     1      22.274  15.752 -11.011  1.00  0.00    -0.087 SA
BRANCH   5   9
HETATM    9  C5  UNL     1      19.175  13.446 -11.401  1.00  0.00     0.047 A 
HETATM   10  C1  UNL     1      18.346  13.597 -12.496  1.00  0.00     0.256 A 
HETATM   11  O1  UNL     1      18.553  14.581 -13.238  1.00  0.00    -0.267 OA
HETATM   12  N1  UNL     1      17.361  12.727 -12.761  1.00  0.00    -0.330 N 
HETATM   13  C2  UNL     1      17.152  11.668 -11.948  1.00  0.00     0.133 A 
ATOM     14  H1  UNL     1      16.767  12.866 -13.578  1.00  0.00     0.168 HD
HETATM   15  C3  UNL     1      17.962  11.494 -10.847  1.00  0.00     0.132 A 
HETATM   16  F1  UNL     1      17.729  10.436 -10.049  1.00  0.00    -0.205 F 
HETATM   17  C4  UNL     1      18.972  12.377 -10.569  1.00  0.00     0.061 A 
ENDBRANCH   5   9
ENDBRANCH   1   4
BRANCH   1  18
HETATM   18  N2  UNL     1      21.822  11.606 -12.351  1.00  0.00    -0.286 N 
HETATM   19  C10 UNL     1      21.443  10.650 -13.258  1.00  0.00     0.076 C 
HETATM   20  C11 UNL     1      21.236   9.266 -12.707  1.00  0.00     0.050 C 
HETATM   21  C12 UNL     1      21.060   9.168 -11.242  1.00  0.00    -0.002 C 
HETATM   22  C17 UNL     1      21.734  10.206 -10.399  1.00  0.00     0.026 C 
HETATM   23  C18 UNL     1      22.571  11.191 -11.204  1.00  0.00     0.141 C 
BRANCH  21  24
HETATM   24  C13 UNL     1      21.693   7.828 -10.822  1.00  0.00     0.069 C 
BRANCH  24  25
HETATM   25  C14 UNL     1      21.580   7.650  -9.342  1.00  0.00     0.046 A 
HETATM   26  N3  UNL     1      22.332   7.068  -8.543  1.00  0.00    -0.367 N 
HETATM   27  C15 UNL     1      22.081   6.993  -7.196  1.00  0.00     0.072 A 
ATOM     28  H3  UNL     1      23.176   6.624  -8.905  1.00  0.00     0.165 HD
HETATM   29  C16 UNL     1      20.812   7.670  -6.773  1.00  0.00     0.125 A 
HETATM   30  S3  UNL     1      20.217   8.288  -8.372  1.00  0.00    -0.112 SA
ENDBRANCH  24  25
ENDBRANCH  21  24
ENDBRANCH   1  18
TORSDOF 5
ENDMDL
MODEL 3
REMARK VINA RESULT: -7.010233389      3.480      4.908
REMARK  5 active torsions:
REMARK  status: ('A' for Active; 'I' for Inactive)
REMARK    1  A    between atoms: C5_9  and  C6_10 
REMARK    2  A    between atoms: C9_14  and  S2_15 
REMARK    3  A    between atoms: S2_15  and  N2_18 
REMARK    4  A    between atoms: C12_21  and  C13_22 
REMARK    5  A    between atoms: C13_22  and  C14_23 
ROOT
HETATM    1  S2  UNL     1      23.654  15.296 -12.093  1.00  0.00     0.271 S 
HETATM    2  O2  UNL     1      24.890  15.637 -12.899  1.00  0.00    -0.199 OA
HETATM    3  O3  UNL     1      24.042  15.423 -10.620  1.00  0.00    -0.199 OA
ENDROOT
BRANCH   1   4
HETATM    4  C9  UNL     1      22.557  16.659 -12.375  1.00  0.00     0.131 A 
HETATM    5  C6  UNL     1      21.226  16.725 -12.110  1.00  0.00     0.010 A 
HETATM    6  C7  UNL     1      20.598  17.897 -12.413  1.00  0.00     0.021 A 
HETATM    7  C8  UNL     1      21.365  18.888 -12.949  1.00  0.00     0.052 A 
HETATM    8  S1  UNL     1      22.911  18.195 -13.026  1.00  0.00    -0.087 SA
BRANCH   5   9
HETATM    9  C5  UNL     1      20.471  15.591 -11.494  1.00  0.00     0.047 A 
HETATM   10  C1  UNL     1      20.547  15.373 -10.132  1.00  0.00     0.256 A 
HETATM   11  O1  UNL     1      21.229  16.178  -9.462  1.00  0.00    -0.267 OA
HETATM   12  N1  UNL     1      19.917  14.347  -9.546  1.00  0.00    -0.330 N 
HETATM   13  C2  UNL     1      19.182  13.486 -10.285  1.00  0.00     0.133 A 
ATOM     14  H1  UNL     1      19.992  14.213  -8.537  1.00  0.00     0.168 HD
HETATM   15  C3  UNL     1      19.091  13.678 -11.647  1.00  0.00     0.132 A 
HETATM   16  F1  UNL     1      18.359  12.804 -12.363  1.00  0.00    -0.205 F 
HETATM   17  C4  UNL     1      19.731  14.726 -12.256  1.00  0.00     0.061 A 
ENDBRANCH   5   9
ENDBRANCH   1   4
BRANCH   1  18
HETATM   18  N2  UNL     1      23.039  13.807 -12.474  1.00  0.00    -0.286 N 
HETATM   19  C10 UNL     1      22.686  13.468 -13.755  1.00  0.00     0.076 C 
HETATM   20  C11 UNL     1      22.153  12.074 -13.944  1.00  0.00     0.050 C 
HETATM   21  C12 UNL     1      21.688  11.384 -12.720  1.00  0.00    -0.002 C 
HETATM   22  C17 UNL     1      22.351  11.754 -11.430  1.00  0.00     0.026 C 
HETATM   23  C18 UNL     1      23.477  12.766 -11.595  1.00  0.00     0.141 C 
BRANCH  21  24
HETATM   24  C13 UNL     1      21.999   9.890 -12.925  1.00  0.00     0.069 C 
BRANCH  24  25
HETATM   25  C14 UNL     1      21.834   9.151 -11.636  1.00  0.00     0.046 A 
HETATM   26  N3  UNL     1      22.597   8.357 -11.062  1.00  0.00    -0.367 N 
HETATM   27  C15 UNL     1      22.292   7.756  -9.867  1.00  0.00     0.072 A 
ATOM     28  H3  UNL     1      23.492   8.142 -11.499  1.00  0.00     0.165 HD
HETATM   29  C16 UNL     1      20.949   8.135  -9.318  1.00  0.00     0.125 A 
HETATM   30  S3  UNL     1      20.376   9.278 -10.604  1.00  0.00    -0.112 SA
ENDBRANCH  24  25
ENDBRANCH  21  24
ENDBRANCH   1  18
TORSDOF 5
ENDMDL
MODEL 4
REMARK VINA RESULT: -6.986891895      3.530      6.155
REMARK  5 active torsions:
REMARK  status: ('A' for Active; 'I' for Inactive)
REMARK    1  A    between atoms: C5_9  and  C6_10 
REMARK    2  A    between atoms: C9_14  and  S2_15 
REMARK    3  A    between atoms: S2_15  and  N2_18 
REMARK    4  A    between atoms: C12_21  and  C13_22 
REMARK    5  A    between atoms: C13_22  and  C14_23 
ROOT
HETATM    1  S2  UNL     1      20.232  12.891 -13.161  1.00  0.00     0.271 S 
HETATM    2  O2  UNL     1      21.511  12.943 -12.352  1.00  0.00    -0.199 OA
HETATM    3  O3  UNL     1      19.944  14.320 -13.620  1.00  0.00    -0.199 OA
ENDROOT
BRANCH   1   4
HETATM    4  C9  UNL     1      20.689  12.039 -14.647  1.00  0.00     0.131 A 
HETATM    5  C6  UNL     1      21.337  10.849 -14.757  1.00  0.00     0.010 A 
HETATM    6  C7  UNL     1      21.570  10.395 -16.021  1.00  0.00     0.021 A 
HETATM    7  C8  UNL     1      21.131  11.174 -17.049  1.00  0.00     0.052 A 
HETATM    8  S1  UNL     1      20.418  12.499 -16.265  1.00  0.00    -0.087 SA
BRANCH   5   9
HETATM    9  C5  UNL     1      21.760  10.049 -13.568  1.00  0.00     0.047 A 
HETATM   10  C1  UNL     1      23.098   9.962 -13.238  1.00  0.00     0.256 A 
HETATM   11  O1  UNL     1      23.904  10.604 -13.945  1.00  0.00    -0.267 OA
HETATM   12  N1  UNL     1      23.523   9.224 -12.203  1.00  0.00    -0.330 N 
HETATM   13  C2  UNL     1      22.638   8.537 -11.448  1.00  0.00     0.133 A 
ATOM     14  H1  UNL     1      24.519   9.181 -11.984  1.00  0.00     0.168 HD
HETATM   15  C3  UNL     1      21.296   8.603 -11.756  1.00  0.00     0.132 A 
HETATM   16  F1  UNL     1      20.435   7.904 -10.994  1.00  0.00    -0.205 F 
HETATM   17  C4  UNL     1      20.852   9.356 -12.811  1.00  0.00     0.061 A 
ENDBRANCH   5   9
ENDBRANCH   1   4
BRANCH   1  18
HETATM   18  N2  UNL     1      18.976  12.216 -12.320  1.00  0.00    -0.286 N 
HETATM   19  C10 UNL     1      19.147  11.640 -11.088  1.00  0.00     0.076 C 
HETATM   20  C11 UNL     1      17.908  11.080 -10.445  1.00  0.00     0.050 C 
HETATM   21  C12 UNL     1      16.760  10.840 -11.346  1.00  0.00    -0.002 C 
HETATM   22  C17 UNL     1      16.635  11.723 -12.548  1.00  0.00     0.026 C 
HETATM   23  C18 UNL     1      17.706  12.802 -12.622  1.00  0.00     0.141 C 
BRANCH  21  24
HETATM   24  C13 UNL     1      15.494  11.108 -10.510  1.00  0.00     0.069 C 
BRANCH  24  25
HETATM   25  C14 UNL     1      14.685   9.857 -10.389  1.00  0.00     0.046 A 
HETATM   26  N3  UNL     1      14.028   9.414  -9.433  1.00  0.00    -0.367 N 
HETATM   27  C15 UNL     1      13.331   8.233  -9.485  1.00  0.00     0.072 A 
ATOM     28  H3  UNL     1      14.005   9.954  -8.568  1.00  0.00     0.165 HD
HETATM   29  C16 UNL     1      13.441   7.517 -10.797  1.00  0.00     0.125 A 
HETATM   30  S3  UNL     1      14.511   8.661 -11.711  1.00  0.00    -0.112 SA
ENDBRANCH  24  25
ENDBRANCH  21  24
ENDBRANCH   1  18
TORSDOF 5
ENDMDL
MODEL 5
REMARK VINA RESULT: -6.870787296      2.511      3.652
REMARK  5 active torsions:
REMARK  status: ('A' for Active; 'I' for Inactive)
REMARK    1  A    between atoms: C5_9  and  C6_10 
REMARK    2  A    between atoms: C9_14  and  S2_15 
REMARK    3  A    between atoms: S2_15  and  N2_18 
REMARK    4  A    between atoms: C12_21  and  C13_22 
REMARK    5  A    between atoms: C13_22  and  C14_23 
ROOT
HETATM    1  S2  UNL     1      21.095  10.354 -12.859  1.00  0.00     0.271 S 
HETATM    2  O2  UNL     1      20.034  11.309 -13.364  1.00  0.00    -0.199 OA
HETATM    3  O3  UNL     1      21.234   9.254 -13.911  1.00  0.00    -0.199 OA
ENDROOT
BRANCH   1   4
HETATM    4  C9  UNL     1      22.606  11.272 -12.985  1.00  0.00     0.131 A 
HETATM    5  C6  UNL     1      22.809  12.583 -12.689  1.00  0.00     0.010 A 
HETATM    6  C7  UNL     1      24.075  13.060 -12.863  1.00  0.00     0.021 A 
HETATM    7  C8  UNL     1      25.011  12.178 -13.314  1.00  0.00     0.052 A 
HETATM    8  S1  UNL     1      24.142  10.732 -13.488  1.00  0.00    -0.087 SA
BRANCH   5   9
HETATM    9  C5  UNL     1      21.723  13.470 -12.174  1.00  0.00     0.047 A 
HETATM   10  C1  UNL     1      21.101  14.363 -13.026  1.00  0.00     0.256 A 
HETATM   11  O1  UNL     1      21.462  14.356 -14.222  1.00  0.00    -0.267 OA
HETATM   12  N1  UNL     1      20.150  15.202 -12.595  1.00  0.00    -0.330 N 
HETATM   13  C2  UNL     1      19.772  15.196 -11.298  1.00  0.00     0.133 A 
ATOM     14  H1  UNL     1      19.709  15.849 -13.250  1.00  0.00     0.168 HD
HETATM   15  C3  UNL     1      20.377  14.318 -10.425  1.00  0.00     0.132 A 
HETATM   16  F1  UNL     1      19.989  14.335  -9.137  1.00  0.00    -0.205 F 
HETATM   17  C4  UNL     1      21.350  13.455 -10.855  1.00  0.00     0.061 A 
ENDBRANCH   5   9
ENDBRANCH   1   4
BRANCH   1  18
HETATM   18  N2  UNL     1      20.752   9.765 -11.349  1.00  0.00    -0.286 N 
HETATM   19  C10 UNL     1      21.730   9.305 -10.506  1.00  0.00     0.076 C 
HETATM   20  C11 UNL     1      21.263   8.812  -9.163  1.00  0.00     0.050 C 
HETATM   21  C12 UNL     1      19.822   8.494  -9.053  1.00  0.00    -0.002 C 
HETATM   22  C17 UNL     1      18.881   9.263  -9.927  1.00  0.00     0.026 C 
HETATM   23  C18 UNL     1      19.570  10.326 -10.772  1.00  0.00     0.141 C 
BRANCH  21  24
HETATM   24  C13 UNL     1      19.415   8.844  -7.609  1.00  0.00     0.069 C 
BRANCH  24  25
HETATM   25  C14 UNL     1      19.842   7.755  -6.678  1.00  0.00     0.046 A 
HETATM   26  N3  UNL     1      20.971   7.296  -6.442  1.00  0.00    -0.367 N 
HETATM   27  C15 UNL     1      21.196   6.281  -5.546  1.00  0.00     0.072 A 
ATOM     28  H3  UNL     1      21.769   7.692  -6.938  1.00  0.00     0.165 HD
HETATM   29  C16 UNL     1      19.954   5.768  -4.882  1.00  0.00     0.125 A 
HETATM   30  S3  UNL     1      18.701   6.828  -5.655  1.00  0.00    -0.112 SA
ENDBRANCH  24  25
ENDBRANCH  21  24
ENDBRANCH   1  18
TORSDOF 5
ENDMDL
