MODEL 1
REMARK VINA RESULT: -8.188199955      0.000      0.000
REMARK  5 active torsions:
REMARK  status: ('A' for Active; 'I' for Inactive)
REMARK    1  A    between atoms: N2_12  and  C11_13 
REMARK    2  A    between atoms: C13_17  and  C14_18 
REMARK    3  A    between atoms: C16_20  and  C17_21 
REMARK    4  A    between atoms: C22_31  and  N7_32 
REMARK    5  A    between atoms: N10_43  and  C26_44 
ROOT
HETATM    1  C11 UNL     1      23.466 -35.434  -6.584  1.00  0.00     0.119 A 
HETATM    2  C12 UNL     1      22.606 -34.810  -7.505  1.00  0.00     0.137 A 
HETATM    3  N3  UNL     1      21.329 -34.569  -7.213  1.00  0.00    -0.360 N 
ATOM      4  H3  UNL     1      20.746 -34.113  -7.915  1.00  0.00     0.165 HD
HETATM    5  C13 UNL     1      20.765 -34.907  -6.014  1.00  0.00     0.061 A 
HETATM    6  C23 UNL     1      21.587 -35.509  -5.117  1.00  0.00     0.120 A 
HETATM    7  N8  UNL     1      22.897 -35.749  -5.431  1.00  0.00    -0.349 N 
ATOM      8  H8  UNL     1      23.477 -36.205  -4.727  1.00  0.00     0.167 HD
ENDROOT
BRANCH   1   9
HETATM    9  N2  UNL     1      24.809 -35.708  -6.937  1.00  0.00    -0.356 N 
HETATM   10  C4  UNL     1      25.469 -36.964  -7.095  1.00  0.00     0.040 C 
HETATM   11  C3  UNL     1      24.675 -38.205  -6.949  1.00  0.00     0.050 C 
HETATM   12  C5  UNL     1      26.149 -36.901  -8.470  1.00  0.00     0.050 C 
HETATM   13  C7  UNL     1      26.596 -37.043  -6.080  1.00  0.00     0.072 C 
HETATM   14  C2  UNL     1      24.227 -38.858  -8.200  1.00  0.00     0.118 C 
HETATM   15  N1  UNL     1      25.213 -38.957  -9.233  1.00  0.00    -0.416 N 
HETATM   16  C1  UNL     1      24.702 -38.831 -10.563  1.00  0.00     0.143 C 
HETATM   17  C6  UNL     1      26.441 -38.292  -8.976  1.00  0.00     0.118 C 
HETATM   18  C8  UNL     1      27.096 -35.782  -5.524  1.00  0.00     0.119 C 
HETATM   19  C9  UNL     1      26.905 -34.551  -6.369  1.00  0.00     0.061 C 
HETATM   20  C24 UNL     1      26.474 -35.503  -4.162  1.00  0.00     0.247 C 
HETATM   21  N10 UNL     1      28.481 -35.821  -5.142  1.00  0.00    -0.346 N 
HETATM   22  C10 UNL     1      25.700 -34.546  -7.233  1.00  0.00     0.128 C 
HETATM   23  O1  UNL     1      25.471 -35.961  -3.626  1.00  0.00    -0.271 OA
HETATM   24  N9  UNL     1      27.360 -34.542  -3.612  1.00  0.00    -0.343 N 
HETATM   25  C25 UNL     1      28.672 -34.707  -4.192  1.00  0.00     0.250 C 
ATOM     26  H9  UNL     1      27.109 -33.843  -2.914  1.00  0.00     0.164 HD
BRANCH  21  27
HETATM   27  C26 UNL     1      29.571 -36.631  -5.510  1.00  0.00     0.032 A 
HETATM   28  C27 UNL     1      29.935 -37.680  -4.658  1.00  0.00     0.029 A 
HETATM   29  C28 UNL     1      30.998 -38.509  -4.905  1.00  0.00     0.002 A 
HETATM   30  C29 UNL     1      31.763 -38.329  -6.033  1.00  0.00     0.000 A 
HETATM   31  C30 UNL     1      31.436 -37.310  -6.890  1.00  0.00     0.002 A 
HETATM   32  C31 UNL     1      30.348 -36.474  -6.623  1.00  0.00     0.029 A 
ENDBRANCH  21  27
ENDBRANCH   1   9
BRANCH   5  33
HETATM   33  C14 UNL     1      19.378 -34.517  -5.843  1.00  0.00     0.036 A 
HETATM   34  C15 UNL     1      19.076 -33.507  -4.898  1.00  0.00     0.032 A 
HETATM   35  C16 UNL     1      17.812 -33.050  -4.688  1.00  0.00     0.008 A 
HETATM   36  C21 UNL     1      16.820 -33.633  -5.458  1.00  0.00     0.103 A 
HETATM   37  N6  UNL     1      17.097 -34.583  -6.348  1.00  0.00    -0.351 N 
HETATM   38  C22 UNL     1      18.369 -35.068  -6.588  1.00  0.00     0.111 A 
ATOM     39  H6  UNL     1      16.325 -34.976  -6.885  1.00  0.00     0.166 HD
BRANCH  35  40
HETATM   40  C17 UNL     1      17.495 -32.016  -3.721  1.00  0.00     0.061 A 
HETATM   41  C18 UNL     1      18.217 -31.739  -2.579  1.00  0.00     0.050 A 
HETATM   42  C19 UNL     1      17.608 -30.696  -1.921  1.00  0.00     0.112 A 
HETATM   43  N4  UNL     1      16.541 -30.370  -2.673  1.00  0.00    -0.307 N 
HETATM   44  C20 UNL     1      15.623 -29.284  -2.298  1.00  0.00     0.177 C 
HETATM   45  N5  UNL     1      16.481 -31.153  -3.734  1.00  0.00    -0.299 N 
ATOM     46  H5  UNL     1      15.764 -31.105  -4.458  1.00  0.00     0.187 HD
ENDBRANCH  35  40
BRANCH  38  47
HETATM   47  N7  UNL     1      18.442 -35.909  -7.508  1.00  0.00    -0.385 N 
ATOM     48  H72 UNL     1      19.310 -36.445  -7.530  1.00  0.00     0.157 HD
ATOM     49  H71 UNL     1      17.738 -36.166  -8.200  1.00  0.00     0.157 HD
ENDBRANCH  38  47
ENDBRANCH   5  33
TORSDOF 5
ENDMDL
MODEL 2
REMARK VINA RESULT: -8.037428088      2.874     10.896
REMARK  5 active torsions:
REMARK  status: ('A' for Active; 'I' for Inactive)
REMARK    1  A    between atoms: N2_12  and  C11_13 
REMARK    2  A    between atoms: C13_17  and  C14_18 
REMARK    3  A    between atoms: C16_20  and  C17_21 
REMARK    4  A    between atoms: C22_31  and  N7_32 
REMARK    5  A    between atoms: N10_43  and  C26_44 
ROOT
HETATM    1  C11 UNL     1      24.533 -37.007  -5.253  1.00  0.00     0.119 A 
HETATM    2  C12 UNL     1      25.174 -37.268  -4.029  1.00  0.00     0.137 A 
HETATM    3  N3  UNL     1      26.448 -37.652  -3.977  1.00  0.00    -0.360 N 
ATOM      4  H3  UNL     1      26.867 -37.828  -3.064  1.00  0.00     0.165 HD
HETATM    5  C13 UNL     1      27.218 -37.821  -5.095  1.00  0.00     0.061 A 
HETATM    6  C23 UNL     1      26.610 -37.571  -6.282  1.00  0.00     0.120 A 
HETATM    7  N8  UNL     1      25.300 -37.177  -6.319  1.00  0.00    -0.349 N 
ATOM      8  H8  UNL     1      24.884 -37.001  -7.233  1.00  0.00     0.167 HD
ENDROOT
BRANCH   1   9
HETATM    9  N2  UNL     1      23.168 -36.635  -5.278  1.00  0.00    -0.356 N 
HETATM   10  C4  UNL     1      22.521 -35.600  -6.018  1.00  0.00     0.040 C 
HETATM   11  C3  UNL     1      23.324 -34.802  -6.971  1.00  0.00     0.050 C 
HETATM   12  C5  UNL     1      21.337 -36.278  -6.723  1.00  0.00     0.050 C 
HETATM   13  C7  UNL     1      21.908 -34.619  -5.033  1.00  0.00     0.072 C 
HETATM   14  C2  UNL     1      23.232 -35.184  -8.399  1.00  0.00     0.118 C 
HETATM   15  N1  UNL     1      21.911 -35.449  -8.884  1.00  0.00    -0.416 N 
HETATM   16  C1  UNL     1      21.834 -36.481  -9.871  1.00  0.00     0.143 C 
HETATM   17  C6  UNL     1      20.886 -35.452  -7.903  1.00  0.00     0.118 C 
HETATM   18  C8  UNL     1      21.659 -35.096  -3.669  1.00  0.00     0.119 C 
HETATM   19  C9  UNL     1      21.468 -36.579  -3.498  1.00  0.00     0.061 C 
HETATM   20  C24 UNL     1      22.777 -34.667  -2.730  1.00  0.00     0.247 C 
HETATM   21  N10 UNL     1      20.551 -34.451  -3.019  1.00  0.00    -0.346 N 
HETATM   22  C10 UNL     1      22.215 -37.436  -4.450  1.00  0.00     0.128 C 
HETATM   23  O1  UNL     1      23.920 -34.283  -2.960  1.00  0.00    -0.271 OA
HETATM   24  N9  UNL     1      22.179 -34.813  -1.453  1.00  0.00    -0.343 N 
HETATM   25  C25 UNL     1      20.748 -34.668  -1.571  1.00  0.00     0.250 C 
ATOM     26  H9  UNL     1      22.682 -34.993  -0.584  1.00  0.00     0.164 HD
BRANCH  21  27
HETATM   27  C26 UNL     1      19.418 -33.756  -3.482  1.00  0.00     0.032 A 
HETATM   28  C27 UNL     1      18.918 -32.707  -2.701  1.00  0.00     0.029 A 
HETATM   29  C28 UNL     1      17.804 -31.987  -3.043  1.00  0.00     0.002 A 
HETATM   30  C29 UNL     1      17.122 -32.281  -4.201  1.00  0.00     0.000 A 
HETATM   31  C30 UNL     1      17.585 -33.303  -4.990  1.00  0.00     0.002 A 
HETATM   32  C31 UNL     1      18.723 -34.028  -4.626  1.00  0.00     0.029 A 
ENDBRANCH  21  27
ENDBRANCH   1   9
BRANCH   5  33
HETATM   33  C14 UNL     1      28.602 -38.185  -4.851  1.00  0.00     0.036 A 
HETATM   34  C15 UNL     1      28.930 -39.560  -4.769  1.00  0.00     0.032 A 
HETATM   35  C16 UNL     1      30.202 -40.001  -4.575  1.00  0.00     0.008 A 
HETATM   36  C21 UNL     1      31.174 -39.022  -4.460  1.00  0.00     0.103 A 
HETATM   37  N6  UNL     1      30.872 -37.729  -4.537  1.00  0.00    -0.351 N 
HETATM   38  C22 UNL     1      29.592 -37.245  -4.735  1.00  0.00     0.111 A 
ATOM     39  H6  UNL     1      31.630 -37.053  -4.444  1.00  0.00     0.166 HD
BRANCH  35  40
HETATM   40  C17 UNL     1      30.546 -41.408  -4.489  1.00  0.00     0.061 A 
HETATM   41  C18 UNL     1      29.704 -42.458  -4.790  1.00  0.00     0.050 A 
HETATM   42  C19 UNL     1      30.386 -43.635  -4.587  1.00  0.00     0.112 A 
HETATM   43  N4  UNL     1      31.613 -43.273  -4.172  1.00  0.00    -0.307 N 
HETATM   44  C20 UNL     1      32.652 -44.262  -3.846  1.00  0.00     0.177 C 
HETATM   45  N5  UNL     1      31.700 -41.956  -4.117  1.00  0.00    -0.299 N 
ATOM     46  H5  UNL     1      32.529 -41.436  -3.831  1.00  0.00     0.187 HD
ENDBRANCH  35  40
BRANCH  38  47
HETATM   47  N7  UNL     1      29.513 -36.004  -4.848  1.00  0.00    -0.385 N 
ATOM     48  H72 UNL     1      28.578 -35.652  -5.052  1.00  0.00     0.157 HD
ATOM     49  H71 UNL     1      30.240 -35.301  -4.714  1.00  0.00     0.157 HD
ENDBRANCH  38  47
ENDBRANCH   5  33
TORSDOF 5
ENDMDL
MODEL 3
REMARK VINA RESULT: -7.942093789      3.918      5.380
REMARK  5 active torsions:
REMARK  status: ('A' for Active; 'I' for Inactive)
REMARK    1  A    between atoms: N2_12  and  C11_13 
REMARK    2  A    between atoms: C13_17  and  C14_18 
REMARK    3  A    between atoms: C16_20  and  C17_21 
REMARK    4  A    between atoms: C22_31  and  N7_32 
REMARK    5  A    between atoms: N10_43  and  C26_44 
ROOT
HETATM    1  C11 UNL     1      24.354 -32.766  -6.296  1.00  0.00     0.119 A 
HETATM    2  C12 UNL     1      23.483 -31.900  -5.611  1.00  0.00     0.137 A 
HETATM    3  N3  UNL     1      22.198 -32.200  -5.435  1.00  0.00    -0.360 N 
ATOM      4  H3  UNL     1      21.607 -31.539  -4.930  1.00  0.00     0.165 HD
HETATM    5  C13 UNL     1      21.635 -33.357  -5.902  1.00  0.00     0.061 A 
HETATM    6  C23 UNL     1      22.467 -34.200  -6.563  1.00  0.00     0.120 A 
HETATM    7  N8  UNL     1      23.786 -33.878  -6.736  1.00  0.00    -0.349 N 
ATOM      8  H8  UNL     1      24.373 -34.541  -7.241  1.00  0.00     0.167 HD
ENDROOT
BRANCH   1   9
HETATM    9  N2  UNL     1      25.707 -32.402  -6.499  1.00  0.00    -0.356 N 
HETATM   10  C4  UNL     1      26.780 -32.332  -5.559  1.00  0.00     0.040 C 
HETATM   11  C3  UNL     1      26.527 -32.752  -4.163  1.00  0.00     0.050 C 
HETATM   12  C5  UNL     1      27.925 -33.143  -6.183  1.00  0.00     0.050 C 
HETATM   13  C7  UNL     1      27.273 -30.896  -5.503  1.00  0.00     0.072 C 
HETATM   14  C2  UNL     1      26.964 -34.118  -3.791  1.00  0.00     0.118 C 
HETATM   15  N1  UNL     1      28.266 -34.497  -4.251  1.00  0.00    -0.416 N 
HETATM   16  C1  UNL     1      28.396 -35.877  -4.602  1.00  0.00     0.143 C 
HETATM   17  C6  UNL     1      28.904 -33.573  -5.119  1.00  0.00     0.118 C 
HETATM   18  C8  UNL     1      26.965 -30.030  -6.645  1.00  0.00     0.119 C 
HETATM   19  C9  UNL     1      26.732 -30.712  -7.966  1.00  0.00     0.061 C 
HETATM   20  C24 UNL     1      25.747 -29.163  -6.357  1.00  0.00     0.247 C 
HETATM   21  N10 UNL     1      27.937 -28.995  -6.871  1.00  0.00    -0.346 N 
HETATM   22  C10 UNL     1      26.135 -32.068  -7.891  1.00  0.00     0.128 C 
HETATM   23  O1  UNL     1      24.859 -29.274  -5.517  1.00  0.00    -0.271 OA
HETATM   24  N9  UNL     1      25.866 -28.135  -7.325  1.00  0.00    -0.343 N 
HETATM   25  C25 UNL     1      27.254 -27.968  -7.684  1.00  0.00     0.250 C 
ATOM     26  H9  UNL     1      25.090 -27.595  -7.709  1.00  0.00     0.164 HD
BRANCH  21  27
HETATM   27  C26 UNL     1      29.289 -28.833  -6.516  1.00  0.00     0.032 A 
HETATM   28  C27 UNL     1      29.667 -27.652  -5.866  1.00  0.00     0.029 A 
HETATM   29  C28 UNL     1      30.960 -27.379  -5.505  1.00  0.00     0.002 A 
HETATM   30  C29 UNL     1      31.957 -28.287  -5.779  1.00  0.00     0.000 A 
HETATM   31  C30 UNL     1      31.622 -29.455  -6.415  1.00  0.00     0.002 A 
HETATM   32  C31 UNL     1      30.297 -29.716  -6.777  1.00  0.00     0.029 A 
ENDBRANCH  21  27
ENDBRANCH   1   9
BRANCH   5  33
HETATM   33  C14 UNL     1      20.236 -33.550  -5.568  1.00  0.00     0.036 A 
HETATM   34  C15 UNL     1      19.606 -32.592  -4.738  1.00  0.00     0.032 A 
HETATM   35  C16 UNL     1      18.292 -32.667  -4.395  1.00  0.00     0.008 A 
HETATM   36  C21 UNL     1      17.591 -33.747  -4.907  1.00  0.00     0.103 A 
HETATM   37  N6  UNL     1      18.178 -34.650  -5.688  1.00  0.00    -0.351 N 
HETATM   38  C22 UNL     1      19.509 -34.603  -6.058  1.00  0.00     0.111 A 
ATOM     39  H6  UNL     1      17.611 -35.424  -6.035  1.00  0.00     0.166 HD
BRANCH  35  40
HETATM   40  C17 UNL     1      17.639 -31.690  -3.544  1.00  0.00     0.061 A 
HETATM   41  C18 UNL     1      18.096 -31.267  -2.314  1.00  0.00     0.050 A 
HETATM   42  C19 UNL     1      17.211 -30.339  -1.816  1.00  0.00     0.112 A 
HETATM   43  N4  UNL     1      16.247 -30.225  -2.747  1.00  0.00    -0.307 N 
HETATM   44  C20 UNL     1      15.103 -29.317  -2.581  1.00  0.00     0.177 C 
HETATM   45  N5  UNL     1      16.507 -31.025  -3.765  1.00  0.00    -0.299 N 
ATOM     46  H5  UNL     1      15.926 -31.120  -4.598  1.00  0.00     0.187 HD
ENDBRANCH  35  40
BRANCH  38  47
HETATM   47  N7  UNL     1      19.864 -35.500  -6.851  1.00  0.00    -0.385 N 
ATOM     48  H72 UNL     1      20.721 -35.301  -7.366  1.00  0.00     0.157 HD
ATOM     49  H71 UNL     1      19.444 -36.415  -7.012  1.00  0.00     0.157 HD
ENDBRANCH  38  47
ENDBRANCH   5  33
TORSDOF 5
ENDMDL
MODEL 4
REMARK VINA RESULT: -7.935312959      2.842      4.034
REMARK  5 active torsions:
REMARK  status: ('A' for Active; 'I' for Inactive)
REMARK    1  A    between atoms: N2_12  and  C11_13 
REMARK    2  A    between atoms: C13_17  and  C14_18 
REMARK    3  A    between atoms: C16_20  and  C17_21 
REMARK    4  A    between atoms: C22_31  and  N7_32 
REMARK    5  A    between atoms: N10_43  and  C26_44 
ROOT
HETATM    1  C11 UNL     1      24.214 -33.730  -6.085  1.00  0.00     0.119 A 
HETATM    2  C12 UNL     1      23.372 -32.607  -6.005  1.00  0.00     0.137 A 
HETATM    3  N3  UNL     1      22.052 -32.734  -5.875  1.00  0.00    -0.360 N 
ATOM      4  H3  UNL     1      21.484 -31.888  -5.820  1.00  0.00     0.165 HD
HETATM    5  C13 UNL     1      21.425 -33.948  -5.812  1.00  0.00     0.061 A 
HETATM    6  C23 UNL     1      22.229 -35.039  -5.887  1.00  0.00     0.120 A 
HETATM    7  N8  UNL     1      23.583 -34.893  -6.021  1.00  0.00    -0.349 N 
ATOM      8  H8  UNL     1      24.148 -35.740  -6.074  1.00  0.00     0.167 HD
ENDROOT
BRANCH   1   9
HETATM    9  N2  UNL     1      25.608 -33.564  -6.259  1.00  0.00    -0.356 N 
HETATM   10  C4  UNL     1      26.683 -33.942  -5.399  1.00  0.00     0.040 C 
HETATM   11  C3  UNL     1      26.369 -34.681  -4.156  1.00  0.00     0.050 C 
HETATM   12  C5  UNL     1      27.658 -34.734  -6.283  1.00  0.00     0.050 C 
HETATM   13  C7  UNL     1      27.429 -32.685  -4.985  1.00  0.00     0.072 C 
HETATM   14  C2  UNL     1      26.553 -36.150  -4.192  1.00  0.00     0.118 C 
HETATM   15  N1  UNL     1      27.762 -36.606  -4.811  1.00  0.00    -0.416 N 
HETATM   16  C1  UNL     1      27.637 -37.837  -5.529  1.00  0.00     0.143 C 
HETATM   17  C6  UNL     1      28.550 -35.603  -5.432  1.00  0.00     0.118 C 
HETATM   18  C8  UNL     1      27.275 -31.497  -5.830  1.00  0.00     0.119 C 
HETATM   19  C9  UNL     1      26.912 -31.737  -7.270  1.00  0.00     0.061 C 
HETATM   20  C24 UNL     1      26.237 -30.547  -5.249  1.00  0.00     0.247 C 
HETATM   21  N10 UNL     1      28.417 -30.623  -5.823  1.00  0.00    -0.346 N 
HETATM   22  C10 UNL     1      26.079 -32.936  -7.531  1.00  0.00     0.128 C 
HETATM   23  O1  UNL     1      25.350 -30.731  -4.421  1.00  0.00    -0.271 OA
HETATM   24  N9  UNL     1      26.533 -29.328  -5.908  1.00  0.00    -0.343 N 
HETATM   25  C25 UNL     1      27.926 -29.310  -6.288  1.00  0.00     0.250 C 
ATOM     26  H9  UNL     1      25.866 -28.578  -6.087  1.00  0.00     0.164 HD
BRANCH  21  27
HETATM   27  C26 UNL     1      29.778 -30.801  -5.516  1.00  0.00     0.032 A 
HETATM   28  C27 UNL     1      30.516 -29.686  -5.100  1.00  0.00     0.029 A 
HETATM   29  C28 UNL     1      31.853 -29.742  -4.808  1.00  0.00     0.002 A 
HETATM   30  C29 UNL     1      32.533 -30.932  -4.915  1.00  0.00     0.000 A 
HETATM   31  C30 UNL     1      31.841 -32.046  -5.320  1.00  0.00     0.002 A 
HETATM   32  C31 UNL     1      30.477 -31.971  -5.616  1.00  0.00     0.029 A 
ENDBRANCH  21  27
ENDBRANCH   1   9
BRANCH   5  33
HETATM   33  C14 UNL     1      19.989 -33.900  -5.610  1.00  0.00     0.036 A 
HETATM   34  C15 UNL     1      19.467 -32.919  -4.733  1.00  0.00     0.032 A 
HETATM   35  C16 UNL     1      18.135 -32.774  -4.502  1.00  0.00     0.008 A 
HETATM   36  C21 UNL     1      17.302 -33.648  -5.179  1.00  0.00     0.103 A 
HETATM   37  N6  UNL     1      17.786 -34.572  -6.005  1.00  0.00    -0.351 N 
HETATM   38  C22 UNL     1      19.133 -34.746  -6.265  1.00  0.00     0.111 A 
ATOM     39  H6  UNL     1      17.124 -35.188  -6.476  1.00  0.00     0.166 HD
BRANCH  35  40
HETATM   40  C17 UNL     1      17.593 -31.771  -3.604  1.00  0.00     0.061 A 
HETATM   41  C18 UNL     1      18.133 -31.410  -2.388  1.00  0.00     0.050 A 
HETATM   42  C19 UNL     1      17.340 -30.433  -1.832  1.00  0.00     0.112 A 
HETATM   43  N4  UNL     1      16.347 -30.228  -2.716  1.00  0.00    -0.307 N 
HETATM   44  C20 UNL     1      15.281 -29.244  -2.481  1.00  0.00     0.177 C 
HETATM   45  N5  UNL     1      16.504 -31.022  -3.760  1.00  0.00    -0.299 N 
ATOM     46  H5  UNL     1      15.882 -31.056  -4.568  1.00  0.00     0.187 HD
ENDBRANCH  35  40
BRANCH  38  47
HETATM   47  N7  UNL     1      19.392 -35.618  -7.120  1.00  0.00    -0.385 N 
ATOM     48  H72 UNL     1      18.641 -35.801  -7.785  1.00  0.00     0.157 HD
ATOM     49  H71 UNL     1      20.262 -36.127  -7.272  1.00  0.00     0.157 HD
ENDBRANCH  38  47
ENDBRANCH   5  33
TORSDOF 5
ENDMDL
MODEL 5
REMARK VINA RESULT: -7.845565357      6.025      7.949
REMARK  5 active torsions:
REMARK  status: ('A' for Active; 'I' for Inactive)
REMARK    1  A    between atoms: N2_12  and  C11_13 
REMARK    2  A    between atoms: C13_17  and  C14_18 
REMARK    3  A    between atoms: C16_20  and  C17_21 
REMARK    4  A    between atoms: C22_31  and  N7_32 
REMARK    5  A    between atoms: N10_43  and  C26_44 
ROOT
HETATM    1  C11 UNL     1      25.708 -30.579  -5.118  1.00  0.00     0.119 A 
HETATM    2  C12 UNL     1      24.801 -31.396  -5.815  1.00  0.00     0.137 A 
HETATM    3  N3  UNL     1      23.968 -32.216  -5.177  1.00  0.00    -0.360 N 
ATOM      4  H3  UNL     1      23.328 -32.788  -5.729  1.00  0.00     0.165 HD
HETATM    5  C13 UNL     1      23.933 -32.325  -3.814  1.00  0.00     0.061 A 
HETATM    6  C23 UNL     1      24.803 -31.539  -3.131  1.00  0.00     0.120 A 
HETATM    7  N8  UNL     1      25.653 -30.702  -3.801  1.00  0.00    -0.349 N 
ATOM      8  H8  UNL     1      26.290 -30.131  -3.245  1.00  0.00     0.167 HD
ENDROOT
BRANCH   1   9
HETATM    9  N2  UNL     1      26.605 -29.744  -5.825  1.00  0.00    -0.356 N 
HETATM   10  C4  UNL     1      28.032 -29.722  -5.807  1.00  0.00     0.040 C 
HETATM   11  C3  UNL     1      28.746 -30.738  -5.003  1.00  0.00     0.050 C 
HETATM   12  C5  UNL     1      28.463 -29.779  -7.280  1.00  0.00     0.050 C 
HETATM   13  C7  UNL     1      28.483 -28.363  -5.298  1.00  0.00     0.072 C 
HETATM   14  C2  UNL     1      29.280 -31.910  -5.735  1.00  0.00     0.118 C 
HETATM   15  N1  UNL     1      29.949 -31.617  -6.966  1.00  0.00    -0.416 N 
HETATM   16  C1  UNL     1      29.777 -32.602  -7.989  1.00  0.00     0.143 C 
HETATM   17  C6  UNL     1      29.887 -30.264  -7.392  1.00  0.00     0.118 C 
HETATM   18  C8  UNL     1      27.526 -27.256  -5.387  1.00  0.00     0.119 C 
HETATM   19  C9  UNL     1      26.464 -27.367  -6.447  1.00  0.00     0.061 C 
HETATM   20  C24 UNL     1      26.823 -27.036  -4.054  1.00  0.00     0.247 C 
HETATM   21  N10 UNL     1      28.141 -25.965  -5.539  1.00  0.00    -0.346 N 
HETATM   22  C10 UNL     1      26.023 -28.745  -6.772  1.00  0.00     0.128 C 
HETATM   23  O1  UNL     1      26.701 -27.768  -3.077  1.00  0.00    -0.271 OA
HETATM   24  N9  UNL     1      26.307 -25.723  -4.193  1.00  0.00    -0.343 N 
HETATM   25  C25 UNL     1      27.122 -24.980  -5.124  1.00  0.00     0.250 C 
ATOM     26  H9  UNL     1      25.486 -25.359  -3.709  1.00  0.00     0.164 HD
BRANCH  21  27
HETATM   27  C26 UNL     1      29.397 -25.532  -6.001  1.00  0.00     0.032 A 
HETATM   28  C27 UNL     1      29.615 -25.483  -7.383  1.00  0.00     0.029 A 
HETATM   29  C28 UNL     1      30.809 -25.107  -7.939  1.00  0.00     0.002 A 
HETATM   30  C29 UNL     1      31.864 -24.755  -7.130  1.00  0.00     0.000 A 
HETATM   31  C30 UNL     1      31.687 -24.792  -5.770  1.00  0.00     0.002 A 
HETATM   32  C31 UNL     1      30.461 -25.179  -5.220  1.00  0.00     0.029 A 
ENDBRANCH  21  27
ENDBRANCH   1   9
BRANCH   5  33
HETATM   33  C14 UNL     1      22.922 -33.222  -3.285  1.00  0.00     0.036 A 
HETATM   34  C15 UNL     1      21.657 -33.257  -3.920  1.00  0.00     0.032 A 
HETATM   35  C16 UNL     1      20.657 -34.086  -3.518  1.00  0.00     0.008 A 
HETATM   36  C21 UNL     1      20.943 -34.907  -2.440  1.00  0.00     0.103 A 
HETATM   37  N6  UNL     1      22.130 -34.878  -1.840  1.00  0.00    -0.351 N 
HETATM   38  C22 UNL     1      23.169 -34.051  -2.222  1.00  0.00     0.111 A 
ATOM     39  H6  UNL     1      22.282 -35.504  -1.049  1.00  0.00     0.166 HD
BRANCH  35  40
HETATM   40  C17 UNL     1      19.358 -34.128  -4.163  1.00  0.00     0.061 A 
HETATM   41  C18 UNL     1      18.200 -33.564  -3.670  1.00  0.00     0.050 A 
HETATM   42  C19 UNL     1      17.180 -33.813  -4.559  1.00  0.00     0.112 A 
HETATM   43  N4  UNL     1      17.740 -34.516  -5.560  1.00  0.00    -0.307 N 
HETATM   44  C20 UNL     1      16.963 -34.978  -6.720  1.00  0.00     0.177 C 
HETATM   45  N5  UNL     1      19.026 -34.698  -5.319  1.00  0.00    -0.299 N 
ATOM     46  H5  UNL     1      19.670 -35.201  -5.929  1.00  0.00     0.187 HD
ENDBRANCH  35  40
BRANCH  38  47
HETATM   47  N7  UNL     1      24.229 -34.214  -1.583  1.00  0.00    -0.385 N 
ATOM     48  H72 UNL     1      24.847 -33.402  -1.566  1.00  0.00     0.157 HD
ATOM     49  H71 UNL     1      24.532 -35.022  -1.040  1.00  0.00     0.157 HD
ENDBRANCH  38  47
ENDBRANCH   5  33
TORSDOF 5
ENDMDL
