MODEL 1
REMARK VINA RESULT: -7.688221058      0.000      0.000
REMARK  5 active torsions:
REMARK  status: ('A' for Active; 'I' for Inactive)
REMARK    1  A    between atoms: C4_5  and  O1_6 
REMARK    2  A    between atoms: C4_5  and  C7_9 
REMARK    3  A    between atoms: O1_6  and  C5_7 
REMARK    4  A    between atoms: C9_11  and  C10_12 
REMARK    5  A    between atoms: N1_14  and  N2_16 
ROOT
HETATM    1  C1  UNL     1      30.549   9.579  27.388  1.00  0.00     0.105 C 
HETATM    2  C2  UNL     1      30.116   9.908  26.287  1.00  0.00    -0.116 C 
HETATM    3  C3  UNL     1      29.586  10.315  25.028  1.00  0.00     0.191 C 
HETATM    4  F1  UNL     1      28.255  10.552  24.971  1.00  0.00    -0.194 F 
HETATM    5  C4  UNL     1      30.325  10.452  23.979  1.00  0.00     0.128 C 
ENDROOT
BRANCH   5   6
HETATM    6  O1  UNL     1      29.695  10.865  22.783  1.00  0.00    -0.347 OA
BRANCH   6   7
HETATM    7  C5  UNL     1      29.464  12.241  22.551  1.00  0.00     0.171 C 
HETATM    8  C6  UNL     1      29.835  12.585  21.146  1.00  0.00     0.034 C 
ENDBRANCH   6   7
ENDBRANCH   5   6
BRANCH   5   9
HETATM    9  C7  UNL     1      31.795  10.214  23.909  1.00  0.00     0.034 A 
HETATM   10  C8  UNL     1      32.324   8.977  23.872  1.00  0.00     0.038 A 
HETATM   11  C9  UNL     1      33.694   8.870  23.823  1.00  0.00     0.031 A 
HETATM   12  S1  UNL     1      34.193  10.510  23.826  1.00  0.00    -0.073 SA
HETATM   13  C17 UNL     1      32.676  11.268  23.891  1.00  0.00     0.101 A 
HETATM   14  N4  UNL     1      32.339  12.676  23.923  1.00  0.00    -0.093 NA
BRANCH  11  15
HETATM   15  C10 UNL     1      34.506   7.659  23.784  1.00  0.00     0.039 C 
HETATM   16  C11 UNL     1      34.941   7.129  22.487  1.00  0.00     0.071 C 
HETATM   17  N1  UNL     1      34.828   7.077  24.858  1.00  0.00    -0.304 N 
ATOM     18  H1  UNL     1      35.397   6.230  24.828  1.00  0.00     0.186 HD
BRANCH  17  19
HETATM   19  N2  UNL     1      34.409   7.588  26.082  1.00  0.00    -0.303 N 
HETATM   20  C12 UNL     1      33.868   6.831  26.967  1.00  0.00     0.045 C 
HETATM   21  C13 UNL     1      33.380   7.199  28.284  1.00  0.00     0.052 C 
HETATM   22  C16 UNL     1      33.608   5.378  26.853  1.00  0.00     0.178 C 
HETATM   23  C14 UNL     1      33.302   6.093  29.046  1.00  0.00     0.003 C 
HETATM   24  C15 UNL     1      32.840   6.093  30.459  1.00  0.00     0.068 C 
HETATM   25  N3  UNL     1      33.732   4.982  28.263  1.00  0.00    -0.388 N 
ATOM     26  H3  UNL     1      34.063   4.083  28.615  1.00  0.00     0.159 HD
ATOM     27  H2  UNL     1      34.534   8.580  26.279  1.00  0.00     0.186 HD
ENDBRANCH  17  19
ENDBRANCH  11  15
ENDBRANCH   5   9
TORSDOF 5
ENDMDL
MODEL 2
REMARK VINA RESULT: -7.537918514      6.838      9.635
REMARK  5 active torsions:
REMARK  status: ('A' for Active; 'I' for Inactive)
REMARK    1  A    between atoms: C4_5  and  O1_6 
REMARK    2  A    between atoms: C4_5  and  C7_9 
REMARK    3  A    between atoms: O1_6  and  C5_7 
REMARK    4  A    between atoms: C9_11  and  C10_12 
REMARK    5  A    between atoms: N1_14  and  N2_16 
ROOT
HETATM    1  C1  UNL     1      38.305   3.764  22.239  1.00  0.00     0.105 C 
HETATM    2  C2  UNL     1      37.321   4.457  22.483  1.00  0.00    -0.116 C 
HETATM    3  C3  UNL     1      36.201   5.279  22.797  1.00  0.00     0.191 C 
HETATM    4  F1  UNL     1      36.018   5.596  24.099  1.00  0.00    -0.194 F 
HETATM    5  C4  UNL     1      35.385   5.710  21.894  1.00  0.00     0.128 C 
ENDROOT
BRANCH   5   6
HETATM    6  O1  UNL     1      34.309   6.523  22.316  1.00  0.00    -0.347 OA
BRANCH   6   7
HETATM    7  C5  UNL     1      33.071   5.929  22.653  1.00  0.00     0.171 C 
HETATM    8  C6  UNL     1      32.289   6.853  23.527  1.00  0.00     0.034 C 
ENDBRANCH   6   7
ENDBRANCH   5   6
BRANCH   5   9
HETATM    9  C7  UNL     1      35.471   5.426  20.433  1.00  0.00     0.034 A 
HETATM   10  C8  UNL     1      35.118   4.238  19.907  1.00  0.00     0.038 A 
HETATM   11  C9  UNL     1      35.250   4.078  18.548  1.00  0.00     0.031 A 
HETATM   12  S1  UNL     1      35.863   5.600  18.054  1.00  0.00    -0.073 SA
HETATM   13  C17 UNL     1      35.934   6.380  19.559  1.00  0.00     0.101 A 
HETATM   14  N4  UNL     1      36.368   7.721  19.895  1.00  0.00    -0.093 NA
BRANCH  11  15
HETATM   15  C10 UNL     1      34.948   2.900  17.742  1.00  0.00     0.039 C 
HETATM   16  C11 UNL     1      33.623   2.775  17.125  1.00  0.00     0.071 C 
HETATM   17  N1  UNL     1      35.821   2.001  17.581  1.00  0.00    -0.304 N 
ATOM     18  H1  UNL     1      35.606   1.179  17.016  1.00  0.00     0.186 HD
BRANCH  17  19
HETATM   19  N2  UNL     1      37.073   2.130  18.172  1.00  0.00    -0.303 N 
HETATM   20  C12 UNL     1      37.909   1.155  18.176  1.00  0.00     0.045 C 
HETATM   21  C13 UNL     1      39.245   1.121  18.742  1.00  0.00     0.052 C 
HETATM   22  C16 UNL     1      37.704  -0.192  17.594  1.00  0.00     0.178 C 
HETATM   23  C14 UNL     1      39.937   0.119  18.171  1.00  0.00     0.003 C 
HETATM   24  C15 UNL     1      41.346  -0.211  18.509  1.00  0.00     0.068 C 
HETATM   25  N3  UNL     1      39.087  -0.527  17.225  1.00  0.00    -0.388 N 
ATOM     26  H3  UNL     1      39.383  -1.110  16.442  1.00  0.00     0.159 HD
ATOM     27  H2  UNL     1      37.332   3.014  18.609  1.00  0.00     0.186 HD
ENDBRANCH  17  19
ENDBRANCH  11  15
ENDBRANCH   5   9
TORSDOF 5
ENDMDL
MODEL 3
REMARK VINA RESULT: -7.264466263      7.191     10.084
REMARK  5 active torsions:
REMARK  status: ('A' for Active; 'I' for Inactive)
REMARK    1  A    between atoms: C4_5  and  O1_6 
REMARK    2  A    between atoms: C4_5  and  C7_9 
REMARK    3  A    between atoms: O1_6  and  C5_7 
REMARK    4  A    between atoms: C9_11  and  C10_12 
REMARK    5  A    between atoms: N1_14  and  N2_16 
ROOT
HETATM    1  C1  UNL     1      32.893   5.916  22.422  1.00  0.00     0.105 C 
HETATM    2  C2  UNL     1      34.090   5.730  22.623  1.00  0.00    -0.116 C 
HETATM    3  C3  UNL     1      35.470   5.499  22.894  1.00  0.00     0.191 C 
HETATM    4  F1  UNL     1      35.879   5.658  24.174  1.00  0.00    -0.194 F 
HETATM    5  C4  UNL     1      36.307   5.155  21.974  1.00  0.00     0.128 C 
ENDROOT
BRANCH   5   6
HETATM    6  O1  UNL     1      37.652   4.947  22.355  1.00  0.00    -0.347 OA
BRANCH   6   7
HETATM    7  C5  UNL     1      38.150   3.628  22.477  1.00  0.00     0.171 C 
HETATM    8  C6  UNL     1      38.390   3.311  23.916  1.00  0.00     0.034 C 
ENDBRANCH   6   7
ENDBRANCH   5   6
BRANCH   5   9
HETATM    9  C7  UNL     1      35.986   4.957  20.532  1.00  0.00     0.034 A 
HETATM   10  C8  UNL     1      35.729   3.743  20.010  1.00  0.00     0.038 A 
HETATM   11  C9  UNL     1      35.458   3.671  18.664  1.00  0.00     0.031 A 
HETATM   12  S1  UNL     1      35.572   5.310  18.176  1.00  0.00    -0.073 SA
HETATM   13  C17 UNL     1      35.954   6.025  19.667  1.00  0.00     0.101 A 
HETATM   14  N4  UNL     1      36.197   7.413  20.000  1.00  0.00    -0.093 NA
BRANCH  11  15
HETATM   15  C10 UNL     1      35.159   2.489  17.863  1.00  0.00     0.039 C 
HETATM   16  C11 UNL     1      33.781   2.259  17.414  1.00  0.00     0.071 C 
HETATM   17  N1  UNL     1      36.078   1.677  17.563  1.00  0.00    -0.304 N 
ATOM     18  H1  UNL     1      35.865   0.851  17.003  1.00  0.00     0.186 HD
BRANCH  17  19
HETATM   19  N2  UNL     1      37.380   1.905  17.995  1.00  0.00    -0.303 N 
HETATM   20  C12 UNL     1      38.198   0.933  18.180  1.00  0.00     0.045 C 
HETATM   21  C13 UNL     1      39.579   0.994  18.624  1.00  0.00     0.052 C 
HETATM   22  C16 UNL     1      37.923  -0.509  17.983  1.00  0.00     0.178 C 
HETATM   23  C14 UNL     1      40.203  -0.145  18.274  1.00  0.00     0.003 C 
HETATM   24  C15 UNL     1      41.632  -0.430  18.568  1.00  0.00     0.068 C 
HETATM   25  N3  UNL     1      39.262  -0.978  17.599  1.00  0.00    -0.388 N 
ATOM     26  H3  UNL     1      39.478  -1.751  16.970  1.00  0.00     0.159 HD
ATOM     27  H2  UNL     1      37.690   2.861  18.168  1.00  0.00     0.186 HD
ENDBRANCH  17  19
ENDBRANCH  11  15
ENDBRANCH   5   9
TORSDOF 5
ENDMDL
MODEL 4
REMARK VINA RESULT: -7.208632523      2.843      4.955
REMARK  5 active torsions:
REMARK  status: ('A' for Active; 'I' for Inactive)
REMARK    1  A    between atoms: C4_5  and  O1_6 
REMARK    2  A    between atoms: C4_5  and  C7_9 
REMARK    3  A    between atoms: O1_6  and  C5_7 
REMARK    4  A    between atoms: C9_11  and  C10_12 
REMARK    5  A    between atoms: N1_14  and  N2_16 
ROOT
HETATM    1  C1  UNL     1      34.791   7.023  23.365  1.00  0.00     0.105 C 
HETATM    2  C2  UNL     1      34.055   7.932  23.740  1.00  0.00    -0.116 C 
HETATM    3  C3  UNL     1      33.194   8.996  24.135  1.00  0.00     0.191 C 
HETATM    4  F1  UNL     1      33.167  10.091  23.340  1.00  0.00    -0.194 F 
HETATM    5  C4  UNL     1      32.467   8.939  25.200  1.00  0.00     0.128 C 
ENDROOT
BRANCH   5   6
HETATM    6  O1  UNL     1      31.645  10.049  25.494  1.00  0.00    -0.347 OA
BRANCH   6   7
HETATM    7  C5  UNL     1      30.242   9.944  25.343  1.00  0.00     0.171 C 
HETATM    8  C6  UNL     1      29.837  10.479  24.009  1.00  0.00     0.034 C 
ENDBRANCH   6   7
ENDBRANCH   5   6
BRANCH   5   9
HETATM    9  C7  UNL     1      32.412   7.798  26.158  1.00  0.00     0.034 A 
HETATM   10  C8  UNL     1      33.041   7.826  27.348  1.00  0.00     0.038 A 
HETATM   11  C9  UNL     1      32.938   6.713  28.150  1.00  0.00     0.031 A 
HETATM   12  S1  UNL     1      31.958   5.669  27.209  1.00  0.00    -0.073 SA
HETATM   13  C17 UNL     1      31.716   6.655  25.849  1.00  0.00     0.101 A 
HETATM   14  N4  UNL     1      30.967   6.401  24.636  1.00  0.00    -0.093 NA
BRANCH  11  15
HETATM   15  C10 UNL     1      33.525   6.489  29.467  1.00  0.00     0.039 C 
HETATM   16  C11 UNL     1      32.928   7.141  30.637  1.00  0.00     0.071 C 
HETATM   17  N1  UNL     1      34.536   5.743  29.591  1.00  0.00    -0.304 N 
ATOM     18  H1  UNL     1      34.944   5.588  30.514  1.00  0.00     0.186 HD
BRANCH  17  19
HETATM   19  N2  UNL     1      35.095   5.131  28.474  1.00  0.00    -0.303 N 
HETATM   20  C12 UNL     1      35.092   3.854  28.346  1.00  0.00     0.045 C 
HETATM   21  C13 UNL     1      35.626   3.060  27.253  1.00  0.00     0.052 C 
HETATM   22  C16 UNL     1      34.534   2.867  29.299  1.00  0.00     0.178 C 
HETATM   23  C14 UNL     1      35.052   1.844  27.274  1.00  0.00     0.003 C 
HETATM   24  C15 UNL     1      35.361   0.767  26.298  1.00  0.00     0.068 C 
HETATM   25  N3  UNL     1      34.136   1.802  28.366  1.00  0.00    -0.388 N 
ATOM     26  H3  UNL     1      33.354   1.157  28.479  1.00  0.00     0.159 HD
ATOM     27  H2  UNL     1      35.513   5.707  27.745  1.00  0.00     0.186 HD
ENDBRANCH  17  19
ENDBRANCH  11  15
ENDBRANCH   5   9
TORSDOF 5
ENDMDL
MODEL 5
REMARK VINA RESULT: -7.166152265      3.134      5.212
REMARK  5 active torsions:
REMARK  status: ('A' for Active; 'I' for Inactive)
REMARK    1  A    between atoms: C4_5  and  O1_6 
REMARK    2  A    between atoms: C4_5  and  C7_9 
REMARK    3  A    between atoms: O1_6  and  C5_7 
REMARK    4  A    between atoms: C9_11  and  C10_12 
REMARK    5  A    between atoms: N1_14  and  N2_16 
ROOT
HETATM    1  C1  UNL     1      30.237  10.183  25.829  1.00  0.00     0.105 C 
HETATM    2  C2  UNL     1      31.241   9.800  25.234  1.00  0.00    -0.116 C 
HETATM    3  C3  UNL     1      32.415   9.394  24.536  1.00  0.00     0.191 C 
HETATM    4  F1  UNL     1      32.795  10.152  23.481  1.00  0.00    -0.194 F 
HETATM    5  C4  UNL     1      33.097   8.352  24.876  1.00  0.00     0.128 C 
ENDROOT
BRANCH   5   6
HETATM    6  O1  UNL     1      34.248   8.045  24.117  1.00  0.00    -0.347 OA
BRANCH   6   7
HETATM    7  C5  UNL     1      34.179   7.053  23.110  1.00  0.00     0.171 C 
HETATM    8  C6  UNL     1      35.037   5.891  23.488  1.00  0.00     0.034 C 
ENDBRANCH   6   7
ENDBRANCH   5   6
BRANCH   5   9
HETATM    9  C7  UNL     1      32.781   7.434  26.007  1.00  0.00     0.034 A 
HETATM   10  C8  UNL     1      33.410   7.509  27.195  1.00  0.00     0.038 A 
HETATM   11  C9  UNL     1      33.050   6.602  28.165  1.00  0.00     0.031 A 
HETATM   12  S1  UNL     1      31.840   5.678  27.378  1.00  0.00    -0.073 SA
HETATM   13  C17 UNL     1      31.828   6.453  25.869  1.00  0.00     0.101 A 
HETATM   14  N4  UNL     1      31.028   6.186  24.691  1.00  0.00    -0.093 NA
BRANCH  11  15
HETATM   15  C10 UNL     1      33.580   6.468  29.518  1.00  0.00     0.039 C 
HETATM   16  C11 UNL     1      32.897   7.147  30.624  1.00  0.00     0.071 C 
HETATM   17  N1  UNL     1      34.614   5.774  29.728  1.00  0.00    -0.304 N 
ATOM     18  H1  UNL     1      34.981   5.682  30.675  1.00  0.00     0.186 HD
BRANCH  17  19
HETATM   19  N2  UNL     1      35.254   5.136  28.671  1.00  0.00    -0.303 N 
HETATM   20  C12 UNL     1      35.175   3.864  28.518  1.00  0.00     0.045 C 
HETATM   21  C13 UNL     1      35.776   3.046  27.479  1.00  0.00     0.052 C 
HETATM   22  C16 UNL     1      34.442   2.910  29.381  1.00  0.00     0.178 C 
HETATM   23  C14 UNL     1      35.119   1.875  27.410  1.00  0.00     0.003 C 
HETATM   24  C15 UNL     1      35.462   0.789  26.454  1.00  0.00     0.068 C 
HETATM   25  N3  UNL     1      34.081   1.887  28.388  1.00  0.00    -0.388 N 
ATOM     26  H3  UNL     1      33.247   1.299  28.398  1.00  0.00     0.159 HD
ATOM     27  H2  UNL     1      35.794   5.689  28.005  1.00  0.00     0.186 HD
ENDBRANCH  17  19
ENDBRANCH  11  15
ENDBRANCH   5   9
TORSDOF 5
ENDMDL
