MODEL 1
REMARK VINA RESULT: -6.636409233      0.000      0.000
REMARK  2 active torsions:
REMARK  status: ('A' for Active; 'I' for Inactive)
REMARK    1  A    between atoms: C2_2  and  C4_4 
REMARK    2  A    between atoms: C4_4  and  N1_6 
REMARK       I    between atoms: N1_6  and  C6_8 
REMARK       I    between atoms: C6_8  and  N2_10 
ROOT
HETATM    1  N1  UNL     1      11.348   8.648   7.168  1.00  0.00    -0.338 N 
ATOM      2  H1  UNL     1      10.725   9.093   7.842  1.00  0.00     0.164 HD
HETATM    3  C6  UNL     1      12.673   9.098   7.010  1.00  0.00     0.322 C 
HETATM    4  O1  UNL     1      13.459   8.564   6.184  1.00  0.00    -0.247 OA
HETATM    5  N2  UNL     1      13.109  10.186   7.818  1.00  0.00    -0.285 N 
ATOM      6  H2  UNL     1      13.447  11.044   7.382  1.00  0.00     0.172 HD
HETATM    7  C7  UNL     1      13.075  10.086   9.084  1.00  0.00     0.204 C 
HETATM    8  N3  UNL     1      12.607   8.901   9.721  1.00  0.00    -0.066 NA
HETATM    9  N4  UNL     1      13.500  11.146   9.928  1.00  0.00    -0.066 NA
ENDROOT
BRANCH   1  10
HETATM   10  C4  UNL     1      10.892   7.558   6.368  1.00  0.00     0.085 C 
HETATM   11  C5  UNL     1      12.116   6.833   5.828  1.00  0.00     0.032 C 
BRANCH  10  12
HETATM   12  C2  UNL     1       9.960   6.619   7.080  1.00  0.00    -0.000 C 
HETATM   13  C1  UNL     1      10.444   5.220   7.156  1.00  0.00     0.011 C 
HETATM   14  C3  UNL     1       9.613   7.142   8.447  1.00  0.00     0.011 C 
ENDBRANCH  10  12
ENDBRANCH   1  10
TORSDOF 2
ENDMDL
MODEL 2
REMARK VINA RESULT: -6.055540379      1.772      2.486
REMARK  2 active torsions:
REMARK  status: ('A' for Active; 'I' for Inactive)
REMARK    1  A    between atoms: C2_2  and  C4_4 
REMARK    2  A    between atoms: C4_4  and  N1_6 
REMARK       I    between atoms: N1_6  and  C6_8 
REMARK       I    between atoms: C6_8  and  N2_10 
ROOT
HETATM    1  N1  UNL     1      12.610   8.067   6.844  1.00  0.00    -0.338 N 
ATOM      2  H1  UNL     1      13.360   7.647   6.296  1.00  0.00     0.164 HD
HETATM    3  C6  UNL     1      12.877   9.130   7.729  1.00  0.00     0.322 C 
HETATM    4  O1  UNL     1      11.965   9.662   8.416  1.00  0.00    -0.247 OA
HETATM    5  N2  UNL     1      14.219   9.593   7.829  1.00  0.00    -0.285 N 
ATOM      6  H2  UNL     1      14.701   9.574   8.728  1.00  0.00     0.172 HD
HETATM    7  C7  UNL     1      14.814  10.031   6.796  1.00  0.00     0.204 C 
HETATM    8  N3  UNL     1      14.167  10.070   5.527  1.00  0.00    -0.066 NA
HETATM    9  N4  UNL     1      16.153  10.503   6.850  1.00  0.00    -0.066 NA
ENDROOT
BRANCH   1  10
HETATM   10  C4  UNL     1      11.270   7.588   6.728  1.00  0.00     0.085 C 
HETATM   11  C5  UNL     1      11.143   6.880   5.388  1.00  0.00     0.032 C 
BRANCH  10  12
HETATM   12  C2  UNL     1      10.829   6.709   7.864  1.00  0.00    -0.000 C 
HETATM   13  C1  UNL     1       9.630   7.198   8.584  1.00  0.00     0.011 C 
HETATM   14  C3  UNL     1      10.637   5.291   7.401  1.00  0.00     0.011 C 
ENDBRANCH  10  12
ENDBRANCH   1  10
TORSDOF 2
ENDMDL
MODEL 3
REMARK VINA RESULT: -5.968378337      1.960      4.802
REMARK  2 active torsions:
REMARK  status: ('A' for Active; 'I' for Inactive)
REMARK    1  A    between atoms: C2_2  and  C4_4 
REMARK    2  A    between atoms: C4_4  and  N1_6 
REMARK       I    between atoms: N1_6  and  C6_8 
REMARK       I    between atoms: C6_8  and  N2_10 
ROOT
HETATM    1  N1  UNL     1      12.622   8.323   8.319  1.00  0.00    -0.338 N 
ATOM      2  H1  UNL     1      12.786   7.478   8.866  1.00  0.00     0.164 HD
HETATM    3  C6  UNL     1      11.959   8.257   7.079  1.00  0.00     0.322 C 
HETATM    4  O1  UNL     1      11.747   9.288   6.387  1.00  0.00    -0.247 OA
HETATM    5  N2  UNL     1      11.528   6.980   6.620  1.00  0.00    -0.285 N 
ATOM      6  H2  UNL     1      11.868   6.616   5.730  1.00  0.00     0.172 HD
HETATM    7  C7  UNL     1      10.720   6.297   7.322  1.00  0.00     0.204 C 
HETATM    8  N3  UNL     1      10.230   6.780   8.569  1.00  0.00    -0.066 NA
HETATM    9  N4  UNL     1      10.264   5.018   6.903  1.00  0.00    -0.066 NA
ENDROOT
BRANCH   1  10
HETATM   10  C4  UNL     1      13.061   9.594   8.798  1.00  0.00     0.085 C 
HETATM   11  C5  UNL     1      12.890   9.607  10.309  1.00  0.00     0.032 C 
BRANCH  10  12
HETATM   12  C2  UNL     1      14.463   9.953   8.395  1.00  0.00    -0.000 C 
HETATM   13  C1  UNL     1      14.659  10.106   6.935  1.00  0.00     0.011 C 
HETATM   14  C3  UNL     1      14.934  11.178   9.131  1.00  0.00     0.011 C 
ENDBRANCH  10  12
ENDBRANCH   1  10
TORSDOF 2
ENDMDL
MODEL 4
REMARK VINA RESULT: -5.937235307      1.093      1.712
REMARK  2 active torsions:
REMARK  status: ('A' for Active; 'I' for Inactive)
REMARK    1  A    between atoms: C2_2  and  C4_4 
REMARK    2  A    between atoms: C4_4  and  N1_6 
REMARK       I    between atoms: N1_6  and  C6_8 
REMARK       I    between atoms: C6_8  and  N2_10 
ROOT
HETATM    1  N1  UNL     1      11.561   8.661   8.320  1.00  0.00    -0.338 N 
ATOM      2  H1  UNL     1      10.983   9.218   8.950  1.00  0.00     0.164 HD
HETATM    3  C6  UNL     1      12.851   9.094   7.957  1.00  0.00     0.322 C 
HETATM    4  O1  UNL     1      13.579   8.422   7.181  1.00  0.00    -0.247 OA
HETATM    5  N2  UNL     1      13.317  10.325   8.498  1.00  0.00    -0.285 N 
ATOM      6  H2  UNL     1      13.587  11.087   7.876  1.00  0.00     0.172 HD
HETATM    7  C7  UNL     1      13.397  10.472   9.757  1.00  0.00     0.204 C 
HETATM    8  N3  UNL     1      13.026   9.426  10.651  1.00  0.00    -0.066 NA
HETATM    9  N4  UNL     1      13.857  11.683  10.340  1.00  0.00    -0.066 NA
ENDROOT
BRANCH   1  10
HETATM   10  C4  UNL     1      11.074   7.428   7.789  1.00  0.00     0.085 C 
HETATM   11  C5  UNL     1       9.902   6.982   8.650  1.00  0.00     0.032 C 
BRANCH  10  12
HETATM   12  C2  UNL     1      10.704   7.486   6.335  1.00  0.00    -0.000 C 
HETATM   13  C1  UNL     1      11.590   6.696   5.447  1.00  0.00     0.011 C 
HETATM   14  C3  UNL     1       9.263   7.105   6.132  1.00  0.00     0.011 C 
ENDBRANCH  10  12
ENDBRANCH   1  10
TORSDOF 2
ENDMDL
MODEL 5
REMARK VINA RESULT: -5.702469513      8.599     10.170
REMARK  2 active torsions:
REMARK  status: ('A' for Active; 'I' for Inactive)
REMARK    1  A    between atoms: C2_2  and  C4_4 
REMARK    2  A    between atoms: C4_4  and  N1_6 
REMARK       I    between atoms: N1_6  and  C6_8 
REMARK       I    between atoms: C6_8  and  N2_10 
ROOT
HETATM    1  N1  UNL     1      15.857  14.026   1.143  1.00  0.00    -0.338 N 
ATOM      2  H1  UNL     1      15.651  13.927   0.149  1.00  0.00     0.164 HD
HETATM    3  C6  UNL     1      16.767  13.157   1.777  1.00  0.00     0.322 C 
HETATM    4  O1  UNL     1      17.036  13.262   3.003  1.00  0.00    -0.247 OA
HETATM    5  N2  UNL     1      17.384  12.146   0.987  1.00  0.00    -0.285 N 
ATOM      6  H2  UNL     1      17.267  11.163   1.233  1.00  0.00     0.172 HD
HETATM    7  C7  UNL     1      18.080  12.472  -0.024  1.00  0.00     0.204 C 
HETATM    8  N3  UNL     1      18.260  13.836  -0.392  1.00  0.00    -0.066 NA
HETATM    9  N4  UNL     1      18.713  11.497  -0.840  1.00  0.00    -0.066 NA
ENDROOT
BRANCH   1  10
HETATM   10  C4  UNL     1      15.228  15.047   1.917  1.00  0.00     0.085 C 
HETATM   11  C5  UNL     1      15.737  16.390   1.416  1.00  0.00     0.032 C 
BRANCH  10  12
HETATM   12  C2  UNL     1      13.727  14.987   1.914  1.00  0.00    -0.000 C 
HETATM   13  C1  UNL     1      13.119  14.978   0.564  1.00  0.00     0.011 C 
HETATM   14  C3  UNL     1      13.237  13.823   2.732  1.00  0.00     0.011 C 
ENDBRANCH  10  12
ENDBRANCH   1  10
TORSDOF 2
ENDMDL
