MODEL 1
REMARK VINA RESULT: -8.957647568      0.000      0.000
REMARK  5 active torsions:
REMARK  status: ('A' for Active; 'I' for Inactive)
REMARK    1  A    between atoms: C4_7  and  C5_8 
REMARK    2  A    between atoms: C5_8  and  C6_9 
REMARK    3  A    between atoms: N2_12  and  O2_13 
REMARK    4  A    between atoms: C12_18  and  C13_19 
REMARK    5  A    between atoms: C16_22  and  O3_23 
ROOT
HETATM    1  C1  UNL     1      -8.594  72.215   3.029  1.00  0.00     0.044 C 
HETATM    2  C2  UNL     1      -9.715  71.728   3.504  1.00  0.00     0.036 A 
HETATM    3  N1  UNL     1      -9.975  71.792   4.845  1.00  0.00    -0.323 N 
ATOM      4  H1  UNL     1      -9.280  72.241   5.442  1.00  0.00     0.169 HD
HETATM    5  C3  UNL     1     -11.073  71.309   5.428  1.00  0.00     0.256 A 
HETATM    6  O1  UNL     1     -11.233  71.412   6.689  1.00  0.00    -0.267 OA
HETATM    7  C4  UNL     1     -12.034  70.697   4.664  1.00  0.00     0.034 A 
HETATM    8  C11 UNL     1     -11.819  70.610   3.308  1.00  0.00     0.031 A 
HETATM    9  C12 UNL     1     -10.651  71.127   2.705  1.00  0.00     0.001 A 
ENDROOT
BRANCH   7  10
HETATM   10  C5  UNL     1     -13.110  70.221   5.220  1.00  0.00     0.028 C 
BRANCH  10  11
HETATM   11  C6  UNL     1     -13.412  68.822   5.395  1.00  0.00    -0.033 A 
HETATM   12  C7  UNL     1     -14.721  68.403   5.415  1.00  0.00     0.031 A 
HETATM   13  C8  UNL     1     -15.053  67.055   5.582  1.00  0.00     0.123 A 
HETATM   14  N2  UNL     1     -14.085  66.136   5.726  1.00  0.00    -0.247 N 
HETATM   15  C9  UNL     1     -12.813  66.540   5.707  1.00  0.00     0.123 A 
HETATM   16  C10 UNL     1     -12.423  67.874   5.544  1.00  0.00     0.031 A 
BRANCH  14  17
HETATM   17  O2  UNL     1     -14.392  64.788   5.895  1.00  0.00    -0.284 OA
ATOM     18  H2  UNL     1     -14.889  64.312   5.239  1.00  0.00     0.245 HD
ENDBRANCH  14  17
ENDBRANCH  10  11
ENDBRANCH   7  10
BRANCH   9  19
HETATM   19  C13 UNL     1     -10.505  71.040   1.259  1.00  0.00    -0.024 A 
HETATM   20  C14 UNL     1     -10.785  69.862   0.603  1.00  0.00     0.015 A 
HETATM   21  C15 UNL     1     -10.649  69.771  -0.767  1.00  0.00     0.037 A 
HETATM   22  C16 UNL     1     -10.229  70.867  -1.491  1.00  0.00     0.065 A 
HETATM   23  C17 UNL     1      -9.945  72.052  -0.847  1.00  0.00     0.037 A 
HETATM   24  C18 UNL     1     -10.078  72.147   0.516  1.00  0.00     0.015 A 
BRANCH  22  25
HETATM   25  O3  UNL     1     -10.095  70.754  -2.888  1.00  0.00    -0.361 OA
ATOM     26  H3  UNL     1     -10.132  71.539  -3.420  1.00  0.00     0.217 HD
ENDBRANCH  22  25
ENDBRANCH   9  19
TORSDOF 5
ENDMDL
MODEL 2
REMARK VINA RESULT: -8.805732569      3.519      7.464
REMARK  5 active torsions:
REMARK  status: ('A' for Active; 'I' for Inactive)
REMARK    1  A    between atoms: C4_7  and  C5_8 
REMARK    2  A    between atoms: C5_8  and  C6_9 
REMARK    3  A    between atoms: N2_12  and  O2_13 
REMARK    4  A    between atoms: C12_18  and  C13_19 
REMARK    5  A    between atoms: C16_22  and  O3_23 
ROOT
HETATM    1  C1  UNL     1     -15.057  67.008   6.224  1.00  0.00     0.044 C 
HETATM    2  C2  UNL     1     -14.101  67.779   5.766  1.00  0.00     0.036 A 
HETATM    3  N1  UNL     1     -12.878  67.247   5.465  1.00  0.00    -0.323 N 
ATOM      4  H1  UNL     1     -12.752  66.243   5.595  1.00  0.00     0.169 HD
HETATM    5  C3  UNL     1     -11.836  67.947   5.014  1.00  0.00     0.256 A 
HETATM    6  O1  UNL     1     -10.729  67.367   4.758  1.00  0.00    -0.267 OA
HETATM    7  C4  UNL     1     -11.959  69.301   4.824  1.00  0.00     0.034 A 
HETATM    8  C11 UNL     1     -13.172  69.883   5.111  1.00  0.00     0.031 A 
HETATM    9  C12 UNL     1     -14.267  69.127   5.587  1.00  0.00     0.001 A 
ENDROOT
BRANCH   7  10
HETATM   10  C5  UNL     1     -10.951  69.996   4.384  1.00  0.00     0.028 C 
BRANCH  10  11
HETATM   11  C6  UNL     1     -10.118  70.859   5.185  1.00  0.00    -0.033 A 
HETATM   12  C7  UNL     1      -9.148  70.316   5.993  1.00  0.00     0.031 A 
HETATM   13  C8  UNL     1      -8.321  71.121   6.783  1.00  0.00     0.123 A 
HETATM   14  N2  UNL     1      -8.464  72.455   6.764  1.00  0.00    -0.247 N 
HETATM   15  C9  UNL     1      -9.406  72.985   5.980  1.00  0.00     0.123 A 
HETATM   16  C10 UNL     1     -10.260  72.229   5.170  1.00  0.00     0.031 A 
BRANCH  14  17
HETATM   17  O2  UNL     1      -7.653  73.277   7.543  1.00  0.00    -0.284 OA
ATOM     18  H2  UNL     1      -7.825  74.209   7.617  1.00  0.00     0.245 HD
ENDBRANCH  14  17
ENDBRANCH  10  11
ENDBRANCH   7  10
BRANCH   9  19
HETATM   19  C13 UNL     1     -15.536  69.798   5.831  1.00  0.00    -0.024 A 
HETATM   20  C14 UNL     1     -15.719  70.540   6.976  1.00  0.00     0.015 A 
HETATM   21  C15 UNL     1     -16.918  71.179   7.215  1.00  0.00     0.037 A 
HETATM   22  C16 UNL     1     -17.947  71.076   6.301  1.00  0.00     0.065 A 
HETATM   23  C17 UNL     1     -17.776  70.336   5.152  1.00  0.00     0.037 A 
HETATM   24  C18 UNL     1     -16.585  69.698   4.910  1.00  0.00     0.015 A 
BRANCH  22  25
HETATM   25  O3  UNL     1     -19.163  71.735   6.564  1.00  0.00    -0.361 OA
ATOM     26  H3  UNL     1     -19.952  71.438   6.126  1.00  0.00     0.217 HD
ENDBRANCH  22  25
ENDBRANCH   9  19
TORSDOF 5
ENDMDL
MODEL 3
REMARK VINA RESULT: -8.781103560      1.133      1.246
REMARK  5 active torsions:
REMARK  status: ('A' for Active; 'I' for Inactive)
REMARK    1  A    between atoms: C4_7  and  C5_8 
REMARK    2  A    between atoms: C5_8  and  C6_9 
REMARK    3  A    between atoms: N2_12  and  O2_13 
REMARK    4  A    between atoms: C12_18  and  C13_19 
REMARK    5  A    between atoms: C16_22  and  O3_23 
ROOT
HETATM    1  C1  UNL     1      -9.280  72.265   1.573  1.00  0.00     0.044 C 
HETATM    2  C2  UNL     1     -10.104  71.758   2.457  1.00  0.00     0.036 A 
HETATM    3  N1  UNL     1     -10.062  72.184   3.756  1.00  0.00    -0.323 N 
ATOM      4  H1  UNL     1      -9.387  72.910   3.995  1.00  0.00     0.169 HD
HETATM    5  C3  UNL     1     -10.841  71.717   4.732  1.00  0.00     0.256 A 
HETATM    6  O1  UNL     1     -10.734  72.173   5.918  1.00  0.00    -0.267 OA
HETATM    7  C4  UNL     1     -11.764  70.739   4.456  1.00  0.00     0.034 A 
HETATM    8  C11 UNL     1     -11.845  70.279   3.162  1.00  0.00     0.031 A 
HETATM    9  C12 UNL     1     -11.013  70.784   2.138  1.00  0.00     0.001 A 
ENDROOT
BRANCH   7  10
HETATM   10  C5  UNL     1     -12.530  70.275   5.399  1.00  0.00     0.028 C 
BRANCH  10  11
HETATM   11  C6  UNL     1     -13.022  68.922   5.488  1.00  0.00    -0.033 A 
HETATM   12  C7  UNL     1     -14.374  68.682   5.434  1.00  0.00     0.031 A 
HETATM   13  C8  UNL     1     -14.889  67.385   5.516  1.00  0.00     0.123 A 
HETATM   14  N2  UNL     1     -14.058  66.338   5.650  1.00  0.00    -0.247 N 
HETATM   15  C9  UNL     1     -12.745  66.569   5.702  1.00  0.00     0.123 A 
HETATM   16  C10 UNL     1     -12.175  67.845   5.625  1.00  0.00     0.031 A 
BRANCH  14  17
HETATM   17  O2  UNL     1     -14.548  65.037   5.734  1.00  0.00    -0.284 OA
ATOM     18  H2  UNL     1     -15.462  64.844   5.562  1.00  0.00     0.245 HD
ENDBRANCH  14  17
ENDBRANCH  10  11
ENDBRANCH   7  10
BRANCH   9  19
HETATM   19  C13 UNL     1     -11.180  70.284   0.781  1.00  0.00    -0.024 A 
HETATM   20  C14 UNL     1     -10.545  69.128   0.385  1.00  0.00     0.015 A 
HETATM   21  C15 UNL     1     -10.698  68.646  -0.898  1.00  0.00     0.037 A 
HETATM   22  C16 UNL     1     -11.493  69.326  -1.798  1.00  0.00     0.065 A 
HETATM   23  C17 UNL     1     -12.133  70.484  -1.415  1.00  0.00     0.037 A 
HETATM   24  C18 UNL     1     -11.984  70.967  -0.139  1.00  0.00     0.015 A 
BRANCH  22  25
HETATM   25  O3  UNL     1     -11.635  68.820  -3.104  1.00  0.00    -0.361 OA
ATOM     26  H3  UNL     1     -12.358  69.121  -3.640  1.00  0.00     0.217 HD
ENDBRANCH  22  25
ENDBRANCH   9  19
TORSDOF 5
ENDMDL
MODEL 4
REMARK VINA RESULT: -8.697561334      3.525      7.445
REMARK  5 active torsions:
REMARK  status: ('A' for Active; 'I' for Inactive)
REMARK    1  A    between atoms: C4_7  and  C5_8 
REMARK    2  A    between atoms: C5_8  and  C6_9 
REMARK    3  A    between atoms: N2_12  and  O2_13 
REMARK    4  A    between atoms: C12_18  and  C13_19 
REMARK    5  A    between atoms: C16_22  and  O3_23 
ROOT
HETATM    1  C1  UNL     1     -15.113  67.091   6.328  1.00  0.00     0.044 C 
HETATM    2  C2  UNL     1     -14.153  67.841   5.843  1.00  0.00     0.036 A 
HETATM    3  N1  UNL     1     -12.936  67.290   5.549  1.00  0.00    -0.323 N 
ATOM      4  H1  UNL     1     -12.819  66.289   5.705  1.00  0.00     0.169 HD
HETATM    5  C3  UNL     1     -11.892  67.969   5.073  1.00  0.00     0.256 A 
HETATM    6  O1  UNL     1     -10.792  67.373   4.825  1.00  0.00    -0.267 OA
HETATM    7  C4  UNL     1     -12.005  69.318   4.848  1.00  0.00     0.034 A 
HETATM    8  C11 UNL     1     -13.211  69.919   5.127  1.00  0.00     0.031 A 
HETATM    9  C12 UNL     1     -14.309  69.185   5.630  1.00  0.00     0.001 A 
ENDROOT
BRANCH   7  10
HETATM   10  C5  UNL     1     -10.993  69.993   4.384  1.00  0.00     0.028 C 
BRANCH  10  11
HETATM   11  C6  UNL     1     -10.132  70.849   5.161  1.00  0.00    -0.033 A 
HETATM   12  C7  UNL     1      -9.132  70.299   5.927  1.00  0.00     0.031 A 
HETATM   13  C8  UNL     1      -8.277  71.097   6.694  1.00  0.00     0.123 A 
HETATM   14  N2  UNL     1      -8.422  72.432   6.693  1.00  0.00    -0.247 N 
HETATM   15  C9  UNL     1      -9.392  72.969   5.950  1.00  0.00     0.123 A 
HETATM   16  C10 UNL     1     -10.275  72.219   5.165  1.00  0.00     0.031 A 
BRANCH  14  17
HETATM   17  O2  UNL     1      -7.583  73.247   7.449  1.00  0.00    -0.284 OA
ATOM     18  H2  UNL     1      -7.886  74.079   7.793  1.00  0.00     0.245 HD
ENDBRANCH  14  17
ENDBRANCH  10  11
ENDBRANCH   7  10
BRANCH   9  19
HETATM   19  C13 UNL     1     -15.570  69.874   5.864  1.00  0.00    -0.024 A 
HETATM   20  C14 UNL     1     -16.624  69.705   4.995  1.00  0.00     0.015 A 
HETATM   21  C15 UNL     1     -17.823  70.353   5.209  1.00  0.00     0.037 A 
HETATM   22  C16 UNL     1     -17.971  71.180   6.304  1.00  0.00     0.065 A 
HETATM   23  C17 UNL     1     -16.924  71.358   7.182  1.00  0.00     0.037 A 
HETATM   24  C18 UNL     1     -15.729  70.715   6.972  1.00  0.00     0.015 A 
BRANCH  22  25
HETATM   25  O3  UNL     1     -19.202  71.834   6.505  1.00  0.00    -0.361 OA
ATOM     26  H3  UNL     1     -19.713  71.628   7.279  1.00  0.00     0.217 HD
ENDBRANCH  22  25
ENDBRANCH   9  19
TORSDOF 5
ENDMDL
MODEL 5
REMARK VINA RESULT: -8.412568585      3.362      8.292
REMARK  5 active torsions:
REMARK  status: ('A' for Active; 'I' for Inactive)
REMARK    1  A    between atoms: C4_7  and  C5_8 
REMARK    2  A    between atoms: C5_8  and  C6_9 
REMARK    3  A    between atoms: N2_12  and  O2_13 
REMARK    4  A    between atoms: C12_18  and  C13_19 
REMARK    5  A    between atoms: C16_22  and  O3_23 
ROOT
HETATM    1  C1  UNL     1     -12.419  70.406   3.745  1.00  0.00     0.044 C 
HETATM    2  C2  UNL     1     -11.639  70.807   2.771  1.00  0.00     0.036 A 
HETATM    3  N1  UNL     1     -12.088  70.781   1.479  1.00  0.00    -0.323 N 
ATOM      4  H1  UNL     1     -13.042  70.460   1.316  1.00  0.00     0.169 HD
HETATM    5  C3  UNL     1     -11.367  71.147   0.419  1.00  0.00     0.256 A 
HETATM    6  O1  UNL     1     -11.868  71.091  -0.753  1.00  0.00    -0.267 OA
HETATM    7  C4  UNL     1     -10.079  71.586   0.592  1.00  0.00     0.034 A 
HETATM    8  C11 UNL     1      -9.581  71.631   1.874  1.00  0.00     0.031 A 
HETATM    9  C12 UNL     1     -10.358  71.242   2.988  1.00  0.00     0.001 A 
ENDROOT
BRANCH   7  10
HETATM   10  C5  UNL     1      -9.365  71.945  -0.435  1.00  0.00     0.028 C 
BRANCH  10  11
HETATM   11  C6  UNL     1      -8.904  73.285  -0.706  1.00  0.00    -0.033 A 
HETATM   12  C7  UNL     1      -9.644  74.111  -1.518  1.00  0.00     0.031 A 
HETATM   13  C8  UNL     1      -9.230  75.416  -1.803  1.00  0.00     0.123 A 
HETATM   14  N2  UNL     1      -8.086  75.888  -1.282  1.00  0.00    -0.247 N 
HETATM   15  C9  UNL     1      -7.366  75.087  -0.493  1.00  0.00     0.123 A 
HETATM   16  C10 UNL     1      -7.732  73.775  -0.174  1.00  0.00     0.031 A 
BRANCH  14  17
HETATM   17  O2  UNL     1      -7.653  77.183  -1.553  1.00  0.00    -0.284 OA
ATOM     18  H2  UNL     1      -7.910  77.913  -1.001  1.00  0.00     0.245 HD
ENDBRANCH  14  17
ENDBRANCH  10  11
ENDBRANCH   7  10
BRANCH   9  19
HETATM   19  C13 UNL     1      -9.785  71.354   4.322  1.00  0.00    -0.024 A 
HETATM   20  C14 UNL     1      -9.851  72.547   5.006  1.00  0.00     0.015 A 
HETATM   21  C15 UNL     1      -9.311  72.662   6.270  1.00  0.00     0.037 A 
HETATM   22  C16 UNL     1      -8.698  71.575   6.859  1.00  0.00     0.065 A 
HETATM   23  C17 UNL     1      -8.626  70.376   6.184  1.00  0.00     0.037 A 
HETATM   24  C18 UNL     1      -9.161  70.256   4.926  1.00  0.00     0.015 A 
BRANCH  22  25
HETATM   25  O3  UNL     1      -8.153  71.713   8.149  1.00  0.00    -0.361 OA
ATOM     26  H3  UNL     1      -7.217  71.601   8.269  1.00  0.00     0.217 HD
ENDBRANCH  22  25
ENDBRANCH   9  19
TORSDOF 5
ENDMDL
