MODEL 1
REMARK VINA RESULT: -9.344094806      0.000      0.000
REMARK  4 active torsions:
REMARK  status: ('A' for Active; 'I' for Inactive)
REMARK    1  A    between atoms: C3_3  and  C4_4 
REMARK    2  A    between atoms: C4_4  and  C5_5 
REMARK    3  A    between atoms: C9_9  and  C10_10 
REMARK    4  A    between atoms: C10_10  and  C11_11 
ROOT
HETATM    1  C1  UNL     1      -4.272  72.727   3.787  1.00  0.00     0.012 C 
HETATM    2  C2  UNL     1      -5.022  72.042   4.422  1.00  0.00    -0.114 C 
HETATM    3  C3  UNL     1      -5.987  71.180   5.203  1.00  0.00     0.121 C 
ENDROOT
BRANCH   3   4
HETATM    4  C4  UNL     1      -7.172  71.982   5.483  1.00  0.00     0.003 C 
BRANCH   4   5
HETATM    5  C5  UNL     1      -8.440  71.771   5.295  1.00  0.00     0.035 A 
HETATM    6  C6  UNL     1      -9.122  71.985   4.152  1.00  0.00    -0.044 A 
HETATM    7  C7  UNL     1      -8.473  72.507   2.926  1.00  0.00     0.049 C 
HETATM    8  C8  UNL     1     -10.515  71.706   4.098  1.00  0.00     0.037 A 
HETATM    9  C9  UNL     1     -11.196  71.223   5.180  1.00  0.00     0.036 A 
HETATM   10  N2  UNL     1     -10.494  71.019   6.303  1.00  0.00    -0.323 N 
HETATM   11  C18 UNL     1      -9.185  71.275   6.372  1.00  0.00     0.256 A 
ATOM     12  H2  UNL     1     -10.973  70.659   7.128  1.00  0.00     0.169 HD
HETATM   13  O3  UNL     1      -8.588  71.063   7.451  1.00  0.00    -0.267 OA
BRANCH   9  14
HETATM   14  C10 UNL     1     -12.485  70.963   5.136  1.00  0.00     0.041 C 
BRANCH  14  15
HETATM   15  C11 UNL     1     -13.022  69.620   5.400  1.00  0.00    -0.031 A 
HETATM   16  C12 UNL     1     -14.356  69.436   5.693  1.00  0.00     0.014 A 
HETATM   17  C13 UNL     1     -14.884  68.187   5.944  1.00  0.00     0.033 A 
HETATM   18  C14 UNL     1     -14.094  67.058   5.911  1.00  0.00     0.071 A 
HETATM   19  N1  UNL     1     -14.336  65.734   6.113  1.00  0.00    -0.300 N 
HETATM   20  C16 UNL     1     -12.756  67.225   5.619  1.00  0.00     0.108 A 
HETATM   21  C15 UNL     1     -13.154  65.119   5.941  1.00  0.00     0.370 A 
ATOM     22  H1  UNL     1     -15.228  65.300   6.346  1.00  0.00     0.171 HD
HETATM   23  O1  UNL     1     -12.988  63.860   6.051  1.00  0.00    -0.238 OA
HETATM   24  O2  UNL     1     -12.241  66.016   5.651  1.00  0.00    -0.259 OA
HETATM   25  C17 UNL     1     -12.232  68.489   5.367  1.00  0.00     0.051 A 
ENDBRANCH  14  15
ENDBRANCH   9  14
ENDBRANCH   4   5
ENDBRANCH   3   4
TORSDOF 4
ENDMDL
MODEL 2
REMARK VINA RESULT: -9.142503903      1.275      1.753
REMARK  4 active torsions:
REMARK  status: ('A' for Active; 'I' for Inactive)
REMARK    1  A    between atoms: C3_3  and  C4_4 
REMARK    2  A    between atoms: C4_4  and  C5_5 
REMARK    3  A    between atoms: C9_9  and  C10_10 
REMARK    4  A    between atoms: C10_10  and  C11_11 
ROOT
HETATM    1  C1  UNL     1      -4.084  72.806   3.703  1.00  0.00     0.012 C 
HETATM    2  C2  UNL     1      -4.940  72.234   4.314  1.00  0.00    -0.114 C 
HETATM    3  C3  UNL     1      -6.036  71.510   5.062  1.00  0.00     0.121 C 
ENDROOT
BRANCH   3   4
HETATM    4  C4  UNL     1      -7.224  72.355   5.036  1.00  0.00     0.003 C 
BRANCH   4   5
HETATM    5  C5  UNL     1      -8.494  72.086   5.073  1.00  0.00     0.035 A 
HETATM    6  C6  UNL     1      -9.212  71.780   6.173  1.00  0.00    -0.044 A 
HETATM    7  C7  UNL     1      -8.606  71.715   7.524  1.00  0.00     0.049 C 
HETATM    8  C8  UNL     1     -10.602  71.506   6.055  1.00  0.00     0.037 A 
HETATM    9  C9  UNL     1     -11.245  71.542   4.850  1.00  0.00     0.036 A 
HETATM   10  N2  UNL     1     -10.508  71.849   3.773  1.00  0.00    -0.323 N 
HETATM   11  C18 UNL     1      -9.201  72.109   3.864  1.00  0.00     0.256 A 
ATOM     12  H2  UNL     1     -10.958  71.884   2.859  1.00  0.00     0.169 HD
HETATM   13  O3  UNL     1      -8.571  72.390   2.821  1.00  0.00    -0.267 OA
BRANCH   9  14
HETATM   14  C10 UNL     1     -12.531  71.289   4.735  1.00  0.00     0.041 C 
BRANCH  14  15
HETATM   15  C11 UNL     1     -13.096  69.963   5.025  1.00  0.00    -0.031 A 
HETATM   16  C12 UNL     1     -14.455  69.791   5.181  1.00  0.00     0.014 A 
HETATM   17  C13 UNL     1     -15.009  68.558   5.453  1.00  0.00     0.033 A 
HETATM   18  C14 UNL     1     -14.223  67.434   5.581  1.00  0.00     0.071 A 
HETATM   19  N1  UNL     1     -14.488  66.125   5.841  1.00  0.00    -0.300 N 
HETATM   20  C16 UNL     1     -12.861  67.588   5.428  1.00  0.00     0.108 A 
HETATM   21  C15 UNL     1     -13.295  65.505   5.841  1.00  0.00     0.370 A 
ATOM     22  H1  UNL     1     -15.402  65.701   6.002  1.00  0.00     0.171 HD
HETATM   23  O1  UNL     1     -13.145  64.258   6.051  1.00  0.00    -0.238 OA
HETATM   24  O2  UNL     1     -12.355  66.387   5.596  1.00  0.00    -0.259 OA
HETATM   25  C17 UNL     1     -12.309  68.837   5.154  1.00  0.00     0.051 A 
ENDBRANCH  14  15
ENDBRANCH   9  14
ENDBRANCH   4   5
ENDBRANCH   3   4
TORSDOF 4
ENDMDL
MODEL 3
REMARK VINA RESULT: -8.973426623      1.405      1.867
REMARK  4 active torsions:
REMARK  status: ('A' for Active; 'I' for Inactive)
REMARK    1  A    between atoms: C3_3  and  C4_4 
REMARK    2  A    between atoms: C4_4  and  C5_5 
REMARK    3  A    between atoms: C9_9  and  C10_10 
REMARK    4  A    between atoms: C10_10  and  C11_11 
ROOT
HETATM    1  C1  UNL     1      -7.207  70.865   5.808  1.00  0.00     0.012 C 
HETATM    2  C2  UNL     1      -7.291  71.469   4.777  1.00  0.00    -0.114 C 
HETATM    3  C3  UNL     1      -7.402  72.253   3.490  1.00  0.00     0.121 C 
ENDROOT
BRANCH   3   4
HETATM    4  C4  UNL     1      -8.763  72.770   3.401  1.00  0.00     0.003 C 
BRANCH   4   5
HETATM    5  C5  UNL     1      -9.921  72.245   3.667  1.00  0.00     0.035 A 
HETATM    6  C6  UNL     1     -10.635  71.439   2.855  1.00  0.00    -0.044 A 
HETATM    7  C7  UNL     1     -10.158  71.043   1.510  1.00  0.00     0.049 C 
HETATM    8  C8  UNL     1     -11.894  70.940   3.287  1.00  0.00     0.037 A 
HETATM    9  C9  UNL     1     -12.414  71.253   4.511  1.00  0.00     0.036 A 
HETATM   10  N2  UNL     1     -11.684  72.056   5.297  1.00  0.00    -0.323 N 
HETATM   11  C18 UNL     1     -10.499  72.535   4.910  1.00  0.00     0.256 A 
ATOM     12  H2  UNL     1     -12.043  72.309   6.217  1.00  0.00     0.169 HD
HETATM   13  O3  UNL     1      -9.867  73.279   5.691  1.00  0.00    -0.267 OA
BRANCH   9  14
HETATM   14  C10 UNL     1     -13.579  70.795   4.915  1.00  0.00     0.041 C 
BRANCH  14  15
HETATM   15  C11 UNL     1     -13.802  69.370   5.202  1.00  0.00    -0.031 A 
HETATM   16  C12 UNL     1     -15.078  68.868   5.351  1.00  0.00     0.014 A 
HETATM   17  C13 UNL     1     -15.313  67.537   5.620  1.00  0.00     0.033 A 
HETATM   18  C14 UNL     1     -14.275  66.640   5.752  1.00  0.00     0.071 A 
HETATM   19  N1  UNL     1     -14.210  65.306   6.011  1.00  0.00    -0.300 N 
HETATM   20  C16 UNL     1     -12.991  67.126   5.606  1.00  0.00     0.108 A 
HETATM   21  C15 UNL     1     -12.902  65.000   6.017  1.00  0.00     0.370 A 
ATOM     22  H1  UNL     1     -14.993  64.671   6.167  1.00  0.00     0.171 HD
HETATM   23  O1  UNL     1     -12.450  63.827   6.228  1.00  0.00    -0.238 OA
HETATM   24  O2  UNL     1     -12.206  66.086   5.777  1.00  0.00    -0.259 OA
HETATM   25  C17 UNL     1     -12.763  68.472   5.335  1.00  0.00     0.051 A 
ENDBRANCH  14  15
ENDBRANCH   9  14
ENDBRANCH   4   5
ENDBRANCH   3   4
TORSDOF 4
ENDMDL
MODEL 4
REMARK VINA RESULT: -8.888102320      4.077      5.362
REMARK  4 active torsions:
REMARK  status: ('A' for Active; 'I' for Inactive)
REMARK    1  A    between atoms: C3_3  and  C4_4 
REMARK    2  A    between atoms: C4_4  and  C5_5 
REMARK    3  A    between atoms: C9_9  and  C10_10 
REMARK    4  A    between atoms: C10_10  and  C11_11 
ROOT
HETATM    1  C1  UNL     1      -8.158  70.700   7.047  1.00  0.00     0.012 C 
HETATM    2  C2  UNL     1      -8.160  70.347   5.903  1.00  0.00    -0.114 C 
HETATM    3  C3  UNL     1      -8.171  69.927   4.451  1.00  0.00     0.121 C 
ENDROOT
BRANCH   3   4
HETATM    4  C4  UNL     1      -9.550  69.993   3.980  1.00  0.00     0.003 C 
BRANCH   4   5
HETATM    5  C5  UNL     1     -10.692  69.912   4.593  1.00  0.00     0.035 A 
HETATM    6  C6  UNL     1     -11.431  70.947   5.042  1.00  0.00    -0.044 A 
HETATM    7  C7  UNL     1     -11.005  72.357   4.877  1.00  0.00     0.049 C 
HETATM    8  C8  UNL     1     -12.667  70.700   5.699  1.00  0.00     0.037 A 
HETATM    9  C9  UNL     1     -13.139  69.433   5.895  1.00  0.00     0.036 A 
HETATM   10  N2  UNL     1     -12.385  68.423   5.440  1.00  0.00    -0.323 N 
HETATM   11  C18 UNL     1     -11.221  68.635   4.820  1.00  0.00     0.256 A 
ATOM     12  H2  UNL     1     -12.709  67.465   5.570  1.00  0.00     0.169 HD
HETATM   13  O3  UNL     1     -10.566  67.649   4.418  1.00  0.00    -0.267 OA
BRANCH   9  14
HETATM   14  C10 UNL     1     -14.282  69.198   6.503  1.00  0.00     0.041 C 
BRANCH  14  15
HETATM   15  C11 UNL     1     -15.507  69.947   6.182  1.00  0.00    -0.031 A 
HETATM   16  C12 UNL     1     -16.151  69.766   4.977  1.00  0.00     0.014 A 
HETATM   17  C13 UNL     1     -17.300  70.455   4.652  1.00  0.00     0.033 A 
HETATM   18  C14 UNL     1     -17.860  71.362   5.526  1.00  0.00     0.071 A 
HETATM   19  N1  UNL     1     -18.958  72.164   5.474  1.00  0.00    -0.300 N 
HETATM   20  C16 UNL     1     -17.228  71.555   6.737  1.00  0.00     0.108 A 
HETATM   21  C15 UNL     1     -18.980  72.827   6.643  1.00  0.00     0.370 A 
ATOM     22  H1  UNL     1     -19.626  72.245   4.707  1.00  0.00     0.171 HD
HETATM   23  O1  UNL     1     -19.874  73.679   6.958  1.00  0.00    -0.238 OA
HETATM   24  O2  UNL     1     -17.952  72.452   7.367  1.00  0.00    -0.259 OA
HETATM   25  C17 UNL     1     -16.067  70.855   7.056  1.00  0.00     0.051 A 
ENDBRANCH  14  15
ENDBRANCH   9  14
ENDBRANCH   4   5
ENDBRANCH   3   4
TORSDOF 4
ENDMDL
MODEL 5
REMARK VINA RESULT: -8.873077076      2.183      2.609
REMARK  4 active torsions:
REMARK  status: ('A' for Active; 'I' for Inactive)
REMARK    1  A    between atoms: C3_3  and  C4_4 
REMARK    2  A    between atoms: C4_4  and  C5_5 
REMARK    3  A    between atoms: C9_9  and  C10_10 
REMARK    4  A    between atoms: C10_10  and  C11_11 
ROOT
HETATM    1  C1  UNL     1      -5.982  73.721   1.453  1.00  0.00     0.012 C 
HETATM    2  C2  UNL     1      -7.164  73.543   1.520  1.00  0.00    -0.114 C 
HETATM    3  C3  UNL     1      -8.656  73.332   1.629  1.00  0.00     0.121 C 
ENDROOT
BRANCH   3   4
HETATM    4  C4  UNL     1      -8.903  72.499   2.801  1.00  0.00     0.003 C 
BRANCH   4   5
HETATM    5  C5  UNL     1      -9.993  72.120   3.395  1.00  0.00     0.035 A 
HETATM    6  C6  UNL     1     -10.299  72.309   4.695  1.00  0.00    -0.044 A 
HETATM    7  C7  UNL     1      -9.385  73.003   5.633  1.00  0.00     0.049 C 
HETATM    8  C8  UNL     1     -11.538  71.835   5.205  1.00  0.00     0.037 A 
HETATM    9  C9  UNL     1     -12.442  71.184   4.414  1.00  0.00     0.036 A 
HETATM   10  N2  UNL     1     -12.113  71.009   3.126  1.00  0.00    -0.323 N 
HETATM   11  C18 UNL     1     -10.954  71.448   2.629  1.00  0.00     0.256 A 
ATOM     12  H2  UNL     1     -12.766  70.528   2.509  1.00  0.00     0.169 HD
HETATM   13  O3  UNL     1     -10.708  71.254   1.418  1.00  0.00    -0.267 OA
BRANCH   9  14
HETATM   14  C10 UNL     1     -13.590  70.742   4.881  1.00  0.00     0.041 C 
BRANCH  14  15
HETATM   15  C11 UNL     1     -13.820  69.319   5.173  1.00  0.00    -0.031 A 
HETATM   16  C12 UNL     1     -15.099  68.820   5.300  1.00  0.00     0.014 A 
HETATM   17  C13 UNL     1     -15.340  67.490   5.574  1.00  0.00     0.033 A 
HETATM   18  C14 UNL     1     -14.306  66.594   5.733  1.00  0.00     0.071 A 
HETATM   19  N1  UNL     1     -14.248  65.262   6.001  1.00  0.00    -0.300 N 
HETATM   20  C16 UNL     1     -13.019  67.077   5.608  1.00  0.00     0.108 A 
HETATM   21  C15 UNL     1     -12.940  64.954   6.035  1.00  0.00     0.370 A 
ATOM     22  H1  UNL     1     -15.034  64.628   6.147  1.00  0.00     0.171 HD
HETATM   23  O1  UNL     1     -12.494  63.782   6.263  1.00  0.00    -0.238 OA
HETATM   24  O2  UNL     1     -12.238  66.037   5.802  1.00  0.00    -0.259 OA
HETATM   25  C17 UNL     1     -12.784  68.421   5.333  1.00  0.00     0.051 A 
ENDBRANCH  14  15
ENDBRANCH   9  14
ENDBRANCH   4   5
ENDBRANCH   3   4
TORSDOF 4
ENDMDL
