MODEL 1
REMARK VINA RESULT: -10.274422449      0.000      0.000
REMARK  4 active torsions:
REMARK  status: ('A' for Active; 'I' for Inactive)
REMARK    1  A    between atoms: C1_1  and  C24_26 
REMARK    2  A    between atoms: C2_2  and  C3_3 
REMARK    3  A    between atoms: C5_5  and  C6_6 
REMARK    4  A    between atoms: C7_7  and  C8_8 
ROOT
HETATM    1  C3  UNL     1      20.803 -10.163   4.229  1.00  0.00     0.033 A 
HETATM    2  C4  UNL     1      21.450 -10.364   5.439  1.00  0.00     0.042 A 
HETATM    3  C5  UNL     1      21.037 -11.276   6.380  1.00  0.00    -0.021 A 
HETATM    4  C18 UNL     1      19.921 -12.025   6.100  1.00  0.00     0.001 A 
HETATM    5  C19 UNL     1      19.392 -12.975   6.946  1.00  0.00     0.014 A 
HETATM    6  C20 UNL     1      18.255 -13.724   6.640  1.00  0.00     0.001 A 
HETATM    7  C21 UNL     1      17.620 -13.519   5.442  1.00  0.00     0.002 A 
HETATM    8  C22 UNL     1      18.135 -12.578   4.590  1.00  0.00     0.030 A 
HETATM    9  C23 UNL     1      19.256 -11.830   4.877  1.00  0.00     0.043 A 
HETATM   10  N1  UNL     1      19.721 -10.913   3.997  1.00  0.00    -0.356 N 
ATOM     11  H1  UNL     1      19.222 -10.788   3.116  1.00  0.00     0.166 HD
ENDROOT
BRANCH   3  12
HETATM   12  C6  UNL     1      21.739 -11.478   7.665  1.00  0.00     0.013 C 
HETATM   13  C7  UNL     1      22.344 -12.596   7.988  1.00  0.00     0.013 C 
BRANCH  13  14
HETATM   14  C8  UNL     1      23.024 -12.776   9.247  1.00  0.00    -0.025 A 
HETATM   15  C9  UNL     1      24.269 -12.255   9.529  1.00  0.00     0.012 A 
HETATM   16  C10 UNL     1      24.932 -12.412  10.714  1.00  0.00     0.002 A 
HETATM   17  C11 UNL     1      24.314 -13.142  11.697  1.00  0.00     0.012 A 
HETATM   18  C12 UNL     1      23.059 -13.697  11.483  1.00  0.00    -0.025 A 
HETATM   19  C13 UNL     1      22.459 -14.433  12.501  1.00  0.00     0.012 A 
HETATM   20  C17 UNL     1      22.408 -13.519  10.263  1.00  0.00    -0.016 A 
HETATM   21  C14 UNL     1      21.219 -15.007  12.352  1.00  0.00     0.001 A 
HETATM   22  C15 UNL     1      20.587 -14.827  11.149  1.00  0.00     0.001 A 
HETATM   23  C16 UNL     1      21.167 -14.095  10.118  1.00  0.00     0.013 A 
ENDBRANCH  13  14
ENDBRANCH   3  12
BRANCH   1  24
HETATM   24  C2  UNL     1      21.288  -9.170   3.252  1.00  0.00     0.030 C 
HETATM   25  C1  UNL     1      20.680  -8.015   3.103  1.00  0.00     0.013 C 
BRANCH  25  26
HETATM   26  C24 UNL     1      21.131  -7.029   2.158  1.00  0.00    -0.036 A 
HETATM   27  C25 UNL     1      21.534  -7.378   0.898  1.00  0.00     0.011 A 
HETATM   28  C26 UNL     1      21.969  -6.394   0.000  1.00  0.00     0.001 A 
HETATM   29  C27 UNL     1      21.993  -5.089   0.373  1.00  0.00     0.000 A 
HETATM   30  C28 UNL     1      21.594  -4.707   1.631  1.00  0.00     0.001 A 
HETATM   31  C29 UNL     1      21.171  -5.693   2.498  1.00  0.00     0.011 A 
ENDBRANCH  25  26
ENDBRANCH   1  24
TORSDOF 4
ENDMDL
MODEL 2
REMARK VINA RESULT: -10.185497195      3.392      9.680
REMARK  4 active torsions:
REMARK  status: ('A' for Active; 'I' for Inactive)
REMARK    1  A    between atoms: C1_1  and  C24_26 
REMARK    2  A    between atoms: C2_2  and  C3_3 
REMARK    3  A    between atoms: C5_5  and  C6_6 
REMARK    4  A    between atoms: C7_7  and  C8_8 
ROOT
HETATM    1  C3  UNL     1      20.834 -14.966  11.444  1.00  0.00     0.033 A 
HETATM    2  C4  UNL     1      20.650 -13.833  10.665  1.00  0.00     0.042 A 
HETATM    3  C5  UNL     1      19.835 -13.793   9.561  1.00  0.00    -0.021 A 
HETATM    4  C18 UNL     1      19.169 -14.942   9.214  1.00  0.00     0.001 A 
HETATM    5  C19 UNL     1      18.320 -15.052   8.134  1.00  0.00     0.014 A 
HETATM    6  C20 UNL     1      17.654 -16.232   7.801  1.00  0.00     0.001 A 
HETATM    7  C21 UNL     1      17.841 -17.348   8.575  1.00  0.00     0.002 A 
HETATM    8  C22 UNL     1      18.682 -17.254   9.652  1.00  0.00     0.030 A 
HETATM    9  C23 UNL     1      19.347 -16.098   9.994  1.00  0.00     0.043 A 
HETATM   10  N1  UNL     1      20.167 -16.063  11.071  1.00  0.00    -0.356 N 
ATOM     11  H1  UNL     1      20.282 -16.912  11.623  1.00  0.00     0.166 HD
ENDROOT
BRANCH   3  12
HETATM   12  C6  UNL     1      19.650 -12.576   8.742  1.00  0.00     0.013 C 
HETATM   13  C7  UNL     1      20.407 -12.278   7.713  1.00  0.00     0.013 C 
BRANCH  13  14
HETATM   14  C8  UNL     1      20.212 -11.085   6.924  1.00  0.00    -0.025 A 
HETATM   15  C9  UNL     1      20.799  -9.872   7.210  1.00  0.00     0.012 A 
HETATM   16  C10 UNL     1      20.629  -8.730   6.478  1.00  0.00     0.002 A 
HETATM   17  C11 UNL     1      19.814  -8.795   5.378  1.00  0.00     0.012 A 
HETATM   18  C12 UNL     1      19.189  -9.986   5.030  1.00  0.00    -0.025 A 
HETATM   19  C13 UNL     1      18.367 -10.019   3.906  1.00  0.00     0.012 A 
HETATM   20  C17 UNL     1      19.382 -11.133   5.796  1.00  0.00    -0.016 A 
HETATM   21  C14 UNL     1      17.721 -11.165   3.509  1.00  0.00     0.001 A 
HETATM   22  C15 UNL     1      17.916 -12.288   4.270  1.00  0.00     0.001 A 
HETATM   23  C16 UNL     1      18.734 -12.279   5.396  1.00  0.00     0.013 A 
ENDBRANCH  13  14
ENDBRANCH   3  12
BRANCH   1  24
HETATM   24  C2  UNL     1      21.721 -14.955  12.621  1.00  0.00     0.030 C 
HETATM   25  C1  UNL     1      22.378 -13.870  12.964  1.00  0.00     0.013 C 
BRANCH  25  26
HETATM   26  C24 UNL     1      23.251 -13.832  14.106  1.00  0.00    -0.036 A 
HETATM   27  C25 UNL     1      22.968 -13.053  15.196  1.00  0.00     0.011 A 
HETATM   28  C26 UNL     1      23.838 -13.037  16.294  1.00  0.00     0.001 A 
HETATM   29  C27 UNL     1      24.966 -13.791  16.285  1.00  0.00     0.000 A 
HETATM   30  C28 UNL     1      25.278 -14.583  15.206  1.00  0.00     0.001 A 
HETATM   31  C29 UNL     1      24.407 -14.583  14.137  1.00  0.00     0.011 A 
ENDBRANCH  25  26
ENDBRANCH   1  24
TORSDOF 4
ENDMDL
MODEL 3
REMARK VINA RESULT: -10.005758090      0.715      1.126
REMARK  4 active torsions:
REMARK  status: ('A' for Active; 'I' for Inactive)
REMARK    1  A    between atoms: C1_1  and  C24_26 
REMARK    2  A    between atoms: C2_2  and  C3_3 
REMARK    3  A    between atoms: C5_5  and  C6_6 
REMARK    4  A    between atoms: C7_7  and  C8_8 
ROOT
HETATM    1  C3  UNL     1      20.293  -9.274   4.487  1.00  0.00     0.033 A 
HETATM    2  C4  UNL     1      20.895  -9.681   5.668  1.00  0.00     0.042 A 
HETATM    3  C5  UNL     1      20.556 -10.831   6.338  1.00  0.00    -0.021 A 
HETATM    4  C18 UNL     1      19.566 -11.616   5.803  1.00  0.00     0.001 A 
HETATM    5  C19 UNL     1      19.121 -12.795   6.362  1.00  0.00     0.014 A 
HETATM    6  C20 UNL     1      18.111 -13.576   5.798  1.00  0.00     0.001 A 
HETATM    7  C21 UNL     1      17.521 -13.167   4.631  1.00  0.00     0.002 A 
HETATM    8  C22 UNL     1      17.952 -11.998   4.063  1.00  0.00     0.030 A 
HETATM    9  C23 UNL     1      18.947 -11.215   4.606  1.00  0.00     0.043 A 
HETATM   10  N1  UNL     1      19.334 -10.067   4.001  1.00  0.00    -0.356 N 
ATOM     11  H1  UNL     1      18.871  -9.795   3.133  1.00  0.00     0.166 HD
ENDROOT
BRANCH   3  12
HETATM   12  C6  UNL     1      21.209 -11.250   7.597  1.00  0.00     0.013 C 
HETATM   13  C7  UNL     1      22.065 -12.241   7.670  1.00  0.00     0.013 C 
BRANCH  13  14
HETATM   14  C8  UNL     1      22.692 -12.636   8.907  1.00  0.00    -0.025 A 
HETATM   15  C9  UNL     1      23.964 -12.258   9.279  1.00  0.00     0.012 A 
HETATM   16  C10 UNL     1      24.578 -12.620  10.445  1.00  0.00     0.002 A 
HETATM   17  C11 UNL     1      23.877 -13.419  11.311  1.00  0.00     0.012 A 
HETATM   18  C12 UNL     1      22.590 -13.839  11.002  1.00  0.00    -0.025 A 
HETATM   19  C13 UNL     1      21.905 -14.652  11.903  1.00  0.00     0.012 A 
HETATM   20  C17 UNL     1      21.991 -13.454   9.805  1.00  0.00    -0.016 A 
HETATM   21  C14 UNL     1      20.630 -15.101  11.656  1.00  0.00     0.001 A 
HETATM   22  C15 UNL     1      20.050 -14.717  10.475  1.00  0.00     0.001 A 
HETATM   23  C16 UNL     1      20.715 -13.905   9.560  1.00  0.00     0.013 A 
ENDBRANCH  13  14
ENDBRANCH   3  12
BRANCH   1  24
HETATM   24  C2  UNL     1      20.695  -8.029   3.807  1.00  0.00     0.030 C 
HETATM   25  C1  UNL     1      20.942  -8.011   2.517  1.00  0.00     0.013 C 
BRANCH  25  26
HETATM   26  C24 UNL     1      21.336  -6.812   1.829  1.00  0.00    -0.036 A 
HETATM   27  C25 UNL     1      21.235  -5.582   2.421  1.00  0.00     0.011 A 
HETATM   28  C26 UNL     1      21.627  -4.431   1.724  1.00  0.00     0.001 A 
HETATM   29  C27 UNL     1      22.108  -4.528   0.458  1.00  0.00     0.000 A 
HETATM   30  C28 UNL     1      22.222  -5.748  -0.163  1.00  0.00     0.001 A 
HETATM   31  C29 UNL     1      21.830  -6.866   0.542  1.00  0.00     0.011 A 
ENDBRANCH  25  26
ENDBRANCH   1  24
TORSDOF 4
ENDMDL
MODEL 4
REMARK VINA RESULT: -9.996765259      4.622     10.518
REMARK  4 active torsions:
REMARK  status: ('A' for Active; 'I' for Inactive)
REMARK    1  A    between atoms: C1_1  and  C24_26 
REMARK    2  A    between atoms: C2_2  and  C3_3 
REMARK    3  A    between atoms: C5_5  and  C6_6 
REMARK    4  A    between atoms: C7_7  and  C8_8 
ROOT
HETATM    1  C3  UNL     1      18.096 -17.314   8.623  1.00  0.00     0.033 A 
HETATM    2  C4  UNL     1      17.876 -16.198   7.828  1.00  0.00     0.042 A 
HETATM    3  C5  UNL     1      18.488 -14.986   8.033  1.00  0.00    -0.021 A 
HETATM    4  C18 UNL     1      19.363 -14.879   9.084  1.00  0.00     0.001 A 
HETATM    5  C19 UNL     1      20.048 -13.729   9.411  1.00  0.00     0.014 A 
HETATM    6  C20 UNL     1      20.933 -13.645  10.486  1.00  0.00     0.001 A 
HETATM    7  C21 UNL     1      21.145 -14.751  11.268  1.00  0.00     0.002 A 
HETATM    8  C22 UNL     1      20.472 -15.902  10.956  1.00  0.00     0.030 A 
HETATM    9  C23 UNL     1      19.594 -16.002   9.898  1.00  0.00     0.043 A 
HETATM   10  N1  UNL     1      18.955 -17.166   9.636  1.00  0.00    -0.356 N 
ATOM     11  H1  UNL     1      19.138 -17.968  10.239  1.00  0.00     0.166 HD
ENDROOT
BRANCH   3  12
HETATM   12  C6  UNL     1      18.242 -13.807   7.175  1.00  0.00     0.013 C 
HETATM   13  C7  UNL     1      18.959 -13.527   6.112  1.00  0.00     0.013 C 
BRANCH  13  14
HETATM   14  C8  UNL     1      18.705 -12.371   5.287  1.00  0.00    -0.025 A 
HETATM   15  C9  UNL     1      17.878 -12.382   4.184  1.00  0.00     0.012 A 
HETATM   16  C10 UNL     1      17.623 -11.301   3.388  1.00  0.00     0.002 A 
HETATM   17  C11 UNL     1      18.234 -10.116   3.709  1.00  0.00     0.012 A 
HETATM   18  C12 UNL     1      19.080 -10.031   4.807  1.00  0.00    -0.025 A 
HETATM   19  C13 UNL     1      19.686  -8.813   5.106  1.00  0.00     0.012 A 
HETATM   20  C17 UNL     1      19.321 -11.152   5.599  1.00  0.00    -0.016 A 
HETATM   21  C14 UNL     1      20.533  -8.664   6.178  1.00  0.00     0.001 A 
HETATM   22  C15 UNL     1      20.764  -9.772   6.951  1.00  0.00     0.001 A 
HETATM   23  C16 UNL     1      20.169 -10.999   6.672  1.00  0.00     0.013 A 
ENDBRANCH  13  14
ENDBRANCH   3  12
BRANCH   1  24
HETATM   24  C2  UNL     1      17.413 -18.593   8.360  1.00  0.00     0.030 C 
HETATM   25  C1  UNL     1      18.003 -19.548   7.677  1.00  0.00     0.013 C 
BRANCH  25  26
HETATM   26  C24 UNL     1      17.361 -20.805   7.405  1.00  0.00    -0.036 A 
HETATM   27  C25 UNL     1      18.043 -21.989   7.486  1.00  0.00     0.011 A 
HETATM   28  C26 UNL     1      17.388 -23.198   7.214  1.00  0.00     0.001 A 
HETATM   29  C27 UNL     1      16.076 -23.204   6.869  1.00  0.00     0.000 A 
HETATM   30  C28 UNL     1      15.364 -22.032   6.779  1.00  0.00     0.001 A 
HETATM   31  C29 UNL     1      16.029 -20.855   7.051  1.00  0.00     0.011 A 
ENDBRANCH  25  26
ENDBRANCH   1  24
TORSDOF 4
ENDMDL
MODEL 5
REMARK VINA RESULT: -9.974990476      3.317      9.396
REMARK  4 active torsions:
REMARK  status: ('A' for Active; 'I' for Inactive)
REMARK    1  A    between atoms: C1_1  and  C24_26 
REMARK    2  A    between atoms: C2_2  and  C3_3 
REMARK    3  A    between atoms: C5_5  and  C6_6 
REMARK    4  A    between atoms: C7_7  and  C8_8 
ROOT
HETATM    1  C3  UNL     1      20.545 -15.455  10.996  1.00  0.00     0.033 A 
HETATM    2  C4  UNL     1      20.099 -14.569  10.026  1.00  0.00     0.042 A 
HETATM    3  C5  UNL     1      19.265 -14.926   8.995  1.00  0.00    -0.021 A 
HETATM    4  C18 UNL     1      18.855 -16.235   8.927  1.00  0.00     0.001 A 
HETATM    5  C19 UNL     1      18.022 -16.737   7.951  1.00  0.00     0.014 A 
HETATM    6  C20 UNL     1      17.620 -18.073   7.902  1.00  0.00     0.001 A 
HETATM    7  C21 UNL     1      18.065 -18.943   8.864  1.00  0.00     0.002 A 
HETATM    8  C22 UNL     1      18.894 -18.457   9.840  1.00  0.00     0.030 A 
HETATM    9  C23 UNL     1      19.301 -17.143   9.903  1.00  0.00     0.043 A 
HETATM   10  N1  UNL     1      20.122 -16.718  10.892  1.00  0.00    -0.356 N 
ATOM     11  H1  UNL     1      20.433 -17.394  11.589  1.00  0.00     0.166 HD
ENDROOT
BRANCH   3  12
HETATM   12  C6  UNL     1      18.799 -13.969   7.970  1.00  0.00     0.013 C 
HETATM   13  C7  UNL     1      19.527 -13.602   6.942  1.00  0.00     0.013 C 
BRANCH  13  14
HETATM   14  C8  UNL     1      19.055 -12.666   5.951  1.00  0.00    -0.025 A 
HETATM   15  C9  UNL     1      18.171 -12.993   4.946  1.00  0.00     0.012 A 
HETATM   16  C10 UNL     1      17.711 -12.123   3.996  1.00  0.00     0.002 A 
HETATM   17  C11 UNL     1      18.162 -10.829   4.047  1.00  0.00     0.012 A 
HETATM   18  C12 UNL     1      19.055 -10.429   5.032  1.00  0.00    -0.025 A 
HETATM   19  C13 UNL     1      19.494  -9.108   5.055  1.00  0.00     0.012 A 
HETATM   20  C17 UNL     1      19.506 -11.339   5.986  1.00  0.00    -0.016 A 
HETATM   21  C14 UNL     1      20.376  -8.650   6.004  1.00  0.00     0.001 A 
HETATM   22  C15 UNL     1      20.815  -9.552   6.938  1.00  0.00     0.001 A 
HETATM   23  C16 UNL     1      20.389 -10.877   6.934  1.00  0.00     0.013 A 
ENDBRANCH  13  14
ENDBRANCH   3  12
BRANCH   1  24
HETATM   24  C2  UNL     1      21.440 -15.019  12.084  1.00  0.00     0.030 C 
HETATM   25  C1  UNL     1      22.186 -13.945  11.956  1.00  0.00     0.013 C 
BRANCH  25  26
HETATM   26  C24 UNL     1      23.069 -13.497  13.000  1.00  0.00    -0.036 A 
HETATM   27  C25 UNL     1      24.217 -12.807  12.718  1.00  0.00     0.011 A 
HETATM   28  C26 UNL     1      25.056 -12.385  13.758  1.00  0.00     0.001 A 
HETATM   29  C27 UNL     1      24.738 -12.656  15.049  1.00  0.00     0.000 A 
HETATM   30  C28 UNL     1      23.592 -13.347  15.363  1.00  0.00     0.001 A 
HETATM   31  C29 UNL     1      22.782 -13.753  14.324  1.00  0.00     0.011 A 
ENDBRANCH  25  26
ENDBRANCH   1  24
TORSDOF 4
ENDMDL
