MODEL 1
REMARK VINA RESULT: -6.818592972      0.000      0.000
REMARK  3 active torsions:
REMARK  status: ('A' for Active; 'I' for Inactive)
REMARK    1  A    between atoms: N3_4  and  C2_6 
REMARK    2  A    between atoms: C6_10  and  N4_11 
REMARK    3  A    between atoms: N4_11  and  C7_13 
ROOT
HETATM    1  C2  UNL     1      14.680  16.965  21.936  1.00  0.00     0.085 C 
HETATM    2  C3  UNL     1      16.141  16.711  21.604  1.00  0.00     0.025 C 
HETATM    3  C4  UNL     1      16.557  17.901  20.764  1.00  0.00     0.004 C 
HETATM    4  C5  UNL     1      15.813  17.935  19.447  1.00  0.00     0.025 C 
HETATM    5  C6  UNL     1      14.545  17.146  19.405  1.00  0.00     0.078 C 
HETATM    6  C11 UNL     1      13.819  17.025  20.732  1.00  0.00     0.050 C 
ENDROOT
BRANCH   5   7
HETATM    7  N4  UNL     1      14.575  15.897  18.780  1.00  0.00    -0.413 N 
ATOM      8  H4  UNL     1      15.237  15.220  19.159  1.00  0.00     0.154 HD
BRANCH   7   9
HETATM    9  C7  UNL     1      13.826  15.478  17.729  1.00  0.00     0.077 C 
HETATM   10  C8  UNL     1      13.051  16.324  16.779  1.00  0.00     0.025 C 
HETATM   11  C9  UNL     1      12.411  14.966  16.349  1.00  0.00     0.004 C 
HETATM   12  C10 UNL     1      12.575  14.640  17.859  1.00  0.00     0.025 C 
ENDBRANCH   7   9
ENDBRANCH   5   7
BRANCH   1  13
HETATM   13  N3  UNL     1      14.164  16.207  22.994  1.00  0.00    -0.362 N 
HETATM   14  C1  UNL     1      13.226  16.300  23.801  1.00  0.00     0.197 C 
HETATM   15  N1  UNL     1      13.026  15.280  24.762  1.00  0.00    -0.067 NA
HETATM   16  N2  UNL     1      12.332  17.394  23.808  1.00  0.00    -0.067 NA
ATOM     17  H3  UNL     1      14.702  15.352  23.141  1.00  0.00     0.162 HD
ENDBRANCH   1  13
TORSDOF 3
ENDMDL
MODEL 2
REMARK VINA RESULT: -6.816240289      1.803      2.631
REMARK  3 active torsions:
REMARK  status: ('A' for Active; 'I' for Inactive)
REMARK    1  A    between atoms: N3_4  and  C2_6 
REMARK    2  A    between atoms: C6_10  and  N4_11 
REMARK    3  A    between atoms: N4_11  and  C7_13 
ROOT
HETATM    1  C2  UNL     1      14.065  16.126  20.879  1.00  0.00     0.085 C 
HETATM    2  C3  UNL     1      13.482  15.434  19.658  1.00  0.00     0.025 C 
HETATM    3  C4  UNL     1      14.641  14.658  19.066  1.00  0.00     0.004 C 
HETATM    4  C5  UNL     1      15.727  15.583  18.563  1.00  0.00     0.025 C 
HETATM    5  C6  UNL     1      15.706  16.965  19.130  1.00  0.00     0.078 C 
HETATM    6  C11 UNL     1      15.151  17.074  20.539  1.00  0.00     0.050 C 
ENDROOT
BRANCH   5   7
HETATM    7  N4  UNL     1      15.169  17.987  18.343  1.00  0.00    -0.413 N 
ATOM      8  H4  UNL     1      15.142  18.914  18.766  1.00  0.00     0.154 HD
BRANCH   7   9
HETATM    9  C7  UNL     1      14.680  17.891  17.082  1.00  0.00     0.077 C 
HETATM   10  C8  UNL     1      14.954  18.803  15.936  1.00  0.00     0.025 C 
HETATM   11  C9  UNL     1      13.756  18.055  15.267  1.00  0.00     0.004 C 
HETATM   12  C10 UNL     1      13.218  18.034  16.725  1.00  0.00     0.025 C 
ENDBRANCH   7   9
ENDBRANCH   5   7
BRANCH   1  13
HETATM   13  N3  UNL     1      13.127  16.608  21.800  1.00  0.00    -0.362 N 
HETATM   14  C1  UNL     1      13.056  16.745  23.031  1.00  0.00     0.197 C 
HETATM   15  N1  UNL     1      11.887  17.297  23.608  1.00  0.00    -0.067 NA
HETATM   16  N2  UNL     1      14.103  16.371  23.902  1.00  0.00    -0.067 NA
ATOM     17  H3  UNL     1      12.277  16.931  21.336  1.00  0.00     0.162 HD
ENDBRANCH   1  13
TORSDOF 3
ENDMDL
MODEL 3
REMARK VINA RESULT: -6.729175499      1.957      3.340
REMARK  3 active torsions:
REMARK  status: ('A' for Active; 'I' for Inactive)
REMARK    1  A    between atoms: N3_4  and  C2_6 
REMARK    2  A    between atoms: C6_10  and  N4_11 
REMARK    3  A    between atoms: N4_11  and  C7_13 
ROOT
HETATM    1  C2  UNL     1      13.947  16.114  21.091  1.00  0.00     0.085 C 
HETATM    2  C3  UNL     1      13.341  15.821  19.729  1.00  0.00     0.025 C 
HETATM    3  C4  UNL     1      14.262  14.788  19.113  1.00  0.00     0.004 C 
HETATM    4  C5  UNL     1      15.641  15.357  18.860  1.00  0.00     0.025 C 
HETATM    5  C6  UNL     1      15.984  16.580  19.646  1.00  0.00     0.078 C 
HETATM    6  C11 UNL     1      15.312  16.682  21.003  1.00  0.00     0.050 C 
ENDROOT
BRANCH   5   7
HETATM    7  N4  UNL     1      15.906  17.815  18.998  1.00  0.00    -0.413 N 
ATOM      8  H4  UNL     1      15.436  18.562  19.510  1.00  0.00     0.154 HD
BRANCH   7   9
HETATM    9  C7  UNL     1      16.381  18.139  17.770  1.00  0.00     0.077 C 
HETATM   10  C8  UNL     1      17.346  19.223  17.433  1.00  0.00     0.025 C 
HETATM   11  C9  UNL     1      16.900  18.938  15.963  1.00  0.00     0.004 C 
HETATM   12  C10 UNL     1      15.528  18.676  16.644  1.00  0.00     0.025 C 
ENDBRANCH   7   9
ENDBRANCH   5   7
BRANCH   1  13
HETATM   13  N3  UNL     1      13.097  16.756  22.000  1.00  0.00    -0.362 N 
HETATM   14  C1  UNL     1      12.774  16.616  23.190  1.00  0.00     0.197 C 
HETATM   15  N1  UNL     1      11.842  17.509  23.772  1.00  0.00    -0.067 NA
HETATM   16  N2  UNL     1      13.298  15.590  24.008  1.00  0.00    -0.067 NA
ATOM     17  H3  UNL     1      12.617  17.547  21.571  1.00  0.00     0.162 HD
ENDBRANCH   1  13
TORSDOF 3
ENDMDL
MODEL 4
REMARK VINA RESULT: -6.560450984      1.949      5.408
REMARK  3 active torsions:
REMARK  status: ('A' for Active; 'I' for Inactive)
REMARK    1  A    between atoms: N3_4  and  C2_6 
REMARK    2  A    between atoms: C6_10  and  N4_11 
REMARK    3  A    between atoms: N4_11  and  C7_13 
ROOT
HETATM    1  C2  UNL     1      15.104  16.361  17.683  1.00  0.00     0.085 C 
HETATM    2  C3  UNL     1      15.092  17.871  17.847  1.00  0.00     0.025 C 
HETATM    3  C4  UNL     1      16.384  18.190  18.569  1.00  0.00     0.004 C 
HETATM    4  C5  UNL     1      16.397  17.603  19.964  1.00  0.00     0.025 C 
HETATM    5  C6  UNL     1      15.433  16.486  20.199  1.00  0.00     0.078 C 
HETATM    6  C11 UNL     1      15.117  15.642  18.979  1.00  0.00     0.050 C 
ENDROOT
BRANCH   5   7
HETATM    7  N4  UNL     1      14.248  16.779  20.878  1.00  0.00    -0.413 N 
ATOM      8  H4  UNL     1      13.540  17.285  20.347  1.00  0.00     0.154 HD
BRANCH   7   9
HETATM    9  C7  UNL     1      13.927  16.469  22.159  1.00  0.00     0.077 C 
HETATM   10  C8  UNL     1      12.712  16.888  22.911  1.00  0.00     0.025 C 
HETATM   11  C9  UNL     1      13.501  16.363  24.153  1.00  0.00     0.004 C 
HETATM   12  C10 UNL     1      14.717  16.922  23.365  1.00  0.00     0.025 C 
ENDBRANCH   7   9
ENDBRANCH   5   7
BRANCH   1  13
HETATM   13  N3  UNL     1      14.207  15.853  16.735  1.00  0.00    -0.362 N 
HETATM   14  C1  UNL     1      12.981  15.871  16.549  1.00  0.00     0.197 C 
HETATM   15  N1  UNL     1      12.434  15.210  15.423  1.00  0.00    -0.067 NA
HETATM   16  N2  UNL     1      12.086  16.529  17.422  1.00  0.00    -0.067 NA
ATOM     17  H3  UNL     1      14.690  15.329  16.004  1.00  0.00     0.162 HD
ENDBRANCH   1  13
TORSDOF 3
ENDMDL
MODEL 5
REMARK VINA RESULT: -6.505732179      2.347      5.543
REMARK  3 active torsions:
REMARK  status: ('A' for Active; 'I' for Inactive)
REMARK    1  A    between atoms: N3_4  and  C2_6 
REMARK    2  A    between atoms: C6_10  and  N4_11 
REMARK    3  A    between atoms: N4_11  and  C7_13 
ROOT
HETATM    1  C2  UNL     1      15.095  16.447  17.119  1.00  0.00     0.085 C 
HETATM    2  C3  UNL     1      14.945  17.946  17.314  1.00  0.00     0.025 C 
HETATM    3  C4  UNL     1      16.356  18.448  17.541  1.00  0.00     0.004 C 
HETATM    4  C5  UNL     1      16.937  17.899  18.826  1.00  0.00     0.025 C 
HETATM    5  C6  UNL     1      16.273  16.672  19.358  1.00  0.00     0.078 C 
HETATM    6  C11 UNL     1      15.659  15.766  18.308  1.00  0.00     0.050 C 
ENDROOT
BRANCH   5   7
HETATM    7  N4  UNL     1      15.376  16.822  20.419  1.00  0.00    -0.413 N 
ATOM      8  H4  UNL     1      14.429  16.480  20.259  1.00  0.00     0.154 HD
BRANCH   7   9
HETATM    9  C7  UNL     1      15.617  17.369  21.637  1.00  0.00     0.077 C 
HETATM   10  C8  UNL     1      16.884  17.310  22.418  1.00  0.00     0.025 C 
HETATM   11  C9  UNL     1      15.994  17.841  23.588  1.00  0.00     0.004 C 
HETATM   12  C10 UNL     1      14.921  16.946  22.910  1.00  0.00     0.025 C 
ENDBRANCH   7   9
ENDBRANCH   5   7
BRANCH   1  13
HETATM   13  N3  UNL     1      13.996  15.805  16.536  1.00  0.00    -0.362 N 
HETATM   14  C1  UNL     1      12.802  15.620  16.818  1.00  0.00     0.197 C 
HETATM   15  N1  UNL     1      11.978  14.886  15.930  1.00  0.00    -0.067 NA
HETATM   16  N2  UNL     1      12.213  16.114  18.003  1.00  0.00    -0.067 NA
ATOM     17  H3  UNL     1      14.242  15.374  15.643  1.00  0.00     0.162 HD
ENDBRANCH   1  13
TORSDOF 3
ENDMDL
