MODEL 1
REMARK VINA RESULT: -7.953527688      0.000      0.000
REMARK  12 active torsions:
REMARK  status: ('A' for Active; 'I' for Inactive)
REMARK    1  A    between atoms: N1_1  and  C1_5 
REMARK    2  A    between atoms: C1_5  and  C2_6 
REMARK    3  A    between atoms: C3_8  and  O2_9 
REMARK    4  A    between atoms: O2_9  and  C4_10 
REMARK    5  A    between atoms: C6_12  and  N2_13 
REMARK    6  A    between atoms: C9_19  and  N3_20 
REMARK    7  A    between atoms: C10_24  and  N4_25 
REMARK    8  A    between atoms: N4_25  and  C11_27 
REMARK    9  A    between atoms: C11_27  and  C12_28 
REMARK   10  A    between atoms: C17_33  and  S1_34 
REMARK   11  A    between atoms: S1_34  and  N5_35 
REMARK   12  A    between atoms: C19_42  and  O6_43 
ROOT
HETATM    1  C2  UNL     1      13.657  -0.866   9.659  1.00  0.00     0.181 C 
HETATM    2  O1  UNL     1      12.339  -1.145   9.570  1.00  0.00    -0.344 OA
HETATM    3  C3  UNL     1      11.676  -0.507  10.749  1.00  0.00     0.336 C 
HETATM    4  C10 UNL     1      11.981  -1.325  11.876  1.00  0.00     0.171 C 
HETATM    5  O5  UNL     1      12.615  -2.564  11.476  1.00  0.00    -0.333 OA
HETATM    6  C18 UNL     1      13.994  -2.404  11.599  1.00  0.00     0.211 C 
HETATM    7  C19 UNL     1      14.561  -1.835  10.323  1.00  0.00     0.173 C 
ENDROOT
BRANCH   3   8
HETATM    8  O2  UNL     1      10.344  -0.503  10.287  1.00  0.00    -0.346 OA
BRANCH   8   9
HETATM    9  C4  UNL     1       9.414  -0.615  11.312  1.00  0.00     0.157 C 
HETATM   10  C5  UNL     1       8.834   0.750  11.558  1.00  0.00     0.067 C 
HETATM   11  C6  UNL     1       7.363   0.880  11.480  1.00  0.00     0.186 C 
HETATM   12  C7  UNL     1       6.764  -0.023  10.455  1.00  0.00     0.035 C 
HETATM   13  C8  UNL     1       7.071  -1.437  10.813  1.00  0.00     0.037 C 
HETATM   14  C9  UNL     1       8.479  -1.733  11.178  1.00  0.00     0.212 C 
BRANCH  11  15
HETATM   15  N2  UNL     1       6.733   0.753  12.785  1.00  0.00    -0.075 N 
ATOM     16  H23 UNL     1       7.242   0.099  13.379  1.00  0.00     0.274 HD
ATOM     17  H22 UNL     1       6.854   1.602  13.338  1.00  0.00     0.274 HD
ATOM     18  H21 UNL     1       5.748   0.498  12.713  1.00  0.00     0.274 HD
ENDBRANCH  11  15
BRANCH  14  19
HETATM   19  N3  UNL     1       8.438  -2.527  12.428  1.00  0.00    -0.073 N 
ATOM     20  H33 UNL     1       8.404  -3.528  12.241  1.00  0.00     0.274 HD
ATOM     21  H32 UNL     1       9.328  -2.496  12.926  1.00  0.00     0.274 HD
ATOM     22  H31 UNL     1       7.662  -2.223  13.017  1.00  0.00     0.274 HD
ENDBRANCH  14  19
ENDBRANCH   8   9
ENDBRANCH   3   8
BRANCH   4  23
HETATM   23  N4  UNL     1      12.434  -0.997  13.152  1.00  0.00    -0.366 N 
ATOM     24  H4  UNL     1      13.274  -0.436  13.292  1.00  0.00     0.161 HD
BRANCH  23  25
HETATM   25  C11 UNL     1      11.646  -1.497  14.286  1.00  0.00     0.161 C 
BRANCH  25  26
HETATM   26  C12 UNL     1      12.186  -0.754  15.484  1.00  0.00    -0.017 A 
HETATM   27  C13 UNL     1      13.319  -1.257  16.148  1.00  0.00     0.010 A 
HETATM   28  C14 UNL     1      13.719  -0.761  17.353  1.00  0.00     0.001 A 
HETATM   29  C15 UNL     1      12.998   0.260  17.938  1.00  0.00     0.002 A 
HETATM   30  C16 UNL     1      11.898   0.764  17.305  1.00  0.00     0.026 A 
HETATM   31  C17 UNL     1      11.496   0.245  16.054  1.00  0.00     0.087 A 
BRANCH  31  32
HETATM   32  S1  UNL     1      10.214   1.108  15.250  1.00  0.00     0.257 S 
HETATM   33  O3  UNL     1       9.013   0.263  15.050  1.00  0.00    -0.201 OA
HETATM   34  O4  UNL     1      10.643   1.657  13.908  1.00  0.00    -0.201 OA
BRANCH  32  35
HETATM   35  N5  UNL     1       9.814   2.444  16.303  1.00  0.00    -0.324 N 
ATOM     36  H52 UNL     1      10.123   3.411  16.200  1.00  0.00     0.169 HD
ATOM     37  H51 UNL     1       9.215   2.051  17.029  1.00  0.00     0.169 HD
ENDBRANCH  32  35
ENDBRANCH  31  32
ENDBRANCH  25  26
ENDBRANCH  23  25
ENDBRANCH   4  23
BRANCH   1  38
HETATM   38  C1  UNL     1      14.156  -0.755   8.193  1.00  0.00     0.264 C 
BRANCH  38  39
HETATM   39  N1  UNL     1      15.421  -0.063   8.209  1.00  0.00    -0.077 N 
ATOM     40  H13 UNL     1      15.648   0.326   9.124  1.00  0.00     0.274 HD
ATOM     41  H12 UNL     1      16.218  -0.694   8.129  1.00  0.00     0.274 HD
ATOM     42  H11 UNL     1      15.400   0.643   7.473  1.00  0.00     0.274 HD
ENDBRANCH  38  39
ENDBRANCH   1  38
BRANCH   7  43
HETATM   43  O6  UNL     1      14.937  -2.882   9.450  1.00  0.00    -0.391 OA
ATOM     44  H6  UNL     1      14.536  -3.706   9.697  1.00  0.00     0.210 HD
ENDBRANCH   7  43
TORSDOF 12
ENDMDL
MODEL 2
REMARK VINA RESULT: -7.952267600      1.202      1.526
REMARK  12 active torsions:
REMARK  status: ('A' for Active; 'I' for Inactive)
REMARK    1  A    between atoms: N1_1  and  C1_5 
REMARK    2  A    between atoms: C1_5  and  C2_6 
REMARK    3  A    between atoms: C3_8  and  O2_9 
REMARK    4  A    between atoms: O2_9  and  C4_10 
REMARK    5  A    between atoms: C6_12  and  N2_13 
REMARK    6  A    between atoms: C9_19  and  N3_20 
REMARK    7  A    between atoms: C10_24  and  N4_25 
REMARK    8  A    between atoms: N4_25  and  C11_27 
REMARK    9  A    between atoms: C11_27  and  C12_28 
REMARK   10  A    between atoms: C17_33  and  S1_34 
REMARK   11  A    between atoms: S1_34  and  N5_35 
REMARK   12  A    between atoms: C19_42  and  O6_43 
ROOT
HETATM    1  C2  UNL     1      13.348  -0.851   9.637  1.00  0.00     0.181 C 
HETATM    2  O1  UNL     1      12.026  -1.117   9.579  1.00  0.00    -0.344 OA
HETATM    3  C3  UNL     1      11.396  -0.463  10.768  1.00  0.00     0.336 C 
HETATM    4  C10 UNL     1      11.717  -1.277  11.894  1.00  0.00     0.171 C 
HETATM    5  O5  UNL     1      12.329  -2.525  11.489  1.00  0.00    -0.333 OA
HETATM    6  C18 UNL     1      13.712  -2.379  11.581  1.00  0.00     0.211 C 
HETATM    7  C19 UNL     1      14.257  -1.826  10.288  1.00  0.00     0.173 C 
ENDROOT
BRANCH   3   8
HETATM    8  O2  UNL     1      10.054  -0.449  10.336  1.00  0.00    -0.346 OA
BRANCH   8   9
HETATM    9  C4  UNL     1       9.435   0.779  10.528  1.00  0.00     0.157 C 
HETATM   10  C5  UNL     1       9.300   1.441   9.185  1.00  0.00     0.067 C 
HETATM   11  C6  UNL     1       7.941   1.858   8.774  1.00  0.00     0.186 C 
HETATM   12  C7  UNL     1       6.886   0.929   9.270  1.00  0.00     0.035 C 
HETATM   13  C8  UNL     1       6.916   0.907  10.761  1.00  0.00     0.037 C 
HETATM   14  C9  UNL     1       8.251   0.747  11.389  1.00  0.00     0.212 C 
BRANCH  11  15
HETATM   15  N2  UNL     1       7.673   3.249   9.105  1.00  0.00    -0.075 N 
ATOM     16  H23 UNL     1       7.339   3.765   8.290  1.00  0.00     0.274 HD
ATOM     17  H22 UNL     1       6.850   3.336   9.700  1.00  0.00     0.274 HD
ATOM     18  H21 UNL     1       8.483   3.707   9.525  1.00  0.00     0.274 HD
ENDBRANCH  11  15
BRANCH  14  19
HETATM   19  N3  UNL     1       8.352   1.778  12.447  1.00  0.00    -0.073 N 
ATOM     20  H33 UNL     1       8.986   2.532  12.183  1.00  0.00     0.274 HD
ATOM     21  H32 UNL     1       7.493   2.323  12.528  1.00  0.00     0.274 HD
ATOM     22  H31 UNL     1       8.617   1.352  13.335  1.00  0.00     0.274 HD
ENDBRANCH  14  19
ENDBRANCH   8   9
ENDBRANCH   3   8
BRANCH   4  23
HETATM   23  N4  UNL     1      12.202  -0.945  13.157  1.00  0.00    -0.366 N 
ATOM     24  H4  UNL     1      13.022  -0.350  13.274  1.00  0.00     0.161 HD
BRANCH  23  25
HETATM   25  C11 UNL     1      11.476  -1.490  14.313  1.00  0.00     0.161 C 
BRANCH  25  26
HETATM   26  C12 UNL     1      12.100  -0.813  15.509  1.00  0.00    -0.017 A 
HETATM   27  C13 UNL     1      13.221  -1.402  16.121  1.00  0.00     0.010 A 
HETATM   28  C14 UNL     1      13.689  -0.964  17.324  1.00  0.00     0.001 A 
HETATM   29  C15 UNL     1      13.052   0.082  17.959  1.00  0.00     0.002 A 
HETATM   30  C16 UNL     1      11.965   0.669  17.377  1.00  0.00     0.026 A 
HETATM   31  C17 UNL     1      11.491   0.209  16.128  1.00  0.00     0.087 A 
BRANCH  31  32
HETATM   32  S1  UNL     1      10.240   1.170  15.389  1.00  0.00     0.257 S 
HETATM   33  O3  UNL     1       8.980   0.409  15.219  1.00  0.00    -0.201 OA
HETATM   34  O4  UNL     1      10.654   1.720  14.043  1.00  0.00    -0.201 OA
BRANCH  32  35
HETATM   35  N5  UNL     1       9.966   2.506  16.482  1.00  0.00    -0.324 N 
ATOM     36  H52 UNL     1      10.667   3.166  16.820  1.00  0.00     0.169 HD
ATOM     37  H51 UNL     1       8.971   2.480  16.703  1.00  0.00     0.169 HD
ENDBRANCH  32  35
ENDBRANCH  31  32
ENDBRANCH  25  26
ENDBRANCH  23  25
ENDBRANCH   4  23
BRANCH   1  38
HETATM   38  C1  UNL     1      13.816  -0.757   8.160  1.00  0.00     0.264 C 
BRANCH  38  39
HETATM   39  N1  UNL     1      15.134  -0.172   8.151  1.00  0.00    -0.077 N 
ATOM     40  H13 UNL     1      15.413   0.163   7.229  1.00  0.00     0.274 HD
ATOM     41  H12 UNL     1      15.172   0.723   8.638  1.00  0.00     0.274 HD
ATOM     42  H11 UNL     1      15.782  -0.859   8.536  1.00  0.00     0.274 HD
ENDBRANCH  38  39
ENDBRANCH   1  38
BRANCH   7  43
HETATM   43  O6  UNL     1      14.602  -2.883   9.415  1.00  0.00    -0.391 OA
ATOM     44  H6  UNL     1      14.522  -3.729   9.839  1.00  0.00     0.210 HD
ENDBRANCH   7  43
TORSDOF 12
ENDMDL
MODEL 3
REMARK VINA RESULT: -7.801333650      2.078      2.587
REMARK  12 active torsions:
REMARK  status: ('A' for Active; 'I' for Inactive)
REMARK    1  A    between atoms: N1_1  and  C1_5 
REMARK    2  A    between atoms: C1_5  and  C2_6 
REMARK    3  A    between atoms: C3_8  and  O2_9 
REMARK    4  A    between atoms: O2_9  and  C4_10 
REMARK    5  A    between atoms: C6_12  and  N2_13 
REMARK    6  A    between atoms: C9_19  and  N3_20 
REMARK    7  A    between atoms: C10_24  and  N4_25 
REMARK    8  A    between atoms: N4_25  and  C11_27 
REMARK    9  A    between atoms: C11_27  and  C12_28 
REMARK   10  A    between atoms: C17_33  and  S1_34 
REMARK   11  A    between atoms: S1_34  and  N5_35 
REMARK   12  A    between atoms: C19_42  and  O6_43 
ROOT
HETATM    1  C2  UNL     1      13.158  -0.175  11.698  1.00  0.00     0.181 C 
HETATM    2  O1  UNL     1      11.871  -0.422  11.373  1.00  0.00    -0.344 OA
HETATM    3  C3  UNL     1      11.024   0.434  12.260  1.00  0.00     0.336 C 
HETATM    4  C10 UNL     1      11.031  -0.186  13.545  1.00  0.00     0.171 C 
HETATM    5  O5  UNL     1      11.646  -1.496  13.498  1.00  0.00    -0.333 OA
HETATM    6  C18 UNL     1      12.977  -1.363  13.890  1.00  0.00     0.211 C 
HETATM    7  C19 UNL     1      13.835  -1.044  12.691  1.00  0.00     0.173 C 
ENDROOT
BRANCH   3   8
HETATM    8  O2  UNL     1       9.820   0.401  11.527  1.00  0.00    -0.346 OA
BRANCH   8   9
HETATM    9  C4  UNL     1       8.840  -0.380  12.125  1.00  0.00     0.157 C 
HETATM   10  C5  UNL     1       7.734   0.535  12.573  1.00  0.00     0.067 C 
HETATM   11  C6  UNL     1       6.372   0.234  12.080  1.00  0.00     0.186 C 
HETATM   12  C7  UNL     1       6.377  -0.328  10.699  1.00  0.00     0.035 C 
HETATM   13  C8  UNL     1       7.147  -1.605  10.695  1.00  0.00     0.037 C 
HETATM   14  C9  UNL     1       8.465  -1.580  11.377  1.00  0.00     0.212 C 
BRANCH  11  15
HETATM   15  N2  UNL     1       5.617  -0.579  13.022  1.00  0.00    -0.075 N 
ATOM     16  H23 UNL     1       5.715  -1.572  12.812  1.00  0.00     0.274 HD
ATOM     17  H22 UNL     1       6.045  -0.566  13.947  1.00  0.00     0.274 HD
ATOM     18  H21 UNL     1       4.636  -0.304  13.065  1.00  0.00     0.274 HD
ENDBRANCH  11  15
BRANCH  14  19
HETATM   19  N3  UNL     1       8.514  -2.773  12.254  1.00  0.00    -0.073 N 
ATOM     20  H33 UNL     1       8.498  -2.519  13.241  1.00  0.00     0.274 HD
ATOM     21  H32 UNL     1       7.644  -3.305  12.220  1.00  0.00     0.274 HD
ATOM     22  H31 UNL     1       9.322  -3.351  12.023  1.00  0.00     0.274 HD
ENDBRANCH  14  19
ENDBRANCH   8   9
ENDBRANCH   3   8
BRANCH   4  23
HETATM   23  N4  UNL     1      11.230   0.344  14.817  1.00  0.00    -0.366 N 
ATOM     24  H4  UNL     1      12.167   0.512  15.184  1.00  0.00     0.161 HD
BRANCH  23  25
HETATM   25  C11 UNL     1      10.030   0.650  15.607  1.00  0.00     0.161 C 
BRANCH  25  26
HETATM   26  C12 UNL     1      10.489   1.669  16.621  1.00  0.00    -0.017 A 
HETATM   27  C13 UNL     1      11.793   1.580  17.139  1.00  0.00     0.010 A 
HETATM   28  C14 UNL     1      12.189   2.328  18.208  1.00  0.00     0.001 A 
HETATM   29  C15 UNL     1      11.291   3.194  18.798  1.00  0.00     0.002 A 
HETATM   30  C16 UNL     1      10.022   3.296  18.305  1.00  0.00     0.026 A 
HETATM   31  C17 UNL     1       9.624   2.520  17.194  1.00  0.00     0.087 A 
BRANCH  31  32
HETATM   32  S1  UNL     1       8.060   2.893  16.526  1.00  0.00     0.257 S 
HETATM   33  O3  UNL     1       7.423   4.045  17.207  1.00  0.00    -0.201 OA
HETATM   34  O4  UNL     1       7.111   1.717  16.584  1.00  0.00    -0.201 OA
BRANCH  32  35
HETATM   35  N5  UNL     1       8.348   3.300  14.851  1.00  0.00    -0.324 N 
ATOM     36  H52 UNL     1       9.140   2.999  14.281  1.00  0.00     0.169 HD
ATOM     37  H51 UNL     1       7.566   3.893  14.573  1.00  0.00     0.169 HD
ENDBRANCH  32  35
ENDBRANCH  31  32
ENDBRANCH  25  26
ENDBRANCH  23  25
ENDBRANCH   4  23
BRANCH   1  38
HETATM   38  C1  UNL     1      13.957  -0.338  10.377  1.00  0.00     0.264 C 
BRANCH  38  39
HETATM   39  N1  UNL     1      13.156  -1.124   9.472  1.00  0.00    -0.077 N 
ATOM     40  H13 UNL     1      13.703  -1.540   8.718  1.00  0.00     0.274 HD
ATOM     41  H12 UNL     1      12.822  -1.992   9.891  1.00  0.00     0.274 HD
ATOM     42  H11 UNL     1      12.399  -0.532   9.131  1.00  0.00     0.274 HD
ENDBRANCH  38  39
ENDBRANCH   1  38
BRANCH   7  43
HETATM   43  O6  UNL     1      14.310  -2.238  12.102  1.00  0.00    -0.391 OA
ATOM     44  H6  UNL     1      15.256  -2.238  12.022  1.00  0.00     0.210 HD
ENDBRANCH   7  43
TORSDOF 12
ENDMDL
MODEL 4
REMARK VINA RESULT: -7.781327866      2.301      3.011
REMARK  12 active torsions:
REMARK  status: ('A' for Active; 'I' for Inactive)
REMARK    1  A    between atoms: N1_1  and  C1_5 
REMARK    2  A    between atoms: C1_5  and  C2_6 
REMARK    3  A    between atoms: C3_8  and  O2_9 
REMARK    4  A    between atoms: O2_9  and  C4_10 
REMARK    5  A    between atoms: C6_12  and  N2_13 
REMARK    6  A    between atoms: C9_19  and  N3_20 
REMARK    7  A    between atoms: C10_24  and  N4_25 
REMARK    8  A    between atoms: N4_25  and  C11_27 
REMARK    9  A    between atoms: C11_27  and  C12_28 
REMARK   10  A    between atoms: C17_33  and  S1_34 
REMARK   11  A    between atoms: S1_34  and  N5_35 
REMARK   12  A    between atoms: C19_42  and  O6_43 
ROOT
HETATM    1  C2  UNL     1      12.720  -0.346  12.067  1.00  0.00     0.181 C 
HETATM    2  O1  UNL     1      11.526  -0.918  11.804  1.00  0.00    -0.344 OA
HETATM    3  C3  UNL     1      10.511  -0.224  12.656  1.00  0.00     0.336 C 
HETATM    4  C10 UNL     1      10.687  -0.722  13.981  1.00  0.00     0.171 C 
HETATM    5  O5  UNL     1      11.600  -1.845  14.008  1.00  0.00    -0.333 OA
HETATM    6  C18 UNL     1      12.865  -1.367  14.344  1.00  0.00     0.211 C 
HETATM    7  C19 UNL     1      13.602  -0.946  13.097  1.00  0.00     0.173 C 
ENDROOT
BRANCH   3   8
HETATM    8  O2  UNL     1       9.340  -0.602  11.968  1.00  0.00    -0.346 OA
BRANCH   8   9
HETATM    9  C4  UNL     1       8.366   0.388  11.969  1.00  0.00     0.157 C 
HETATM   10  C5  UNL     1       8.349   1.018  10.604  1.00  0.00     0.067 C 
HETATM   11  C6  UNL     1       7.056   1.035   9.887  1.00  0.00     0.186 C 
HETATM   12  C7  UNL     1       6.231  -0.174  10.173  1.00  0.00     0.035 C 
HETATM   13  C8  UNL     1       5.933  -0.226  11.633  1.00  0.00     0.037 C 
HETATM   14  C9  UNL     1       7.081  -0.009  12.547  1.00  0.00     0.212 C 
BRANCH  11  15
HETATM   15  N2  UNL     1       6.332   2.279  10.094  1.00  0.00    -0.075 N 
ATOM     16  H23 UNL     1       6.277   2.514  11.085  1.00  0.00     0.274 HD
ATOM     17  H22 UNL     1       6.872   3.080   9.767  1.00  0.00     0.274 HD
ATOM     18  H21 UNL     1       5.405   2.259   9.667  1.00  0.00     0.274 HD
ENDBRANCH  11  15
BRANCH  14  19
HETATM   19  N3  UNL     1       6.641   0.978  13.559  1.00  0.00    -0.073 N 
ATOM     20  H33 UNL     1       5.626   0.997  13.655  1.00  0.00     0.274 HD
ATOM     21  H32 UNL     1       6.877   0.682  14.506  1.00  0.00     0.274 HD
ATOM     22  H31 UNL     1       7.020   1.901  13.345  1.00  0.00     0.274 HD
ENDBRANCH  14  19
ENDBRANCH   8   9
ENDBRANCH   3   8
BRANCH   4  23
HETATM   23  N4  UNL     1      10.773  -0.062  15.204  1.00  0.00    -0.366 N 
ATOM     24  H4  UNL     1      11.565  -0.201  15.831  1.00  0.00     0.161 HD
BRANCH  23  25
HETATM   25  C11 UNL     1       9.669   0.844  15.550  1.00  0.00     0.161 C 
BRANCH  25  26
HETATM   26  C12 UNL     1      10.254   1.786  16.574  1.00  0.00    -0.017 A 
HETATM   27  C13 UNL     1      11.573   1.581  17.019  1.00  0.00     0.010 A 
HETATM   28  C14 UNL     1      12.077   2.255  18.091  1.00  0.00     0.001 A 
HETATM   29  C15 UNL     1      11.278   3.160  18.758  1.00  0.00     0.002 A 
HETATM   30  C16 UNL     1       9.997   3.375  18.338  1.00  0.00     0.026 A 
HETATM   31  C17 UNL     1       9.487   2.675  17.222  1.00  0.00     0.087 A 
BRANCH  31  32
HETATM   32  S1  UNL     1       7.923   3.188  16.652  1.00  0.00     0.257 S 
HETATM   33  O3  UNL     1       7.378   4.310  17.453  1.00  0.00    -0.201 OA
HETATM   34  O4  UNL     1       6.912   2.064  16.650  1.00  0.00    -0.201 OA
BRANCH  32  35
HETATM   35  N5  UNL     1       8.175   3.722  15.007  1.00  0.00    -0.324 N 
ATOM     36  H52 UNL     1       8.899   4.363  14.681  1.00  0.00     0.169 HD
ATOM     37  H51 UNL     1       7.452   3.261  14.455  1.00  0.00     0.169 HD
ENDBRANCH  32  35
ENDBRANCH  31  32
ENDBRANCH  25  26
ENDBRANCH  23  25
ENDBRANCH   4  23
BRANCH   1  38
HETATM   38  C1  UNL     1      13.515  -0.415  10.735  1.00  0.00     0.264 C 
BRANCH  38  39
HETATM   39  N1  UNL     1      12.956  -1.483   9.944  1.00  0.00    -0.077 N 
ATOM     40  H13 UNL     1      13.669  -2.057   9.493  1.00  0.00     0.274 HD
ATOM     41  H12 UNL     1      12.532  -2.216  10.513  1.00  0.00     0.274 HD
ATOM     42  H11 UNL     1      12.302  -1.070   9.280  1.00  0.00     0.274 HD
ENDBRANCH  38  39
ENDBRANCH   1  38
BRANCH   7  43
HETATM   43  O6  UNL     1      14.343  -2.034  12.580  1.00  0.00    -0.391 OA
ATOM     44  H6  UNL     1      13.858  -2.502  11.910  1.00  0.00     0.210 HD
ENDBRANCH   7  43
TORSDOF 12
ENDMDL
MODEL 5
REMARK VINA RESULT: -7.711323919      3.578      8.687
REMARK  12 active torsions:
REMARK  status: ('A' for Active; 'I' for Inactive)
REMARK    1  A    between atoms: N1_1  and  C1_5 
REMARK    2  A    between atoms: C1_5  and  C2_6 
REMARK    3  A    between atoms: C3_8  and  O2_9 
REMARK    4  A    between atoms: O2_9  and  C4_10 
REMARK    5  A    between atoms: C6_12  and  N2_13 
REMARK    6  A    between atoms: C9_19  and  N3_20 
REMARK    7  A    between atoms: C10_24  and  N4_25 
REMARK    8  A    between atoms: N4_25  and  C11_27 
REMARK    9  A    between atoms: C11_27  and  C12_28 
REMARK   10  A    between atoms: C17_33  and  S1_34 
REMARK   11  A    between atoms: S1_34  and  N5_35 
REMARK   12  A    between atoms: C19_42  and  O6_43 
ROOT
HETATM    1  C2  UNL     1       7.888   4.481  17.391  1.00  0.00     0.181 C 
HETATM    2  O1  UNL     1       8.432   3.400  17.990  1.00  0.00    -0.344 OA
HETATM    3  C3  UNL     1       9.265   2.703  16.961  1.00  0.00     0.336 C 
HETATM    4  C10 UNL     1       8.357   2.021  16.099  1.00  0.00     0.171 C 
HETATM    5  O5  UNL     1       7.007   2.051  16.622  1.00  0.00    -0.333 OA
HETATM    6  C18 UNL     1       6.328   3.102  16.008  1.00  0.00     0.211 C 
HETATM    7  C19 UNL     1       6.536   4.374  16.791  1.00  0.00     0.173 C 
ENDROOT
BRANCH   3   8
HETATM    8  O2  UNL     1      10.070   1.919  17.813  1.00  0.00    -0.346 OA
BRANCH   8   9
HETATM    9  C4  UNL     1      11.345   1.702  17.308  1.00  0.00     0.157 C 
HETATM   10  C5  UNL     1      12.296   1.644  18.471  1.00  0.00     0.067 C 
HETATM   11  C6  UNL     1      13.138   0.434  18.593  1.00  0.00     0.186 C 
HETATM   12  C7  UNL     1      12.437  -0.797  18.127  1.00  0.00     0.035 C 
HETATM   13  C8  UNL     1      12.081  -0.641  16.687  1.00  0.00     0.037 C 
HETATM   14  C9  UNL     1      11.440   0.641  16.304  1.00  0.00     0.212 C 
BRANCH  11  15
HETATM   15  N2  UNL     1      14.443   0.612  17.975  1.00  0.00    -0.075 N 
ATOM     16  H23 UNL     1      14.357   0.794  16.975  1.00  0.00     0.274 HD
ATOM     17  H22 UNL     1      14.872   1.491  18.264  1.00  0.00     0.274 HD
ATOM     18  H21 UNL     1      15.063  -0.178  18.155  1.00  0.00     0.274 HD
ENDBRANCH  11  15
BRANCH  14  19
HETATM   19  N3  UNL     1      12.150   1.131  15.099  1.00  0.00    -0.073 N 
ATOM     20  H33 UNL     1      13.113   0.796  15.065  1.00  0.00     0.274 HD
ATOM     21  H32 UNL     1      11.805   0.686  14.248  1.00  0.00     0.274 HD
ATOM     22  H31 UNL     1      12.099   2.148  15.045  1.00  0.00     0.274 HD
ENDBRANCH  14  19
ENDBRANCH   8   9
ENDBRANCH   3   8
BRANCH   4  23
HETATM   23  N4  UNL     1       8.284   1.957  14.710  1.00  0.00    -0.366 N 
ATOM     24  H4  UNL     1       8.016   2.767  14.152  1.00  0.00     0.161 HD
BRANCH  23  25
HETATM   25  C11 UNL     1       8.612   0.668  14.086  1.00  0.00     0.161 C 
BRANCH  25  26
HETATM   26  C12 UNL     1       7.681   0.569  12.902  1.00  0.00    -0.017 A 
HETATM   27  C13 UNL     1       6.342   0.196  13.113  1.00  0.00     0.010 A 
HETATM   28  C14 UNL     1       5.518  -0.123  12.075  1.00  0.00     0.001 A 
HETATM   29  C15 UNL     1       6.005  -0.079  10.785  1.00  0.00     0.002 A 
HETATM   30  C16 UNL     1       7.302   0.286  10.561  1.00  0.00     0.026 A 
HETATM   31  C17 UNL     1       8.145   0.619  11.644  1.00  0.00     0.087 A 
BRANCH  31  32
HETATM   32  S1  UNL     1       9.703   1.273  11.222  1.00  0.00     0.257 S 
HETATM   33  O3  UNL     1      10.792   0.283  11.405  1.00  0.00    -0.201 OA
HETATM   34  O4  UNL     1      10.044   2.513  12.017  1.00  0.00    -0.201 OA
BRANCH  32  35
HETATM   35  N5  UNL     1       9.590   1.702   9.531  1.00  0.00    -0.324 N 
ATOM     36  H52 UNL     1       8.919   2.346   9.113  1.00  0.00     0.169 HD
ATOM     37  H51 UNL     1      10.329   1.177   9.065  1.00  0.00     0.169 HD
ENDBRANCH  32  35
ENDBRANCH  31  32
ENDBRANCH  25  26
ENDBRANCH  23  25
ENDBRANCH   4  23
BRANCH   1  38
HETATM   38  C1  UNL     1       7.775   5.557  18.504  1.00  0.00     0.264 C 
BRANCH  38  39
HETATM   39  N1  UNL     1       7.207   6.743  17.913  1.00  0.00    -0.077 N 
ATOM     40  H13 UNL     1       7.635   7.602  18.260  1.00  0.00     0.274 HD
ATOM     41  H12 UNL     1       7.457   6.854  16.931  1.00  0.00     0.274 HD
ATOM     42  H11 UNL     1       6.199   6.715  18.065  1.00  0.00     0.274 HD
ENDBRANCH  38  39
ENDBRANCH   1  38
BRANCH   7  43
HETATM   43  O6  UNL     1       5.520   4.517  17.764  1.00  0.00    -0.391 OA
ATOM     44  H6  UNL     1       5.871   4.478  18.646  1.00  0.00     0.210 HD
ENDBRANCH   7  43
TORSDOF 12
ENDMDL
