MODEL 1
REMARK VINA RESULT: -9.051536340      0.000      0.000
REMARK  3 active torsions:
REMARK  status: ('A' for Active; 'I' for Inactive)
REMARK    1  A    between atoms: C2_2  and  N1_3 
REMARK    2  A    between atoms: C5_6  and  C6_7 
REMARK    3  A    between atoms: C7_8  and  C8_9 
ROOT
HETATM    1  C8  UNL     1      52.790  -8.184  66.039  1.00  0.00     0.112 A 
HETATM    2  C9  UNL     1      52.697  -7.001  65.324  1.00  0.00     0.101 A 
HETATM    3  N2  UNL     1      52.189  -5.852  65.970  1.00  0.00    -0.098 NA
HETATM    4  C10 UNL     1      53.095  -6.957  63.998  1.00  0.00     0.104 A 
HETATM    5  N3  UNL     1      53.119  -5.972  63.075  1.00  0.00    -0.348 N 
ATOM      6  H3  UNL     1      52.812  -5.015  63.245  1.00  0.00     0.167 HD
HETATM    7  C11 UNL     1      53.597  -6.416  61.912  1.00  0.00     0.182 A 
HETATM    8  N4  UNL     1      53.891  -7.725  62.091  1.00  0.00    -0.337 N 
ATOM      9  H4  UNL     1      54.278  -8.348  61.382  1.00  0.00     0.168 HD
HETATM   10  C12 UNL     1      53.590  -8.069  63.354  1.00  0.00     0.138 A 
HETATM   11  N5  UNL     1      53.674  -9.213  64.071  1.00  0.00    -0.306 N 
ATOM     12  H5  UNL     1      54.038 -10.052  63.620  1.00  0.00     0.170 HD
HETATM   13  C13 UNL     1      53.291  -9.280  65.364  1.00  0.00     0.267 A 
HETATM   14  O1  UNL     1      53.410 -10.404  65.947  1.00  0.00    -0.266 OA
ENDROOT
BRANCH   1  15
HETATM   15  C7  UNL     1      52.385  -8.269  67.421  1.00  0.00    -0.053 C 
HETATM   16  C6  UNL     1      52.047  -8.348  68.576  1.00  0.00    -0.053 C 
BRANCH  16  17
HETATM   17  C5  UNL     1      51.632  -8.457  69.958  1.00  0.00     0.108 A 
HETATM   18  C3  UNL     1      51.259  -7.344  70.696  1.00  0.00     0.036 A 
HETATM   19  N1  UNL     1      50.871  -7.430  71.981  1.00  0.00    -0.302 N 
HETATM   20  C4  UNL     1      51.297  -6.034  70.036  1.00  0.00     0.070 C 
HETATM   21  C16 UNL     1      50.854  -8.653  72.542  1.00  0.00     0.331 A 
HETATM   22  N6  UNL     1      51.210  -9.763  71.856  1.00  0.00    -0.269 N 
HETATM   23  O3  UNL     1      50.503  -8.812  73.737  1.00  0.00    -0.246 OA
HETATM   24  C14 UNL     1      51.601  -9.683  70.564  1.00  0.00     0.272 A 
HETATM   25  C15 UNL     1      51.187 -11.077  72.472  1.00  0.00     0.164 C 
HETATM   26  O2  UNL     1      51.927 -10.726  69.945  1.00  0.00    -0.266 OA
BRANCH  19  27
HETATM   27  C2  UNL     1      50.485  -6.278  72.747  1.00  0.00     0.129 C 
HETATM   28  C1  UNL     1      51.612  -5.701  73.568  1.00  0.00     0.027 C 
ENDBRANCH  19  27
ENDBRANCH  16  17
ENDBRANCH   1  15
TORSDOF 3
ENDMDL
MODEL 2
REMARK VINA RESULT: -8.756751359      1.259      2.376
REMARK  3 active torsions:
REMARK  status: ('A' for Active; 'I' for Inactive)
REMARK    1  A    between atoms: C2_2  and  N1_3 
REMARK    2  A    between atoms: C5_6  and  C6_7 
REMARK    3  A    between atoms: C7_8  and  C8_9 
ROOT
HETATM    1  C8  UNL     1      52.953  -8.023  65.761  1.00  0.00     0.112 A 
HETATM    2  C9  UNL     1      52.817  -6.863  65.016  1.00  0.00     0.101 A 
HETATM    3  N2  UNL     1      52.334  -5.697  65.650  1.00  0.00    -0.098 NA
HETATM    4  C10 UNL     1      53.153  -6.858  63.671  1.00  0.00     0.104 A 
HETATM    5  N3  UNL     1      53.126  -5.902  62.718  1.00  0.00    -0.348 N 
ATOM      6  H3  UNL     1      52.821  -4.941  62.873  1.00  0.00     0.167 HD
HETATM    7  C11 UNL     1      53.551  -6.379  61.549  1.00  0.00     0.182 A 
HETATM    8  N4  UNL     1      53.862  -7.681  61.753  1.00  0.00    -0.337 N 
ATOM      9  H4  UNL     1      54.219  -8.324  61.047  1.00  0.00     0.168 HD
HETATM   10  C12 UNL     1      53.624  -7.987  63.040  1.00  0.00     0.138 A 
HETATM   11  N5  UNL     1      53.749  -9.108  63.786  1.00  0.00    -0.306 N 
ATOM     12  H5  UNL     1      54.097  -9.959  63.345  1.00  0.00     0.170 HD
HETATM   13  C13 UNL     1      53.428  -9.136  65.098  1.00  0.00     0.267 A 
HETATM   14  O1  UNL     1      53.581 -10.241  65.709  1.00  0.00    -0.266 OA
ENDROOT
BRANCH   1  15
HETATM   15  C7  UNL     1      52.613  -8.066  67.163  1.00  0.00    -0.053 C 
HETATM   16  C6  UNL     1      52.325  -8.109  68.334  1.00  0.00    -0.053 C 
BRANCH  16  17
HETATM   17  C5  UNL     1      51.961  -8.163  69.733  1.00  0.00     0.108 A 
HETATM   18  C3  UNL     1      52.299  -9.244  70.532  1.00  0.00     0.036 A 
HETATM   19  N1  UNL     1      51.968  -9.308  71.835  1.00  0.00    -0.302 N 
HETATM   20  C4  UNL     1      53.043 -10.350  69.919  1.00  0.00     0.070 C 
HETATM   21  C16 UNL     1      51.286  -8.269  72.351  1.00  0.00     0.331 A 
HETATM   22  N6  UNL     1      50.937  -7.196  71.605  1.00  0.00    -0.269 N 
HETATM   23  O3  UNL     1      50.942  -8.257  73.559  1.00  0.00    -0.246 OA
HETATM   24  C14 UNL     1      51.267  -7.126  70.295  1.00  0.00     0.272 A 
HETATM   25  C15 UNL     1      50.201  -6.082  72.173  1.00  0.00     0.164 C 
HETATM   26  O2  UNL     1      50.934  -6.121  69.621  1.00  0.00    -0.266 OA
BRANCH  19  27
HETATM   27  C2  UNL     1      52.317 -10.428  72.664  1.00  0.00     0.129 C 
HETATM   28  C1  UNL     1      53.626 -10.247  73.391  1.00  0.00     0.027 C 
ENDBRANCH  19  27
ENDBRANCH  16  17
ENDBRANCH   1  15
TORSDOF 3
ENDMDL
MODEL 3
REMARK VINA RESULT: -8.730363626      1.254      1.858
REMARK  3 active torsions:
REMARK  status: ('A' for Active; 'I' for Inactive)
REMARK    1  A    between atoms: C2_2  and  N1_3 
REMARK    2  A    between atoms: C5_6  and  C6_7 
REMARK    3  A    between atoms: C7_8  and  C8_9 
ROOT
HETATM    1  C8  UNL     1      52.596  -7.640  66.013  1.00  0.00     0.112 A 
HETATM    2  C9  UNL     1      53.020  -8.664  65.180  1.00  0.00     0.101 A 
HETATM    3  N2  UNL     1      53.104  -9.975  65.699  1.00  0.00    -0.098 NA
HETATM    4  C10 UNL     1      53.356  -8.394  63.863  1.00  0.00     0.104 A 
HETATM    5  N3  UNL     1      53.789  -9.168  62.846  1.00  0.00    -0.348 N 
ATOM      6  H3  UNL     1      53.948 -10.173  62.913  1.00  0.00     0.167 HD
HETATM    7  C11 UNL     1      53.982  -8.446  61.742  1.00  0.00     0.182 A 
HETATM    8  N4  UNL     1      53.663  -7.169  62.057  1.00  0.00    -0.337 N 
ATOM      9  H4  UNL     1      53.705  -6.373  61.420  1.00  0.00     0.168 HD
HETATM   10  C12 UNL     1      53.281  -7.122  63.344  1.00  0.00     0.138 A 
HETATM   11  N5  UNL     1      52.864  -6.138  64.173  1.00  0.00    -0.306 N 
ATOM     12  H5  UNL     1      52.797  -5.185  63.815  1.00  0.00     0.170 HD
HETATM   13  C13 UNL     1      52.532  -6.376  65.460  1.00  0.00     0.267 A 
HETATM   14  O1  UNL     1      52.153  -5.381  66.156  1.00  0.00    -0.266 OA
ENDROOT
BRANCH   1  15
HETATM   15  C7  UNL     1      52.239  -7.882  67.390  1.00  0.00    -0.053 C 
HETATM   16  C6  UNL     1      51.932  -8.081  68.539  1.00  0.00    -0.053 C 
BRANCH  16  17
HETATM   17  C5  UNL     1      51.557  -8.303  69.919  1.00  0.00     0.108 A 
HETATM   18  C3  UNL     1      51.182  -7.259  70.749  1.00  0.00     0.036 A 
HETATM   19  N1  UNL     1      50.831  -7.450  72.033  1.00  0.00    -0.302 N 
HETATM   20  C4  UNL     1      51.172  -5.902  70.189  1.00  0.00     0.070 C 
HETATM   21  C16 UNL     1      50.856  -8.712  72.500  1.00  0.00     0.331 A 
HETATM   22  N6  UNL     1      51.217  -9.759  71.722  1.00  0.00    -0.269 N 
HETATM   23  O3  UNL     1      50.542  -8.969  73.688  1.00  0.00    -0.246 OA
HETATM   24  C14 UNL     1      51.570  -9.572  70.430  1.00  0.00     0.272 A 
HETATM   25  C15 UNL     1      51.240 -11.115  72.237  1.00  0.00     0.164 C 
HETATM   26  O2  UNL     1      51.902 -10.558  69.726  1.00  0.00    -0.266 OA
BRANCH  19  27
HETATM   27  C2  UNL     1      50.442  -6.368  72.894  1.00  0.00     0.129 C 
HETATM   28  C1  UNL     1      51.587  -5.800  73.696  1.00  0.00     0.027 C 
ENDBRANCH  19  27
ENDBRANCH  16  17
ENDBRANCH   1  15
TORSDOF 3
ENDMDL
MODEL 4
REMARK VINA RESULT: -8.316208779      1.693      3.108
REMARK  3 active torsions:
REMARK  status: ('A' for Active; 'I' for Inactive)
REMARK    1  A    between atoms: C2_2  and  N1_3 
REMARK    2  A    between atoms: C5_6  and  C6_7 
REMARK    3  A    between atoms: C7_8  and  C8_9 
ROOT
HETATM    1  C8  UNL     1      52.762  -7.542  65.673  1.00  0.00     0.112 A 
HETATM    2  C9  UNL     1      53.162  -8.587  64.855  1.00  0.00     0.101 A 
HETATM    3  N2  UNL     1      53.268  -9.883  65.406  1.00  0.00    -0.098 NA
HETATM    4  C10 UNL     1      53.452  -8.352  63.521  1.00  0.00     0.104 A 
HETATM    5  N3  UNL     1      53.854  -9.152  62.510  1.00  0.00    -0.348 N 
ATOM      6  H3  UNL     1      54.019 -10.155  62.599  1.00  0.00     0.167 HD
HETATM    7  C11 UNL     1      54.007  -8.460  61.382  1.00  0.00     0.182 A 
HETATM    8  N4  UNL     1      53.694  -7.175  61.672  1.00  0.00    -0.337 N 
ATOM      9  H4  UNL     1      53.711  -6.396  61.014  1.00  0.00     0.168 HD
HETATM   10  C12 UNL     1      53.355  -7.094  62.970  1.00  0.00     0.138 A 
HETATM   11  N5  UNL     1      52.962  -6.090  63.786  1.00  0.00    -0.306 N 
ATOM     12  H5  UNL     1      52.880  -5.147  63.405  1.00  0.00     0.170 HD
HETATM   13  C13 UNL     1      52.675  -6.294  65.089  1.00  0.00     0.267 A 
HETATM   14  O1  UNL     1      52.315  -5.282  65.771  1.00  0.00    -0.266 OA
ENDROOT
BRANCH   1  15
HETATM   15  C7  UNL     1      52.452  -7.749  67.067  1.00  0.00    -0.053 C 
HETATM   16  C6  UNL     1      52.185  -7.917  68.231  1.00  0.00    -0.053 C 
BRANCH  16  17
HETATM   17  C5  UNL     1      51.858  -8.102  69.629  1.00  0.00     0.108 A 
HETATM   18  C3  UNL     1      52.180  -9.270  70.303  1.00  0.00     0.036 A 
HETATM   19  N1  UNL     1      51.883  -9.457  71.602  1.00  0.00    -0.302 N 
HETATM   20  C4  UNL     1      52.868 -10.331  69.557  1.00  0.00     0.070 C 
HETATM   21  C16 UNL     1      51.252  -8.455  72.242  1.00  0.00     0.331 A 
HETATM   22  N6  UNL     1      50.921  -7.300  71.620  1.00  0.00    -0.269 N 
HETATM   23  O3  UNL     1      50.942  -8.556  73.455  1.00  0.00    -0.246 OA
HETATM   24  C14 UNL     1      51.217  -7.108  70.315  1.00  0.00     0.272 A 
HETATM   25  C15 UNL     1      50.239  -6.228  72.321  1.00  0.00     0.164 C 
HETATM   26  O2  UNL     1      50.901  -6.028  69.756  1.00  0.00    -0.266 OA
BRANCH  19  27
HETATM   27  C2  UNL     1      52.215 -10.666  72.302  1.00  0.00     0.129 C 
HETATM   28  C1  UNL     1      51.100 -11.682  72.302  1.00  0.00     0.027 C 
ENDBRANCH  19  27
ENDBRANCH  16  17
ENDBRANCH   1  15
TORSDOF 3
ENDMDL
MODEL 5
REMARK VINA RESULT: -8.122122836      1.547      1.722
REMARK  3 active torsions:
REMARK  status: ('A' for Active; 'I' for Inactive)
REMARK    1  A    between atoms: C2_2  and  N1_3 
REMARK    2  A    between atoms: C5_6  and  C6_7 
REMARK    3  A    between atoms: C7_8  and  C8_9 
ROOT
HETATM    1  C8  UNL     1      53.010  -8.686  67.152  1.00  0.00     0.112 A 
HETATM    2  C9  UNL     1      52.499  -7.807  66.211  1.00  0.00     0.101 A 
HETATM    3  N2  UNL     1      51.685  -6.738  66.647  1.00  0.00    -0.098 NA
HETATM    4  C10 UNL     1      52.786  -7.984  64.867  1.00  0.00     0.104 A 
HETATM    5  N3  UNL     1      52.438  -7.306  63.753  1.00  0.00    -0.348 N 
ATOM      6  H3  UNL     1      51.848  -6.474  63.745  1.00  0.00     0.167 HD
HETATM    7  C11 UNL     1      52.966  -7.866  62.665  1.00  0.00     0.182 A 
HETATM    8  N4  UNL     1      53.677  -8.937  63.090  1.00  0.00    -0.337 N 
ATOM      9  H4  UNL     1      54.203  -9.574  62.493  1.00  0.00     0.168 HD
HETATM   10  C12 UNL     1      53.576  -9.022  64.427  1.00  0.00     0.138 A 
HETATM   11  N5  UNL     1      54.065  -9.868  65.363  1.00  0.00    -0.306 N 
ATOM     12  H5  UNL     1      54.654 -10.646  65.066  1.00  0.00     0.170 HD
HETATM   13  C13 UNL     1      53.799  -9.716  66.678  1.00  0.00     0.267 A 
HETATM   14  O1  UNL     1      54.307 -10.566  67.475  1.00  0.00    -0.266 OA
ENDROOT
BRANCH   1  15
HETATM   15  C7  UNL     1      52.733  -8.534  68.560  1.00  0.00    -0.053 C 
HETATM   16  C6  UNL     1      52.504  -8.398  69.736  1.00  0.00    -0.053 C 
BRANCH  16  17
HETATM   17  C5  UNL     1      52.245  -8.228  71.150  1.00  0.00     0.108 A 
HETATM   18  C3  UNL     1      51.364  -7.266  71.618  1.00  0.00     0.036 A 
HETATM   19  N1  UNL     1      51.113  -7.096  72.929  1.00  0.00    -0.302 N 
HETATM   20  C4  UNL     1      50.689  -6.410  70.634  1.00  0.00     0.070 C 
HETATM   21  C16 UNL     1      51.756  -7.904  73.791  1.00  0.00     0.331 A 
HETATM   22  N6  UNL     1      52.623  -8.855  73.375  1.00  0.00    -0.269 N 
HETATM   23  O3  UNL     1      51.573  -7.805  75.030  1.00  0.00    -0.246 OA
HETATM   24  C14 UNL     1      52.879  -9.030  72.058  1.00  0.00     0.272 A 
HETATM   25  C15 UNL     1      53.311  -9.721  74.315  1.00  0.00     0.164 C 
HETATM   26  O2  UNL     1      53.688  -9.919  71.693  1.00  0.00    -0.266 OA
BRANCH  19  27
HETATM   27  C2  UNL     1      50.200  -6.099  73.415  1.00  0.00     0.129 C 
HETATM   28  C1  UNL     1      48.798  -6.620  73.614  1.00  0.00     0.027 C 
ENDBRANCH  19  27
ENDBRANCH  16  17
ENDBRANCH   1  15
TORSDOF 3
ENDMDL
