MODEL 1
REMARK VINA RESULT: -7.494753278      0.000      0.000
REMARK  5 active torsions:
REMARK  status: ('A' for Active; 'I' for Inactive)
REMARK    1  A    between atoms: C2_3  and  S1_16 
REMARK    2  A    between atoms: N2_4  and  N3_6 
REMARK    3  A    between atoms: N3_6  and  C3_8 
REMARK    4  A    between atoms: S1_16  and  C10_17 
REMARK    5  A    between atoms: C12_20  and  N5_21 
ROOT
HETATM    1  N1  UNL     1      43.751  35.000  58.211  1.00  0.00    -0.189 NA
HETATM    2  C1  UNL     1      43.566  33.908  57.851  1.00  0.00     0.127 C 
HETATM    3  C2  UNL     1      43.325  32.571  57.420  1.00  0.00     0.172 C 
HETATM    4  N2  UNL     1      44.245  31.708  57.467  1.00  0.00    -0.284 N 
ATOM      5  H2  UNL     1      45.152  32.013  57.821  1.00  0.00     0.188 HD
ENDROOT
BRANCH   3   6
HETATM    6  S1  UNL     1      41.714  32.135  56.819  1.00  0.00    -0.042 SA
BRANCH   6   7
HETATM    7  C10 UNL     1      40.927  30.938  57.962  1.00  0.00     0.085 A 
HETATM    8  C11 UNL     1      41.436  30.791  59.229  1.00  0.00     0.090 A 
HETATM    9  S2  UNL     1      40.404  29.606  59.891  1.00  0.00    -0.064 SA
HETATM   10  C12 UNL     1      39.397  29.364  58.543  1.00  0.00     0.142 A 
HETATM   11  N6  UNL     1      39.898  30.210  57.634  1.00  0.00    -0.331 N 
ATOM     12  H6  UNL     1      39.483  30.282  56.705  1.00  0.00     0.168 HD
BRANCH  10  13
HETATM   13  N5  UNL     1      38.372  28.554  58.400  1.00  0.00    -0.380 N 
ATOM     14  H52 UNL     1      38.108  27.777  59.005  1.00  0.00     0.158 HD
ATOM     15  H51 UNL     1      37.652  28.539  57.677  1.00  0.00     0.158 HD
ENDBRANCH  10  13
ENDBRANCH   6   7
ENDBRANCH   3   6
BRANCH   4  16
HETATM   16  N3  UNL     1      44.132  30.393  57.082  1.00  0.00    -0.298 N 
ATOM     17  H3  UNL     1      43.304  29.903  57.421  1.00  0.00     0.187 HD
BRANCH  16  18
HETATM   18  C3  UNL     1      44.997  29.641  56.292  1.00  0.00     0.068 A 
HETATM   19  C4  UNL     1      45.939  28.790  56.880  1.00  0.00     0.032 A 
HETATM   20  C5  UNL     1      46.810  28.032  56.162  1.00  0.00     0.002 A 
HETATM   21  C6  UNL     1      46.764  28.103  54.782  1.00  0.00     0.002 A 
HETATM   22  C7  UNL     1      45.863  28.919  54.136  1.00  0.00     0.025 A 
HETATM   23  C8  UNL     1      44.990  29.678  54.927  1.00  0.00     0.072 A 
HETATM   24  C9  UNL     1      44.061  30.520  54.219  1.00  0.00     0.102 C 
HETATM   25  N4  UNL     1      43.323  31.189  53.627  1.00  0.00    -0.191 NA
ENDBRANCH  16  18
ENDBRANCH   4  16
TORSDOF 5
ENDMDL
MODEL 2
REMARK VINA RESULT: -7.228678860      1.082      2.297
REMARK  5 active torsions:
REMARK  status: ('A' for Active; 'I' for Inactive)
REMARK    1  A    between atoms: C2_3  and  S1_16 
REMARK    2  A    between atoms: N2_4  and  N3_6 
REMARK    3  A    between atoms: N3_6  and  C3_8 
REMARK    4  A    between atoms: S1_16  and  C10_17 
REMARK    5  A    between atoms: C12_20  and  N5_21 
ROOT
HETATM    1  N1  UNL     1      43.793  34.512  58.070  1.00  0.00    -0.189 NA
HETATM    2  C1  UNL     1      43.686  33.409  57.713  1.00  0.00     0.127 C 
HETATM    3  C2  UNL     1      43.540  32.057  57.285  1.00  0.00     0.172 C 
HETATM    4  N2  UNL     1      44.486  31.234  57.430  1.00  0.00    -0.284 N 
ATOM      5  H2  UNL     1      45.343  31.581  57.861  1.00  0.00     0.188 HD
ENDROOT
BRANCH   3   6
HETATM    6  S1  UNL     1      42.010  31.546  56.546  1.00  0.00    -0.042 SA
BRANCH   6   7
HETATM    7  C10 UNL     1      41.023  30.590  57.759  1.00  0.00     0.085 A 
HETATM    8  C11 UNL     1      41.519  30.404  59.026  1.00  0.00     0.090 A 
HETATM    9  S2  UNL     1      40.285  29.486  59.759  1.00  0.00    -0.064 SA
HETATM   10  C12 UNL     1      39.220  29.389  58.438  1.00  0.00     0.142 A 
HETATM   11  N6  UNL     1      39.861  30.071  57.481  1.00  0.00    -0.331 N 
ATOM     12  H6  UNL     1      39.449  30.181  56.554  1.00  0.00     0.168 HD
BRANCH  10  13
HETATM   13  N5  UNL     1      38.049  28.798  58.349  1.00  0.00    -0.380 N 
ATOM     14  H52 UNL     1      37.459  28.475  59.115  1.00  0.00     0.158 HD
ATOM     15  H51 UNL     1      37.509  28.549  57.521  1.00  0.00     0.158 HD
ENDBRANCH  10  13
ENDBRANCH   6   7
ENDBRANCH   3   6
BRANCH   4  16
HETATM   16  N3  UNL     1      44.461  29.910  57.059  1.00  0.00    -0.298 N 
ATOM     17  H3  UNL     1      43.700  29.355  57.450  1.00  0.00     0.187 HD
BRANCH  16  18
HETATM   18  C3  UNL     1      45.338  29.227  56.221  1.00  0.00     0.068 A 
HETATM   19  C4  UNL     1      45.353  29.484  54.845  1.00  0.00     0.032 A 
HETATM   20  C5  UNL     1      46.184  28.850  53.976  1.00  0.00     0.002 A 
HETATM   21  C6  UNL     1      47.059  27.903  54.474  1.00  0.00     0.002 A 
HETATM   22  C7  UNL     1      47.099  27.599  55.816  1.00  0.00     0.025 A 
HETATM   23  C8  UNL     1      46.219  28.284  56.664  1.00  0.00     0.072 A 
HETATM   24  C9  UNL     1      46.288  27.941  58.061  1.00  0.00     0.102 C 
HETATM   25  N4  UNL     1      46.361  27.648  59.180  1.00  0.00    -0.191 NA
ENDBRANCH  16  18
ENDBRANCH   4  16
TORSDOF 5
ENDMDL
MODEL 3
REMARK VINA RESULT: -7.184435711      2.846      6.194
REMARK  5 active torsions:
REMARK  status: ('A' for Active; 'I' for Inactive)
REMARK    1  A    between atoms: C2_3  and  S1_16 
REMARK    2  A    between atoms: N2_4  and  N3_6 
REMARK    3  A    between atoms: N3_6  and  C3_8 
REMARK    4  A    between atoms: S1_16  and  C10_17 
REMARK    5  A    between atoms: C12_20  and  N5_21 
ROOT
HETATM    1  N1  UNL     1      45.666  27.825  57.598  1.00  0.00    -0.189 NA
HETATM    2  C1  UNL     1      44.901  28.437  58.229  1.00  0.00     0.127 C 
HETATM    3  C2  UNL     1      43.979  29.189  59.012  1.00  0.00     0.172 C 
HETATM    4  N2  UNL     1      42.893  28.671  59.396  1.00  0.00    -0.284 N 
ATOM      5  H2  UNL     1      42.715  27.705  59.120  1.00  0.00     0.188 HD
ENDROOT
BRANCH   3   6
HETATM    6  S1  UNL     1      44.376  30.864  59.443  1.00  0.00    -0.042 SA
BRANCH   6   7
HETATM    7  C10 UNL     1      43.607  32.014  58.239  1.00  0.00     0.085 A 
HETATM    8  C11 UNL     1      44.408  32.883  57.541  1.00  0.00     0.090 A 
HETATM    9  S2  UNL     1      43.273  33.717  56.580  1.00  0.00    -0.064 SA
HETATM   10  C12 UNL     1      41.864  32.928  57.109  1.00  0.00     0.142 A 
HETATM   11  N6  UNL     1      42.326  32.050  58.008  1.00  0.00    -0.331 N 
ATOM     12  H6  UNL     1      41.689  31.424  58.501  1.00  0.00     0.168 HD
BRANCH  10  13
HETATM   13  N5  UNL     1      40.615  33.112  56.743  1.00  0.00    -0.380 N 
ATOM     14  H52 UNL     1      40.116  33.998  56.668  1.00  0.00     0.158 HD
ATOM     15  H51 UNL     1      39.911  32.427  56.467  1.00  0.00     0.158 HD
ENDBRANCH  10  13
ENDBRANCH   6   7
ENDBRANCH   3   6
BRANCH   4  16
HETATM   16  N3  UNL     1      41.930  29.295  60.153  1.00  0.00    -0.298 N 
ATOM     17  H3  UNL     1      42.205  30.181  60.577  1.00  0.00     0.187 HD
BRANCH  16  18
HETATM   18  C3  UNL     1      40.628  28.879  60.419  1.00  0.00     0.068 A 
HETATM   19  C4  UNL     1      40.302  28.311  61.655  1.00  0.00     0.032 A 
HETATM   20  C5  UNL     1      39.050  27.885  61.974  1.00  0.00     0.002 A 
HETATM   21  C6  UNL     1      38.049  28.019  61.030  1.00  0.00     0.002 A 
HETATM   22  C7  UNL     1      38.298  28.568  59.793  1.00  0.00     0.025 A 
HETATM   23  C8  UNL     1      39.606  28.989  59.521  1.00  0.00     0.072 A 
HETATM   24  C9  UNL     1      39.832  29.559  58.217  1.00  0.00     0.102 C 
HETATM   25  N4  UNL     1      39.989  30.013  57.163  1.00  0.00    -0.191 NA
ENDBRANCH  16  18
ENDBRANCH   4  16
TORSDOF 5
ENDMDL
MODEL 4
REMARK VINA RESULT: -7.120031913      2.465      6.645
REMARK  5 active torsions:
REMARK  status: ('A' for Active; 'I' for Inactive)
REMARK    1  A    between atoms: C2_3  and  S1_16 
REMARK    2  A    between atoms: N2_4  and  N3_6 
REMARK    3  A    between atoms: N3_6  and  C3_8 
REMARK    4  A    between atoms: S1_16  and  C10_17 
REMARK    5  A    between atoms: C12_20  and  N5_21 
ROOT
HETATM    1  N1  UNL     1      41.206  33.633  56.941  1.00  0.00    -0.189 NA
HETATM    2  C1  UNL     1      41.274  32.576  57.427  1.00  0.00     0.127 C 
HETATM    3  C2  UNL     1      41.371  31.280  58.011  1.00  0.00     0.172 C 
HETATM    4  N2  UNL     1      40.364  30.520  58.054  1.00  0.00    -0.284 N 
ATOM      5  H2  UNL     1      39.494  30.877  57.657  1.00  0.00     0.188 HD
ENDROOT
BRANCH   3   6
HETATM    6  S1  UNL     1      42.927  30.748  58.677  1.00  0.00    -0.042 SA
BRANCH   6   7
HETATM    7  C10 UNL     1      44.025  30.191  57.319  1.00  0.00     0.085 A 
HETATM    8  C11 UNL     1      43.907  30.775  56.082  1.00  0.00     0.090 A 
HETATM    9  S2  UNL     1      45.100  29.951  55.185  1.00  0.00    -0.064 SA
HETATM   10  C12 UNL     1      45.675  28.924  56.411  1.00  0.00     0.142 A 
HETATM   11  N6  UNL     1      44.923  29.258  57.466  1.00  0.00    -0.331 N 
ATOM     12  H6  UNL     1      45.049  28.793  58.365  1.00  0.00     0.168 HD
BRANCH  10  13
HETATM   13  N5  UNL     1      46.624  28.015  56.363  1.00  0.00    -0.380 N 
ATOM     14  H52 UNL     1      47.280  27.844  55.601  1.00  0.00     0.158 HD
ATOM     15  H51 UNL     1      46.890  27.316  57.058  1.00  0.00     0.158 HD
ENDBRANCH  10  13
ENDBRANCH   6   7
ENDBRANCH   3   6
BRANCH   4  16
HETATM   16  N3  UNL     1      40.336  29.254  58.589  1.00  0.00    -0.298 N 
ATOM     17  H3  UNL     1      40.817  28.535  58.049  1.00  0.00     0.187 HD
BRANCH  16  18
HETATM   18  C3  UNL     1      39.739  28.822  59.770  1.00  0.00     0.068 A 
HETATM   19  C4  UNL     1      40.511  28.588  60.914  1.00  0.00     0.032 A 
HETATM   20  C5  UNL     1      39.986  28.166  62.095  1.00  0.00     0.002 A 
HETATM   21  C6  UNL     1      38.622  27.958  62.173  1.00  0.00     0.002 A 
HETATM   22  C7  UNL     1      37.802  28.168  61.088  1.00  0.00     0.025 A 
HETATM   23  C8  UNL     1      38.398  28.602  59.897  1.00  0.00     0.072 A 
HETATM   24  C9  UNL     1      37.510  28.813  58.783  1.00  0.00     0.102 C 
HETATM   25  N4  UNL     1      36.776  28.974  57.900  1.00  0.00    -0.191 NA
ENDBRANCH  16  18
ENDBRANCH   4  16
TORSDOF 5
ENDMDL
MODEL 5
REMARK VINA RESULT: -7.118390966      2.569      6.709
REMARK  5 active torsions:
REMARK  status: ('A' for Active; 'I' for Inactive)
REMARK    1  A    between atoms: C2_3  and  S1_16 
REMARK    2  A    between atoms: N2_4  and  N3_6 
REMARK    3  A    between atoms: N3_6  and  C3_8 
REMARK    4  A    between atoms: S1_16  and  C10_17 
REMARK    5  A    between atoms: C12_20  and  N5_21 
ROOT
HETATM    1  N1  UNL     1      41.527  33.916  57.533  1.00  0.00    -0.189 NA
HETATM    2  C1  UNL     1      41.499  32.767  57.720  1.00  0.00     0.127 C 
HETATM    3  C2  UNL     1      41.467  31.358  57.931  1.00  0.00     0.172 C 
HETATM    4  N2  UNL     1      40.538  30.832  58.606  1.00  0.00    -0.284 N 
ATOM      5  H2  UNL     1      39.827  31.458  58.985  1.00  0.00     0.188 HD
ENDROOT
BRANCH   3   6
HETATM    6  S1  UNL     1      42.749  30.350  57.232  1.00  0.00    -0.042 SA
BRANCH   6   7
HETATM    7  C10 UNL     1      43.619  31.280  55.913  1.00  0.00     0.085 A 
HETATM    8  C11 UNL     1      44.898  31.723  56.141  1.00  0.00     0.090 A 
HETATM    9  S2  UNL     1      45.269  32.506  54.672  1.00  0.00    -0.064 SA
HETATM   10  C12 UNL     1      43.802  32.231  53.860  1.00  0.00     0.142 A 
HETATM   11  N6  UNL     1      43.082  31.545  54.756  1.00  0.00    -0.331 N 
ATOM     12  H6  UNL     1      42.134  31.237  54.538  1.00  0.00     0.168 HD
BRANCH  10  13
HETATM   13  N5  UNL     1      43.436  32.592  52.650  1.00  0.00    -0.380 N 
ATOM     14  H52 UNL     1      42.595  32.309  52.147  1.00  0.00     0.158 HD
ATOM     15  H51 UNL     1      43.904  33.210  51.986  1.00  0.00     0.158 HD
ENDBRANCH  10  13
ENDBRANCH   6   7
ENDBRANCH   3   6
BRANCH   4  16
HETATM   16  N3  UNL     1      40.401  29.491  58.875  1.00  0.00    -0.298 N 
ATOM     17  H3  UNL     1      40.808  28.858  58.186  1.00  0.00     0.187 HD
BRANCH  16  18
HETATM   18  C3  UNL     1      39.782  28.881  59.962  1.00  0.00     0.068 A 
HETATM   19  C4  UNL     1      40.510  28.582  61.120  1.00  0.00     0.032 A 
HETATM   20  C5  UNL     1      39.961  27.988  62.213  1.00  0.00     0.002 A 
HETATM   21  C6  UNL     1      38.619  27.663  62.182  1.00  0.00     0.002 A 
HETATM   22  C7  UNL     1      37.842  27.927  61.077  1.00  0.00     0.025 A 
HETATM   23  C8  UNL     1      38.460  28.541  59.980  1.00  0.00     0.072 A 
HETATM   24  C9  UNL     1      37.619  28.803  58.841  1.00  0.00     0.102 C 
HETATM   25  N4  UNL     1      36.921  29.004  57.937  1.00  0.00    -0.191 NA
ENDBRANCH  16  18
ENDBRANCH   4  16
TORSDOF 5
ENDMDL
