MODEL 1
REMARK VINA RESULT: -8.455891903      0.000      0.000
REMARK  3 active torsions:
REMARK  status: ('A' for Active; 'I' for Inactive)
REMARK    1  A    between atoms: C3_9  and  N5_10 
REMARK    2  A    between atoms: N5_10  and  C4_12 
REMARK    3  A    between atoms: C9_17  and  C10_18 
ROOT
HETATM    1  C4  UNL     1      42.237  31.478  57.626  1.00  0.00     0.056 A 
HETATM    2  C5  UNL     1      41.537  32.647  57.761  1.00  0.00     0.030 A 
HETATM    3  C6  UNL     1      42.196  33.881  57.815  1.00  0.00     0.002 A 
HETATM    4  C7  UNL     1      43.544  33.940  57.735  1.00  0.00     0.001 A 
HETATM    5  C8  UNL     1      44.272  32.779  57.599  1.00  0.00     0.010 A 
HETATM    6  C9  UNL     1      43.640  31.557  57.544  1.00  0.00    -0.027 A 
ENDROOT
BRANCH   1   7
HETATM    7  N5  UNL     1      41.605  30.220  57.549  1.00  0.00    -0.191 N 
ATOM      8  H5  UNL     1      41.904  29.627  56.774  1.00  0.00     0.184 HD
BRANCH   7   9
HETATM    9  C3  UNL     1      40.628  29.668  58.381  1.00  0.00     0.687 A 
HETATM   10  N4  UNL     1      40.776  29.196  59.617  1.00  0.00    -0.163 N 
HETATM   11  C2  UNL     1      39.834  28.680  60.392  1.00  0.00     0.209 A 
ATOM     12  H4  UNL     1      41.717  29.236  60.008  1.00  0.00     0.187 HD
HETATM   13  N2  UNL     1      38.585  28.629  59.860  1.00  0.00    -0.304 N 
HETATM   14  N3  UNL     1      40.002  28.185  61.707  1.00  0.00    -0.063 NA
HETATM   15  C1  UNL     1      38.375  29.090  58.618  1.00  0.00     0.209 A 
ATOM     16  H2  UNL     1      37.812  28.244  60.402  1.00  0.00     0.171 HD
HETATM   17  N1  UNL     1      37.034  29.015  58.093  1.00  0.00    -0.063 NA
HETATM   18  N6  UNL     1      39.349  29.593  57.894  1.00  0.00    -0.163 N 
ATOM     19  H6  UNL     1      39.151  29.933  56.953  1.00  0.00     0.187 HD
ENDBRANCH   7   9
ENDBRANCH   1   7
BRANCH   6  20
HETATM   20  C10 UNL     1      44.437  30.294  57.427  1.00  0.00     0.021 C 
HETATM   21  C11 UNL     1      45.243  30.378  56.147  1.00  0.00     0.009 C 
HETATM   22  C12 UNL     1      45.696  29.035  55.659  1.00  0.00     0.001 C 
HETATM   23  C13 UNL     1      46.437  28.237  56.691  1.00  0.00     0.000 C 
HETATM   24  C14 UNL     1      45.586  27.900  57.889  1.00  0.00     0.000 C 
HETATM   25  C15 UNL     1      45.862  28.919  58.956  1.00  0.00     0.001 C 
HETATM   26  C16 UNL     1      45.344  30.276  58.628  1.00  0.00     0.009 C 
ENDBRANCH   6  20
TORSDOF 3
ENDMDL
MODEL 2
REMARK VINA RESULT: -8.453538256      0.195      1.744
REMARK  3 active torsions:
REMARK  status: ('A' for Active; 'I' for Inactive)
REMARK    1  A    between atoms: C3_9  and  N5_10 
REMARK    2  A    between atoms: N5_10  and  C4_12 
REMARK    3  A    between atoms: C9_17  and  C10_18 
ROOT
HETATM    1  C4  UNL     1      42.362  31.586  57.562  1.00  0.00     0.056 A 
HETATM    2  C5  UNL     1      41.700  32.776  57.697  1.00  0.00     0.030 A 
HETATM    3  C6  UNL     1      42.400  33.981  57.829  1.00  0.00     0.002 A 
HETATM    4  C7  UNL     1      43.752  33.990  57.824  1.00  0.00     0.001 A 
HETATM    5  C8  UNL     1      44.442  32.806  57.690  1.00  0.00     0.010 A 
HETATM    6  C9  UNL     1      43.769  31.611  57.560  1.00  0.00    -0.027 A 
ENDROOT
BRANCH   1   7
HETATM    7  N5  UNL     1      41.688  30.356  57.408  1.00  0.00    -0.191 N 
ATOM      8  H5  UNL     1      42.014  29.772  56.638  1.00  0.00     0.184 HD
BRANCH   7   9
HETATM    9  C3  UNL     1      40.637  29.823  58.159  1.00  0.00     0.687 A 
HETATM   10  N4  UNL     1      39.366  29.673  57.795  1.00  0.00    -0.163 N 
HETATM   11  C2  UNL     1      38.384  29.161  58.522  1.00  0.00     0.209 A 
ATOM     12  H4  UNL     1      39.121  29.987  56.856  1.00  0.00     0.187 HD
HETATM   13  N2  UNL     1      38.718  28.748  59.772  1.00  0.00    -0.304 N 
HETATM   14  N3  UNL     1      37.035  29.001  58.123  1.00  0.00    -0.063 NA
HETATM   15  C1  UNL     1      39.985  28.875  60.194  1.00  0.00     0.209 A 
ATOM     16  H2  UNL     1      38.011  28.344  60.386  1.00  0.00     0.171 HD
HETATM   17  N1  UNL     1      40.296  28.426  61.528  1.00  0.00    -0.063 NA
HETATM   18  N6  UNL     1      40.920  29.391  59.428  1.00  0.00    -0.163 N 
ATOM     19  H6  UNL     1      41.872  29.472  59.784  1.00  0.00     0.187 HD
ENDBRANCH   7   9
ENDBRANCH   1   7
BRANCH   6  20
HETATM   20  C10 UNL     1      44.523  30.323  57.444  1.00  0.00     0.021 C 
HETATM   21  C11 UNL     1      45.313  30.369  56.152  1.00  0.00     0.009 C 
HETATM   22  C12 UNL     1      45.715  29.007  55.671  1.00  0.00     0.001 C 
HETATM   23  C13 UNL     1      46.445  28.195  56.700  1.00  0.00     0.000 C 
HETATM   24  C14 UNL     1      45.601  27.897  57.914  1.00  0.00     0.000 C 
HETATM   25  C15 UNL     1      45.925  28.917  58.966  1.00  0.00     0.001 C 
HETATM   26  C16 UNL     1      45.446  30.287  58.632  1.00  0.00     0.009 C 
ENDBRANCH   6  20
TORSDOF 3
ENDMDL
MODEL 3
REMARK VINA RESULT: -8.060627065      1.120      4.274
REMARK  3 active torsions:
REMARK  status: ('A' for Active; 'I' for Inactive)
REMARK    1  A    between atoms: C3_9  and  N5_10 
REMARK    2  A    between atoms: N5_10  and  C4_12 
REMARK    3  A    between atoms: C9_17  and  C10_18 
ROOT
HETATM    1  C4  UNL     1      43.784  29.196  58.909  1.00  0.00     0.056 A 
HETATM    2  C5  UNL     1      44.366  27.958  58.944  1.00  0.00     0.030 A 
HETATM    3  C6  UNL     1      45.339  27.589  58.007  1.00  0.00     0.002 A 
HETATM    4  C7  UNL     1      45.723  28.457  57.045  1.00  0.00     0.001 A 
HETATM    5  C8  UNL     1      45.154  29.710  56.988  1.00  0.00     0.010 A 
HETATM    6  C9  UNL     1      44.195  30.088  57.901  1.00  0.00    -0.027 A 
ENDROOT
BRANCH   1   7
HETATM    7  N5  UNL     1      42.815  29.606  59.849  1.00  0.00    -0.191 N 
ATOM      8  H5  UNL     1      43.148  30.249  60.568  1.00  0.00     0.184 HD
BRANCH   7   9
HETATM    9  C3  UNL     1      41.466  29.257  59.938  1.00  0.00     0.687 A 
HETATM   10  N4  UNL     1      40.513  29.437  59.026  1.00  0.00    -0.163 N 
HETATM   11  C2  UNL     1      39.237  29.095  59.129  1.00  0.00     0.209 A 
ATOM     12  H4  UNL     1      40.795  29.887  58.156  1.00  0.00     0.187 HD
HETATM   13  N2  UNL     1      38.870  28.498  60.292  1.00  0.00    -0.304 N 
HETATM   14  N3  UNL     1      38.232  29.286  58.150  1.00  0.00    -0.063 NA
HETATM   15  C1  UNL     1      39.788  28.292  61.248  1.00  0.00     0.209 A 
ATOM     16  H2  UNL     1      37.903  28.209  60.439  1.00  0.00     0.171 HD
HETATM   17  N1  UNL     1      39.354  27.658  62.468  1.00  0.00    -0.063 NA
HETATM   18  N6  UNL     1      41.042  28.652  61.092  1.00  0.00    -0.163 N 
ATOM     19  H6  UNL     1      41.711  28.479  61.841  1.00  0.00     0.187 HD
ENDBRANCH   7   9
ENDBRANCH   1   7
BRANCH   6  20
HETATM   20  C10 UNL     1      43.556  31.440  57.817  1.00  0.00     0.021 C 
HETATM   21  C11 UNL     1      44.663  32.459  57.629  1.00  0.00     0.009 C 
HETATM   22  C12 UNL     1      44.241  33.846  58.008  1.00  0.00     0.001 C 
HETATM   23  C13 UNL     1      42.988  34.305  57.322  1.00  0.00     0.000 C 
HETATM   24  C14 UNL     1      41.786  33.469  57.683  1.00  0.00     0.000 C 
HETATM   25  C15 UNL     1      41.602  32.433  56.612  1.00  0.00     0.001 C 
HETATM   26  C16 UNL     1      42.666  31.392  56.605  1.00  0.00     0.009 C 
ENDBRANCH   6  20
TORSDOF 3
ENDMDL
MODEL 4
REMARK VINA RESULT: -7.982957724      1.128      3.961
REMARK  3 active torsions:
REMARK  status: ('A' for Active; 'I' for Inactive)
REMARK    1  A    between atoms: C3_9  and  N5_10 
REMARK    2  A    between atoms: N5_10  and  C4_12 
REMARK    3  A    between atoms: C9_17  and  C10_18 
ROOT
HETATM    1  C4  UNL     1      43.819  29.238  58.936  1.00  0.00     0.056 A 
HETATM    2  C5  UNL     1      44.392  27.996  58.976  1.00  0.00     0.030 A 
HETATM    3  C6  UNL     1      45.340  27.607  58.022  1.00  0.00     0.002 A 
HETATM    4  C7  UNL     1      45.709  28.458  57.038  1.00  0.00     0.001 A 
HETATM    5  C8  UNL     1      45.147  29.714  56.976  1.00  0.00     0.010 A 
HETATM    6  C9  UNL     1      44.212  30.113  57.906  1.00  0.00    -0.027 A 
ENDROOT
BRANCH   1   7
HETATM    7  N5  UNL     1      42.875  29.669  59.892  1.00  0.00    -0.191 N 
ATOM      8  H5  UNL     1      43.203  30.388  60.537  1.00  0.00     0.184 HD
BRANCH   7   9
HETATM    9  C3  UNL     1      41.555  29.252  60.083  1.00  0.00     0.687 A 
HETATM   10  N4  UNL     1      41.033  28.652  61.150  1.00  0.00    -0.163 N 
HETATM   11  C2  UNL     1      39.775  28.268  61.312  1.00  0.00     0.209 A 
ATOM     12  H4  UNL     1      41.669  28.469  61.925  1.00  0.00     0.187 HD
HETATM   13  N2  UNL     1      38.936  28.514  60.273  1.00  0.00    -0.304 N 
HETATM   14  N3  UNL     1      39.229  27.635  62.455  1.00  0.00    -0.063 NA
HETATM   15  C1  UNL     1      39.407  29.116  59.171  1.00  0.00     0.209 A 
ATOM     16  H2  UNL     1      37.954  28.244  60.331  1.00  0.00     0.171 HD
HETATM   17  N1  UNL     1      38.482  29.356  58.091  1.00  0.00    -0.063 NA
HETATM   18  N6  UNL     1      40.666  29.476  59.065  1.00  0.00    -0.163 N 
ATOM     19  H6  UNL     1      40.987  29.931  58.210  1.00  0.00     0.187 HD
ENDBRANCH   7   9
ENDBRANCH   1   7
BRANCH   6  20
HETATM   20  C10 UNL     1      43.581  31.468  57.817  1.00  0.00     0.021 C 
HETATM   21  C11 UNL     1      44.695  32.482  57.647  1.00  0.00     0.009 C 
HETATM   22  C12 UNL     1      44.275  33.870  58.024  1.00  0.00     0.001 C 
HETATM   23  C13 UNL     1      43.034  34.336  57.322  1.00  0.00     0.000 C 
HETATM   24  C14 UNL     1      41.823  33.505  57.664  1.00  0.00     0.000 C 
HETATM   25  C15 UNL     1      41.649  32.474  56.587  1.00  0.00     0.001 C 
HETATM   26  C16 UNL     1      42.708  31.427  56.592  1.00  0.00     0.009 C 
ENDBRANCH   6  20
TORSDOF 3
ENDMDL
MODEL 5
REMARK VINA RESULT: -7.844224471      3.907      6.467
REMARK  3 active torsions:
REMARK  status: ('A' for Active; 'I' for Inactive)
REMARK    1  A    between atoms: C3_9  and  N5_10 
REMARK    2  A    between atoms: N5_10  and  C4_12 
REMARK    3  A    between atoms: C9_17  and  C10_18 
ROOT
HETATM    1  C4  UNL     1      43.588  32.267  57.670  1.00  0.00     0.056 A 
HETATM    2  C5  UNL     1      42.444  32.966  57.948  1.00  0.00     0.030 A 
HETATM    3  C6  UNL     1      41.186  32.359  57.856  1.00  0.00     0.002 A 
HETATM    4  C7  UNL     1      41.078  31.063  57.487  1.00  0.00     0.001 A 
HETATM    5  C8  UNL     1      42.213  30.337  57.201  1.00  0.00     0.010 A 
HETATM    6  C9  UNL     1      43.459  30.919  57.287  1.00  0.00    -0.027 A 
ENDROOT
BRANCH   1   7
HETATM    7  N5  UNL     1      44.872  32.843  57.771  1.00  0.00    -0.191 N 
ATOM      8  H5  UNL     1      45.629  32.187  57.965  1.00  0.00     0.184 HD
BRANCH   7   9
HETATM    9  C3  UNL     1      45.255  34.180  57.645  1.00  0.00     0.687 A 
HETATM   10  N4  UNL     1      44.997  35.013  56.640  1.00  0.00    -0.163 N 
HETATM   11  C2  UNL     1      45.367  36.282  56.542  1.00  0.00     0.209 A 
ATOM     12  H4  UNL     1      44.457  34.635  55.862  1.00  0.00     0.187 HD
HETATM   13  N2  UNL     1      46.087  36.777  57.582  1.00  0.00    -0.304 N 
HETATM   14  N3  UNL     1      45.083  37.162  55.470  1.00  0.00    -0.063 NA
HETATM   15  C1  UNL     1      46.377  35.982  58.623  1.00  0.00     0.209 A 
ATOM     16  H2  UNL     1      46.404  37.746  57.572  1.00  0.00     0.171 HD
HETATM   17  N1  UNL     1      47.145  36.548  59.704  1.00  0.00    -0.063 NA
HETATM   18  N6  UNL     1      45.983  34.729  58.667  1.00  0.00    -0.163 N 
ATOM     19  H6  UNL     1      46.224  34.156  59.476  1.00  0.00     0.187 HD
ENDBRANCH   7   9
ENDBRANCH   1   7
BRANCH   6  20
HETATM   20  C10 UNL     1      44.689  30.135  56.946  1.00  0.00     0.021 C 
HETATM   21  C11 UNL     1      44.617  28.821  57.696  1.00  0.00     0.009 C 
HETATM   22  C12 UNL     1      45.957  28.164  57.839  1.00  0.00     0.001 C 
HETATM   23  C13 UNL     1      46.682  27.983  56.539  1.00  0.00     0.000 C 
HETATM   24  C14 UNL     1      47.011  29.293  55.867  1.00  0.00     0.000 C 
HETATM   25  C15 UNL     1      45.941  29.576  54.854  1.00  0.00     0.001 C 
HETATM   26  C16 UNL     1      44.622  29.905  55.460  1.00  0.00     0.009 C 
ENDBRANCH   6  20
TORSDOF 3
ENDMDL
