MODEL 1
REMARK VINA RESULT: -8.693633669      0.000      0.000
REMARK  5 active torsions:
REMARK  status: ('A' for Active; 'I' for Inactive)
REMARK    1  A    between atoms: C2_2  and  C5_5 
REMARK    2  A    between atoms: C8_8  and  C9_9 
REMARK       I    between atoms: C9_9  and  N1_11 
REMARK    3  A    between atoms: C12_14  and  C13_15 
REMARK    4  A    between atoms: C13_15  and  O2_16 
REMARK    5  A    between atoms: C13_15  and  N2_18 
REMARK       I    between atoms: N3_21  and  C16_22 
ROOT
HETATM    1  C9  UNL     1      30.319  72.239  83.797  1.00  0.00     0.224 C 
HETATM    2  O1  UNL     1      29.249  72.566  84.364  1.00  0.00    -0.273 OA
HETATM    3  N1  UNL     1      31.550  72.602  84.367  1.00  0.00    -0.352 N 
HETATM    4  C10 UNL     1      31.549  73.390  85.596  1.00  0.00     0.126 C 
HETATM    5  C11 UNL     1      32.670  74.404  85.635  1.00  0.00     0.033 C 
HETATM    6  C12 UNL     1      33.945  73.875  85.088  1.00  0.00     0.063 C 
HETATM    7  C19 UNL     1      33.896  72.402  84.767  1.00  0.00     0.033 C 
HETATM    8  C20 UNL     1      32.783  72.163  83.744  1.00  0.00     0.126 C 
ENDROOT
BRANCH   1   9
HETATM    9  C8  UNL     1      30.244  71.485  82.547  1.00  0.00     0.078 C 
HETATM   10  C7  UNL     1      29.459  72.270  81.530  1.00  0.00     0.014 C 
HETATM   11  C6  UNL     1      29.846  71.811  80.139  1.00  0.00     0.006 C 
HETATM   12  C5  UNL     1      30.107  70.314  80.255  1.00  0.00    -0.007 C 
HETATM   13  C22 UNL     1      29.156  69.738  81.249  1.00  0.00     0.006 C 
HETATM   14  C21 UNL     1      29.581  70.127  82.671  1.00  0.00     0.014 C 
BRANCH  12  15
HETATM   15  C2  UNL     1      30.008  69.658  78.897  1.00  0.00    -0.048 C 
HETATM   16  C1  UNL     1      28.654  68.946  78.868  1.00  0.00     0.015 C 
HETATM   17  C3  UNL     1      30.008  70.689  77.818  1.00  0.00     0.015 C 
HETATM   18  C4  UNL     1      31.052  68.589  78.705  1.00  0.00     0.015 C 
ENDBRANCH  12  15
ENDBRANCH   1   9
BRANCH   6  19
HETATM   19  C13 UNL     1      35.172  74.203  85.800  1.00  0.00     0.117 C 
BRANCH  19  20
HETATM   20  O2  UNL     1      36.248  74.395  85.081  1.00  0.00    -0.349 OA
ATOM     21  H2  UNL     1      36.902  74.992  85.428  1.00  0.00     0.219 HD
ENDBRANCH  19  20
BRANCH  19  22
HETATM   22  N2  UNL     1      35.382  74.349  87.179  1.00  0.00    -0.362 N 
HETATM   23  C14 UNL     1      35.476  75.613  87.837  1.00  0.00     0.144 C 
HETATM   24  C15 UNL     1      34.840  75.569  89.220  1.00  0.00     0.147 C 
HETATM   25  N3  UNL     1      35.401  74.505  90.017  1.00  0.00    -0.333 N 
HETATM   26  C16 UNL     1      35.172  74.520  91.415  1.00  0.00     0.330 C 
HETATM   27  C17 UNL     1      36.159  73.491  89.345  1.00  0.00     0.147 C 
HETATM   28  N4  UNL     1      34.416  75.539  92.049  1.00  0.00    -0.040 NA
HETATM   29  O3  UNL     1      35.645  73.606  92.151  1.00  0.00    -0.251 OA
HETATM   30  C18 UNL     1      35.515  73.159  88.005  1.00  0.00     0.144 C 
ENDBRANCH  19  22
ENDBRANCH   6  19
TORSDOF 5
ENDMDL
MODEL 2
REMARK VINA RESULT: -8.491941170      5.997      8.610
REMARK  5 active torsions:
REMARK  status: ('A' for Active; 'I' for Inactive)
REMARK    1  A    between atoms: C2_2  and  C5_5 
REMARK    2  A    between atoms: C8_8  and  C9_9 
REMARK       I    between atoms: C9_9  and  N1_11 
REMARK    3  A    between atoms: C12_14  and  C13_15 
REMARK    4  A    between atoms: C13_15  and  O2_16 
REMARK    5  A    between atoms: C13_15  and  N2_18 
REMARK       I    between atoms: N3_21  and  C16_22 
ROOT
HETATM    1  C9  UNL     1      30.029  72.998  84.670  1.00  0.00     0.224 C 
HETATM    2  O1  UNL     1      30.869  72.548  85.486  1.00  0.00    -0.273 OA
HETATM    3  N1  UNL     1      29.223  74.090  85.028  1.00  0.00    -0.352 N 
HETATM    4  C10 UNL     1      29.359  74.652  86.369  1.00  0.00     0.126 C 
HETATM    5  C11 UNL     1      28.037  75.108  86.943  1.00  0.00     0.033 C 
HETATM    6  C12 UNL     1      27.170  75.774  85.938  1.00  0.00     0.063 C 
HETATM    7  C19 UNL     1      27.853  76.001  84.613  1.00  0.00     0.033 C 
HETATM    8  C20 UNL     1      28.303  74.648  84.057  1.00  0.00     0.126 C 
ENDROOT
BRANCH   1   9
HETATM    9  C8  UNL     1      29.919  72.358  83.360  1.00  0.00     0.078 C 
HETATM   10  C7  UNL     1      30.211  70.888  83.489  1.00  0.00     0.014 C 
HETATM   11  C6  UNL     1      29.565  70.148  82.336  1.00  0.00     0.006 C 
HETATM   12  C5  UNL     1      29.670  71.081  81.135  1.00  0.00    -0.007 C 
HETATM   13  C22 UNL     1      30.956  71.831  81.223  1.00  0.00     0.006 C 
HETATM   14  C21 UNL     1      30.864  72.911  82.309  1.00  0.00     0.014 C 
BRANCH  12  15
HETATM   15  C2  UNL     1      29.532  70.298  79.850  1.00  0.00    -0.048 C 
HETATM   16  C1  UNL     1      28.253  69.470  79.993  1.00  0.00     0.015 C 
HETATM   17  C3  UNL     1      29.354  71.222  78.692  1.00  0.00     0.015 C 
HETATM   18  C4  UNL     1      30.655  69.312  79.663  1.00  0.00     0.015 C 
ENDBRANCH  12  15
ENDBRANCH   1   9
BRANCH   6  19
HETATM   19  C13 UNL     1      26.450  76.969  86.355  1.00  0.00     0.117 C 
BRANCH  19  20
HETATM   20  O2  UNL     1      27.123  77.870  87.023  1.00  0.00    -0.349 OA
ATOM     21  H2  UNL     1      26.660  78.662  87.272  1.00  0.00     0.219 HD
ENDBRANCH  19  20
BRANCH  19  22
HETATM   22  N2  UNL     1      25.107  77.310  86.143  1.00  0.00    -0.362 N 
HETATM   23  C14 UNL     1      24.651  78.078  85.028  1.00  0.00     0.144 C 
HETATM   24  C15 UNL     1      23.290  77.598  84.540  1.00  0.00     0.147 C 
HETATM   25  N3  UNL     1      22.327  77.586  85.615  1.00  0.00    -0.333 N 
HETATM   26  C16 UNL     1      20.953  77.485  85.286  1.00  0.00     0.330 C 
HETATM   27  C17 UNL     1      22.820  77.676  86.958  1.00  0.00     0.147 C 
HETATM   28  N4  UNL     1      20.499  77.398  83.945  1.00  0.00    -0.040 NA
HETATM   29  O3  UNL     1      20.075  77.471  86.197  1.00  0.00    -0.251 OA
HETATM   30  C18 UNL     1      24.104  76.869  87.099  1.00  0.00     0.144 C 
ENDBRANCH  19  22
ENDBRANCH   6  19
TORSDOF 5
ENDMDL
MODEL 3
REMARK VINA RESULT: -8.401235379      0.863      1.237
REMARK  5 active torsions:
REMARK  status: ('A' for Active; 'I' for Inactive)
REMARK    1  A    between atoms: C2_2  and  C5_5 
REMARK    2  A    between atoms: C8_8  and  C9_9 
REMARK       I    between atoms: C9_9  and  N1_11 
REMARK    3  A    between atoms: C12_14  and  C13_15 
REMARK    4  A    between atoms: C13_15  and  O2_16 
REMARK    5  A    between atoms: C13_15  and  N2_18 
REMARK       I    between atoms: N3_21  and  C16_22 
ROOT
HETATM    1  C9  UNL     1      29.968  72.311  83.730  1.00  0.00     0.224 C 
HETATM    2  O1  UNL     1      28.863  72.706  84.171  1.00  0.00    -0.273 OA
HETATM    3  N1  UNL     1      31.148  72.623  84.424  1.00  0.00    -0.352 N 
HETATM    4  C10 UNL     1      31.058  73.440  85.630  1.00  0.00     0.126 C 
HETATM    5  C11 UNL     1      32.221  74.396  85.772  1.00  0.00     0.033 C 
HETATM    6  C12 UNL     1      33.517  73.789  85.377  1.00  0.00     0.063 C 
HETATM    7  C19 UNL     1      33.423  72.313  85.079  1.00  0.00     0.033 C 
HETATM    8  C20 UNL     1      32.415  72.107  83.946  1.00  0.00     0.126 C 
ENDROOT
BRANCH   1   9
HETATM    9  C8  UNL     1      29.987  71.532  82.493  1.00  0.00     0.078 C 
HETATM   10  C7  UNL     1      29.104  72.190  81.468  1.00  0.00     0.014 C 
HETATM   11  C6  UNL     1      29.542  71.762  80.083  1.00  0.00     0.006 C 
HETATM   12  C5  UNL     1      29.996  70.313  80.222  1.00  0.00    -0.007 C 
HETATM   13  C22 UNL     1      29.132  69.636  81.231  1.00  0.00     0.006 C 
HETATM   14  C21 UNL     1      29.507  70.101  82.644  1.00  0.00     0.014 C 
BRANCH  12  15
HETATM   15  C2  UNL     1      29.978  69.626  78.876  1.00  0.00    -0.048 C 
HETATM   16  C1  UNL     1      28.608  68.955  78.761  1.00  0.00     0.015 C 
HETATM   17  C3  UNL     1      30.093  70.629  77.777  1.00  0.00     0.015 C 
HETATM   18  C4  UNL     1      30.999  68.522  78.789  1.00  0.00     0.015 C 
ENDBRANCH  12  15
ENDBRANCH   1   9
BRANCH   6  19
HETATM   19  C13 UNL     1      34.676  74.071  86.212  1.00  0.00     0.117 C 
BRANCH  19  20
HETATM   20  O2  UNL     1      35.850  74.039  85.635  1.00  0.00    -0.349 OA
ATOM     21  H2  UNL     1      36.459  74.736  85.852  1.00  0.00     0.219 HD
ENDBRANCH  19  20
BRANCH  19  22
HETATM   22  N2  UNL     1      34.727  74.379  87.578  1.00  0.00    -0.362 N 
HETATM   23  C14 UNL     1      34.411  73.446  88.613  1.00  0.00     0.144 C 
HETATM   24  C15 UNL     1      35.308  73.640  89.830  1.00  0.00     0.147 C 
HETATM   25  N3  UNL     1      35.259  75.003  90.300  1.00  0.00    -0.333 N 
HETATM   26  C16 UNL     1      35.761  75.285  91.595  1.00  0.00     0.330 C 
HETATM   27  C17 UNL     1      34.703  75.995  89.428  1.00  0.00     0.147 C 
HETATM   28  N4  UNL     1      36.305  74.279  92.434  1.00  0.00    -0.040 NA
HETATM   29  O3  UNL     1      35.738  76.467  92.047  1.00  0.00    -0.251 OA
HETATM   30  C18 UNL     1      35.121  75.717  87.989  1.00  0.00     0.144 C 
ENDBRANCH  19  22
ENDBRANCH   6  19
TORSDOF 5
ENDMDL
MODEL 4
REMARK VINA RESULT: -8.084598830      5.913      8.481
REMARK  5 active torsions:
REMARK  status: ('A' for Active; 'I' for Inactive)
REMARK    1  A    between atoms: C2_2  and  C5_5 
REMARK    2  A    between atoms: C8_8  and  C9_9 
REMARK       I    between atoms: C9_9  and  N1_11 
REMARK    3  A    between atoms: C12_14  and  C13_15 
REMARK    4  A    between atoms: C13_15  and  O2_16 
REMARK    5  A    between atoms: C13_15  and  N2_18 
REMARK       I    between atoms: N3_21  and  C16_22 
ROOT
HETATM    1  C9  UNL     1      29.788  72.703  84.170  1.00  0.00     0.224 C 
HETATM    2  O1  UNL     1      30.334  72.113  85.132  1.00  0.00    -0.273 OA
HETATM    3  N1  UNL     1      29.228  73.977  84.361  1.00  0.00    -0.352 N 
HETATM    4  C10 UNL     1      29.264  74.567  85.695  1.00  0.00     0.126 C 
HETATM    5  C11 UNL     1      28.017  75.361  86.012  1.00  0.00     0.033 C 
HETATM    6  C12 UNL     1      27.531  76.157  84.856  1.00  0.00     0.063 C 
HETATM    7  C19 UNL     1      28.468  76.134  83.675  1.00  0.00     0.033 C 
HETATM    8  C20 UNL     1      28.658  74.682  83.230  1.00  0.00     0.126 C 
ENDROOT
BRANCH   1   9
HETATM    9  C8  UNL     1      29.751  72.034  82.872  1.00  0.00     0.078 C 
HETATM   10  C7  UNL     1      29.910  70.550  83.063  1.00  0.00     0.014 C 
HETATM   11  C6  UNL     1      29.320  69.826  81.871  1.00  0.00     0.006 C 
HETATM   12  C5  UNL     1      29.613  70.711  80.664  1.00  0.00    -0.007 C 
HETATM   13  C22 UNL     1      30.941  71.361  80.859  1.00  0.00     0.006 C 
HETATM   14  C21 UNL     1      30.833  72.478  81.905  1.00  0.00     0.014 C 
BRANCH  12  15
HETATM   15  C2  UNL     1      29.535  69.901  79.390  1.00  0.00    -0.048 C 
HETATM   16  C1  UNL     1      30.761  68.986  79.394  1.00  0.00     0.015 C 
HETATM   17  C3  UNL     1      28.318  69.038  79.393  1.00  0.00     0.015 C 
HETATM   18  C4  UNL     1      29.656  70.764  78.161  1.00  0.00     0.015 C 
ENDBRANCH  12  15
ENDBRANCH   1   9
BRANCH   6  19
HETATM   19  C13 UNL     1      27.069  77.513  85.117  1.00  0.00     0.117 C 
BRANCH  19  20
HETATM   20  O2  UNL     1      27.971  78.397  85.456  1.00  0.00    -0.349 OA
ATOM     21  H2  UNL     1      28.187  78.466  86.379  1.00  0.00     0.219 HD
ENDBRANCH  19  20
BRANCH  19  22
HETATM   22  N2  UNL     1      25.767  78.029  85.060  1.00  0.00    -0.362 N 
HETATM   23  C14 UNL     1      25.195  78.607  83.886  1.00  0.00     0.144 C 
HETATM   24  C15 UNL     1      23.712  78.278  83.768  1.00  0.00     0.147 C 
HETATM   25  N3  UNL     1      22.998  78.664  84.960  1.00  0.00    -0.333 N 
HETATM   26  C16 UNL     1      21.583  78.736  84.903  1.00  0.00     0.330 C 
HETATM   27  C17 UNL     1      23.762  78.952  86.137  1.00  0.00     0.147 C 
HETATM   28  N4  UNL     1      20.856  78.444  83.720  1.00  0.00    -0.040 NA
HETATM   29  O3  UNL     1      20.917  79.070  85.925  1.00  0.00    -0.251 OA
HETATM   30  C18 UNL     1      24.932  77.984  86.250  1.00  0.00     0.144 C 
ENDBRANCH  19  22
ENDBRANCH   6  19
TORSDOF 5
ENDMDL
MODEL 5
REMARK VINA RESULT: -8.033475352      5.264      7.433
REMARK  5 active torsions:
REMARK  status: ('A' for Active; 'I' for Inactive)
REMARK    1  A    between atoms: C2_2  and  C5_5 
REMARK    2  A    between atoms: C8_8  and  C9_9 
REMARK       I    between atoms: C9_9  and  N1_11 
REMARK    3  A    between atoms: C12_14  and  C13_15 
REMARK    4  A    between atoms: C13_15  and  O2_16 
REMARK    5  A    between atoms: C13_15  and  N2_18 
REMARK       I    between atoms: N3_21  and  C16_22 
ROOT
HETATM    1  C9  UNL     1      30.972  72.367  83.423  1.00  0.00     0.224 C 
HETATM    2  O1  UNL     1      31.890  72.022  84.205  1.00  0.00    -0.273 OA
HETATM    3  N1  UNL     1      30.235  73.534  83.683  1.00  0.00    -0.352 N 
HETATM    4  C10 UNL     1      30.535  74.299  84.890  1.00  0.00     0.126 C 
HETATM    5  C11 UNL     1      29.297  74.892  85.523  1.00  0.00     0.033 C 
HETATM    6  C12 UNL     1      28.335  75.421  84.523  1.00  0.00     0.063 C 
HETATM    7  C19 UNL     1      28.866  75.405  83.112  1.00  0.00     0.033 C 
HETATM    8  C20 UNL     1      29.222  73.963  82.740  1.00  0.00     0.126 C 
ENDROOT
BRANCH   1   9
HETATM    9  C8  UNL     1      30.699  71.530  82.256  1.00  0.00     0.078 C 
HETATM   10  C7  UNL     1      30.059  72.360  81.176  1.00  0.00     0.014 C 
HETATM   11  C6  UNL     1      30.296  71.700  79.834  1.00  0.00     0.006 C 
HETATM   12  C5  UNL     1      30.246  70.199  80.096  1.00  0.00    -0.007 C 
HETATM   13  C22 UNL     1      29.231  69.932  81.156  1.00  0.00     0.006 C 
HETATM   14  C21 UNL     1      29.775  70.358  82.526  1.00  0.00     0.014 C 
BRANCH  12  15
HETATM   15  C2  UNL     1      29.967  69.452  78.812  1.00  0.00    -0.048 C 
HETATM   16  C1  UNL     1      28.619  68.757  79.011  1.00  0.00     0.015 C 
HETATM   17  C3  UNL     1      29.829  70.405  77.672  1.00  0.00     0.015 C 
HETATM   18  C4  UNL     1      30.973  68.359  78.562  1.00  0.00     0.015 C 
ENDBRANCH  12  15
ENDBRANCH   1   9
BRANCH   6  19
HETATM   19  C13 UNL     1      27.692  76.695  84.814  1.00  0.00     0.117 C 
BRANCH  19  20
HETATM   20  O2  UNL     1      28.396  77.779  84.615  1.00  0.00    -0.349 OA
ATOM     21  H2  UNL     1      28.040  78.425  84.016  1.00  0.00     0.219 HD
ENDBRANCH  19  20
BRANCH  19  22
HETATM   22  N2  UNL     1      26.396  76.942  85.287  1.00  0.00    -0.362 N 
HETATM   23  C14 UNL     1      25.736  76.125  86.255  1.00  0.00     0.144 C 
HETATM   24  C15 UNL     1      24.876  76.959  87.195  1.00  0.00     0.147 C 
HETATM   25  N3  UNL     1      23.945  77.779  86.459  1.00  0.00    -0.333 N 
HETATM   26  C16 UNL     1      22.861  78.362  87.161  1.00  0.00     0.330 C 
HETATM   27  C17 UNL     1      24.171  77.956  85.055  1.00  0.00     0.147 C 
HETATM   28  N4  UNL     1      22.665  78.166  88.553  1.00  0.00    -0.040 NA
HETATM   29  O3  UNL     1      22.021  79.088  86.554  1.00  0.00    -0.251 OA
HETATM   30  C18 UNL     1      25.663  78.092  84.780  1.00  0.00     0.144 C 
ENDBRANCH  19  22
ENDBRANCH   6  19
TORSDOF 5
ENDMDL
