MODEL 1
REMARK VINA RESULT: -6.673256489      0.000      0.000
REMARK  7 active torsions:
REMARK  status: ('A' for Active; 'I' for Inactive)
REMARK    1  A    between atoms: C2_2  and  C3_3 
REMARK    2  A    between atoms: C3_3  and  N1_4 
REMARK    3  A    between atoms: C6_10  and  C7_11 
REMARK    4  A    between atoms: N4_21  and  C13_22 
REMARK    5  A    between atoms: C13_22  and  C14_23 
REMARK    6  A    between atoms: C14_23  and  C15_24 
REMARK    7  A    between atoms: C15_24  and  C16_25 
ROOT
HETATM    1  N1  UNL     1      13.143 -11.932  22.075  1.00  0.00    -0.223 N 
ATOM      2  H1  UNL     1      13.916 -11.268  22.125  1.00  0.00     0.178 HD
HETATM    3  C4  UNL     1      13.425 -13.097  21.629  1.00  0.00     0.673 C 
HETATM    4  N2  UNL     1      12.472 -14.149  21.491  1.00  0.00    -0.219 N 
ATOM      5  H2  UNL     1      11.549 -14.101  21.923  1.00  0.00     0.178 HD
HETATM    6  C5  UNL     1      12.883 -15.276  20.713  1.00  0.00     0.138 C 
HETATM    7  C6  UNL     1      12.108 -16.534  20.962  1.00  0.00     0.113 C 
HETATM    8  C8  UNL     1      13.172 -17.590  21.072  1.00  0.00     0.225 C 
HETATM    9  O1  UNL     1      12.971 -18.813  21.375  1.00  0.00    -0.273 OA
HETATM   10  N3  UNL     1      14.433 -16.954  20.773  1.00  0.00    -0.352 N 
ATOM     11  H3  UNL     1      15.252 -17.369  20.329  1.00  0.00     0.163 HD
HETATM   12  C9  UNL     1      14.279 -15.622  21.236  1.00  0.00     0.136 C 
HETATM   13  C10 UNL     1      15.198 -14.590  20.638  1.00  0.00     0.065 C 
HETATM   14  C11 UNL     1      14.996 -14.570  19.139  1.00  0.00     0.041 C 
HETATM   15  C12 UNL     1      16.643 -14.946  20.906  1.00  0.00     0.041 C 
HETATM   16  N4  UNL     1      14.798 -13.337  21.241  1.00  0.00    -0.207 N 
ENDROOT
BRANCH   1  17
HETATM   17  C3  UNL     1      11.872 -11.454  22.510  1.00  0.00     0.164 C 
BRANCH  17  18
HETATM   18  C2  UNL     1      11.931 -10.015  22.858  1.00  0.00    -0.017 C 
HETATM   19  C1  UNL     1      12.960  -9.286  22.513  1.00  0.00     0.008 C 
ENDBRANCH  17  18
ENDBRANCH   1  17
BRANCH  16  20
HETATM   20  C13 UNL     1      15.760 -12.304  21.460  1.00  0.00     0.142 C 
BRANCH  20  21
HETATM   21  C14 UNL     1      15.889 -11.310  20.330  1.00  0.00     0.020 C 
BRANCH  21  22
HETATM   22  C15 UNL     1      17.216 -11.611  19.669  1.00  0.00     0.001 C 
BRANCH  22  23
HETATM   23  C16 UNL     1      18.379 -11.565  20.604  1.00  0.00    -0.004 C 
HETATM   24  C17 UNL     1      19.580 -12.103  19.812  1.00  0.00     0.005 C 
ENDBRANCH  22  23
ENDBRANCH  21  22
ENDBRANCH  20  21
ENDBRANCH  16  20
BRANCH   7  25
HETATM   25  C7  UNL     1      11.348 -16.863  19.667  1.00  0.00     0.101 C 
HETATM   26 BR1  UNL     1      12.577 -17.082  18.196  1.00  0.00    -0.096 Br
ENDBRANCH   7  25
TORSDOF 7
ENDMDL
MODEL 2
REMARK VINA RESULT: -6.527461826      3.709      5.779
REMARK  7 active torsions:
REMARK  status: ('A' for Active; 'I' for Inactive)
REMARK    1  A    between atoms: C2_2  and  C3_3 
REMARK    2  A    between atoms: C3_3  and  N1_4 
REMARK    3  A    between atoms: C6_10  and  C7_11 
REMARK    4  A    between atoms: N4_21  and  C13_22 
REMARK    5  A    between atoms: C13_22  and  C14_23 
REMARK    6  A    between atoms: C14_23  and  C15_24 
REMARK    7  A    between atoms: C15_24  and  C16_25 
ROOT
HETATM    1  N1  UNL     1      17.795 -15.176  22.721  1.00  0.00    -0.223 N 
ATOM      2  H1  UNL     1      18.777 -15.350  22.937  1.00  0.00     0.178 HD
HETATM    3  C4  UNL     1      17.555 -14.225  21.899  1.00  0.00     0.673 C 
HETATM    4  N2  UNL     1      16.246 -13.843  21.483  1.00  0.00    -0.219 N 
ATOM      5  H2  UNL     1      15.431 -14.429  21.662  1.00  0.00     0.178 HD
HETATM    6  C5  UNL     1      16.140 -12.591  20.802  1.00  0.00     0.138 C 
HETATM    7  C6  UNL     1      14.904 -12.424  19.971  1.00  0.00     0.113 C 
HETATM    8  C8  UNL     1      15.418 -11.853  18.680  1.00  0.00     0.225 C 
HETATM    9  O1  UNL     1      14.717 -11.634  17.637  1.00  0.00    -0.273 OA
HETATM   10  N3  UNL     1      16.831 -11.610  18.857  1.00  0.00    -0.352 N 
ATOM     11  H3  UNL     1      17.396 -10.875  18.431  1.00  0.00     0.163 HD
HETATM   12  C9  UNL     1      17.256 -12.622  19.755  1.00  0.00     0.136 C 
HETATM   13  C10 UNL     1      18.528 -12.354  20.518  1.00  0.00     0.065 C 
HETATM   14  C11 UNL     1      18.354 -11.084  21.321  1.00  0.00     0.041 C 
HETATM   15  C12 UNL     1      19.684 -12.146  19.566  1.00  0.00     0.041 C 
HETATM   16  N4  UNL     1      18.697 -13.504  21.379  1.00  0.00    -0.207 N 
ENDROOT
BRANCH   1  17
HETATM   17  C3  UNL     1      16.847 -16.020  23.370  1.00  0.00     0.164 C 
BRANCH  17  18
HETATM   18  C2  UNL     1      17.068 -16.046  24.835  1.00  0.00    -0.017 C 
HETATM   19  C1  UNL     1      17.477 -14.979  25.468  1.00  0.00     0.008 C 
ENDBRANCH  17  18
ENDBRANCH   1  17
BRANCH  16  20
HETATM   20  C13 UNL     1      20.006 -13.948  21.738  1.00  0.00     0.142 C 
BRANCH  20  21
HETATM   21  C14 UNL     1      20.799 -12.970  22.573  1.00  0.00     0.020 C 
BRANCH  21  22
HETATM   22  C15 UNL     1      20.488 -13.315  24.013  1.00  0.00     0.001 C 
BRANCH  22  23
HETATM   23  C16 UNL     1      21.354 -12.608  25.002  1.00  0.00    -0.004 C 
HETATM   24  C17 UNL     1      20.617 -12.691  26.346  1.00  0.00     0.005 C 
ENDBRANCH  22  23
ENDBRANCH  21  22
ENDBRANCH  20  21
ENDBRANCH  16  20
BRANCH   7  25
HETATM   25  C7  UNL     1      14.077 -11.296  20.608  1.00  0.00     0.101 C 
HETATM   26 BR1  UNL     1      12.681 -12.026  21.722  1.00  0.00    -0.096 Br
ENDBRANCH   7  25
TORSDOF 7
ENDMDL
MODEL 3
REMARK VINA RESULT: -6.509568167      1.233      1.378
REMARK  7 active torsions:
REMARK  status: ('A' for Active; 'I' for Inactive)
REMARK    1  A    between atoms: C2_2  and  C3_3 
REMARK    2  A    between atoms: C3_3  and  N1_4 
REMARK    3  A    between atoms: C6_10  and  C7_11 
REMARK    4  A    between atoms: N4_21  and  C13_22 
REMARK    5  A    between atoms: C13_22  and  C14_23 
REMARK    6  A    between atoms: C14_23  and  C15_24 
REMARK    7  A    between atoms: C15_24  and  C16_25 
ROOT
HETATM    1  N1  UNL     1      13.991 -11.544  21.142  1.00  0.00    -0.223 N 
ATOM      2  H1  UNL     1      14.817 -11.110  21.555  1.00  0.00     0.178 HD
HETATM    3  C4  UNL     1      14.034 -12.814  20.993  1.00  0.00     0.673 C 
HETATM    4  N2  UNL     1      12.972 -13.587  20.435  1.00  0.00    -0.219 N 
ATOM      5  H2  UNL     1      12.037 -13.201  20.303  1.00  0.00     0.178 HD
HETATM    6  C5  UNL     1      13.293 -14.931  20.072  1.00  0.00     0.138 C 
HETATM    7  C6  UNL     1      12.117 -15.852  19.949  1.00  0.00     0.113 C 
HETATM    8  C8  UNL     1      12.557 -17.089  20.679  1.00  0.00     0.225 C 
HETATM    9  O1  UNL     1      11.829 -18.112  20.907  1.00  0.00    -0.273 OA
HETATM   10  N3  UNL     1      13.935 -16.889  21.060  1.00  0.00    -0.352 N 
ATOM     11  H3  UNL     1      14.666 -17.595  21.150  1.00  0.00     0.163 HD
HETATM   12  C9  UNL     1      14.044 -15.493  21.282  1.00  0.00     0.136 C 
HETATM   13  C10 UNL     1      15.428 -14.904  21.202  1.00  0.00     0.065 C 
HETATM   14  C11 UNL     1      15.998 -15.187  19.830  1.00  0.00     0.041 C 
HETATM   15  C12 UNL     1      16.339 -15.547  22.223  1.00  0.00     0.041 C 
HETATM   16  N4  UNL     1      15.245 -13.485  21.415  1.00  0.00    -0.207 N 
ENDROOT
BRANCH   1  17
HETATM   17  C3  UNL     1      12.922 -10.666  20.799  1.00  0.00     0.164 C 
BRANCH  17  18
HETATM   18  C2  UNL     1      12.095 -10.340  21.984  1.00  0.00    -0.017 C 
HETATM   19  C1  UNL     1      12.511  -9.475  22.871  1.00  0.00     0.008 C 
ENDBRANCH  17  18
ENDBRANCH   1  17
BRANCH  16  20
HETATM   20  C13 UNL     1      16.268 -12.714  22.047  1.00  0.00     0.142 C 
BRANCH  20  21
HETATM   21  C14 UNL     1      17.293 -12.130  21.104  1.00  0.00     0.020 C 
BRANCH  21  22
HETATM   22  C15 UNL     1      18.636 -12.606  21.613  1.00  0.00     0.001 C 
BRANCH  22  23
HETATM   23  C16 UNL     1      19.537 -13.123  20.541  1.00  0.00    -0.004 C 
HETATM   24  C17 UNL     1      20.207 -11.889  19.920  1.00  0.00     0.005 C 
ENDBRANCH  22  23
ENDBRANCH  21  22
ENDBRANCH  20  21
ENDBRANCH  16  20
BRANCH   7  25
HETATM   25  C7  UNL     1      12.019 -16.269  18.473  1.00  0.00     0.101 C 
HETATM   26 BR1  UNL     1      10.178 -16.548  17.969  1.00  0.00    -0.096 Br
ENDBRANCH   7  25
TORSDOF 7
ENDMDL
MODEL 4
REMARK VINA RESULT: -6.491196653      3.343      5.110
REMARK  7 active torsions:
REMARK  status: ('A' for Active; 'I' for Inactive)
REMARK    1  A    between atoms: C2_2  and  C3_3 
REMARK    2  A    between atoms: C3_3  and  N1_4 
REMARK    3  A    between atoms: C6_10  and  C7_11 
REMARK    4  A    between atoms: N4_21  and  C13_22 
REMARK    5  A    between atoms: C13_22  and  C14_23 
REMARK    6  A    between atoms: C14_23  and  C15_24 
REMARK    7  A    between atoms: C15_24  and  C16_25 
ROOT
HETATM    1  N1  UNL     1      18.444 -12.345  21.673  1.00  0.00    -0.223 N 
ATOM      2  H1  UNL     1      19.137 -11.986  22.330  1.00  0.00     0.178 HD
HETATM    3  C4  UNL     1      17.930 -13.482  21.956  1.00  0.00     0.673 C 
HETATM    4  N2  UNL     1      16.947 -14.134  21.154  1.00  0.00    -0.219 N 
ATOM      5  H2  UNL     1      16.450 -13.647  20.409  1.00  0.00     0.178 HD
HETATM    6  C5  UNL     1      16.700 -15.510  21.453  1.00  0.00     0.138 C 
HETATM    7  C6  UNL     1      15.385 -16.038  20.965  1.00  0.00     0.113 C 
HETATM    8  C8  UNL     1      14.851 -16.806  22.140  1.00  0.00     0.225 C 
HETATM    9  O1  UNL     1      13.701 -17.355  22.205  1.00  0.00    -0.273 OA
HETATM   10  N3  UNL     1      15.878 -16.795  23.155  1.00  0.00    -0.352 N 
ATOM     11  H3  UNL     1      16.080 -17.517  23.847  1.00  0.00     0.163 HD
HETATM   12  C9  UNL     1      16.544 -15.555  22.975  1.00  0.00     0.136 C 
HETATM   13  C10 UNL     1      17.943 -15.455  23.524  1.00  0.00     0.065 C 
HETATM   14  C11 UNL     1      18.796 -16.522  22.874  1.00  0.00     0.041 C 
HETATM   15  C12 UNL     1      17.947 -15.704  25.015  1.00  0.00     0.041 C 
HETATM   16  N4  UNL     1      18.393 -14.128  23.165  1.00  0.00    -0.207 N 
ENDROOT
BRANCH   1  17
HETATM   17  C3  UNL     1      18.159 -11.523  20.544  1.00  0.00     0.164 C 
BRANCH  17  18
HETATM   18  C2  UNL     1      19.119 -11.774  19.443  1.00  0.00    -0.017 C 
HETATM   19  C1  UNL     1      20.406 -11.780  19.668  1.00  0.00     0.008 C 
ENDBRANCH  17  18
ENDBRANCH   1  17
BRANCH  16  20
HETATM   20  C13 UNL     1      19.315 -13.430  24.003  1.00  0.00     0.142 C 
BRANCH  20  21
HETATM   21  C14 UNL     1      20.768 -13.610  23.632  1.00  0.00     0.020 C 
BRANCH  21  22
HETATM   22  C15 UNL     1      21.559 -12.968  24.751  1.00  0.00     0.001 C 
BRANCH  22  23
HETATM   23  C16 UNL     1      20.748 -12.064  25.620  1.00  0.00    -0.004 C 
HETATM   24  C17 UNL     1      20.838 -12.646  27.037  1.00  0.00     0.005 C 
ENDBRANCH  22  23
ENDBRANCH  21  22
ENDBRANCH  20  21
ENDBRANCH  16  20
BRANCH   7  25
HETATM   25  C7  UNL     1      15.691 -17.100  19.896  1.00  0.00     0.101 C 
HETATM   26 BR1  UNL     1      14.891 -16.614  18.209  1.00  0.00    -0.096 Br
ENDBRANCH   7  25
TORSDOF 7
ENDMDL
MODEL 5
REMARK VINA RESULT: -6.321000841      5.087      7.161
REMARK  7 active torsions:
REMARK  status: ('A' for Active; 'I' for Inactive)
REMARK    1  A    between atoms: C2_2  and  C3_3 
REMARK    2  A    between atoms: C3_3  and  N1_4 
REMARK    3  A    between atoms: C6_10  and  C7_11 
REMARK    4  A    between atoms: N4_21  and  C13_22 
REMARK    5  A    between atoms: C13_22  and  C14_23 
REMARK    6  A    between atoms: C14_23  and  C15_24 
REMARK    7  A    between atoms: C15_24  and  C16_25 
ROOT
HETATM    1  N1  UNL     1      20.619 -14.158  24.488  1.00  0.00    -0.223 N 
ATOM      2  H1  UNL     1      20.800 -15.015  25.011  1.00  0.00     0.178 HD
HETATM    3  C4  UNL     1      19.571 -14.152  23.755  1.00  0.00     0.673 C 
HETATM    4  N2  UNL     1      19.162 -13.042  22.959  1.00  0.00    -0.219 N 
ATOM      5  H2  UNL     1      19.572 -12.115  23.075  1.00  0.00     0.178 HD
HETATM    6  C5  UNL     1      18.146 -13.301  21.987  1.00  0.00     0.138 C 
HETATM    7  C6  UNL     1      17.403 -12.091  21.510  1.00  0.00     0.113 C 
HETATM    8  C8  UNL     1      15.964 -12.521  21.544  1.00  0.00     0.225 C 
HETATM    9  O1  UNL     1      14.961 -11.770  21.302  1.00  0.00    -0.273 OA
HETATM   10  N3  UNL     1      15.948 -13.921  21.899  1.00  0.00    -0.352 N 
ATOM     11  H3  UNL     1      15.278 -14.631  21.605  1.00  0.00     0.163 HD
HETATM   12  C9  UNL     1      17.074 -14.086  22.746  1.00  0.00     0.136 C 
HETATM   13  C10 UNL     1      17.619 -15.484  22.878  1.00  0.00     0.065 C 
HETATM   14  C11 UNL     1      18.013 -15.982  21.506  1.00  0.00     0.041 C 
HETATM   15  C12 UNL     1      16.561 -16.416  23.424  1.00  0.00     0.041 C 
HETATM   16  N4  UNL     1      18.770 -15.357  23.745  1.00  0.00    -0.207 N 
ENDROOT
BRANCH   1  17
HETATM   17  C3  UNL     1      21.564 -13.104  24.658  1.00  0.00     0.164 C 
BRANCH  17  18
HETATM   18  C2  UNL     1      21.115 -12.144  25.694  1.00  0.00    -0.017 C 
HETATM   19  C1  UNL     1      20.708 -12.564  26.862  1.00  0.00     0.008 C 
ENDBRANCH  17  18
ENDBRANCH   1  17
BRANCH  16  20
HETATM   20  C13 UNL     1      19.142 -16.432  24.608  1.00  0.00     0.142 C 
BRANCH  20  21
HETATM   21  C14 UNL     1      20.058 -17.457  23.983  1.00  0.00     0.020 C 
BRANCH  21  22
HETATM   22  C15 UNL     1      21.195 -17.643  24.964  1.00  0.00     0.001 C 
BRANCH  22  23
HETATM   23  C16 UNL     1      20.874 -17.193  26.351  1.00  0.00    -0.004 C 
HETATM   24  C17 UNL     1      22.137 -16.495  26.874  1.00  0.00     0.005 C 
ENDBRANCH  22  23
ENDBRANCH  21  22
ENDBRANCH  20  21
ENDBRANCH  16  20
BRANCH   7  25
HETATM   25  C7  UNL     1      17.734 -11.914  20.019  1.00  0.00     0.101 C 
HETATM   26 BR1  UNL     1      19.634 -12.061  19.724  1.00  0.00    -0.096 Br
ENDBRANCH   7  25
TORSDOF 7
ENDMDL
