MODEL 1
REMARK VINA RESULT: -9.332027643      0.000      0.000
REMARK  12 active torsions:
REMARK  status: ('A' for Active; 'I' for Inactive)
REMARK    1  A    between atoms: C3_4  and  O2_5 
REMARK    2  A    between atoms: C6_9  and  N1_10 
REMARK    3  A    between atoms: N1_10  and  C7_12 
REMARK    4  A    between atoms: C8_13  and  O3_14 
REMARK    5  A    between atoms: C10_17  and  C11_18 
REMARK    6  A    between atoms: C12_19  and  C13_20 
REMARK    7  A    between atoms: C14_21  and  C15_22 
REMARK    8  A    between atoms: C16_23  and  C17_24 
REMARK    9  A    between atoms: C17_24  and  C18_25 
REMARK   10  A    between atoms: C18_25  and  C19_26 
REMARK   11  A    between atoms: C20_29  and  O6_30 
REMARK   12  A    between atoms: C21_32  and  O7_33 
ROOT
HETATM    1  C7  UNL     1      18.929  51.798  37.159  1.00  0.00     0.102 A 
HETATM    2  C8  UNL     1      18.194  51.375  38.273  1.00  0.00     0.096 A 
HETATM    3  C9  UNL     1      17.478  52.335  38.953  1.00  0.00     0.053 A 
HETATM    4  C10 UNL     1      17.466  53.670  38.582  1.00  0.00     0.003 A 
HETATM    5  C20 UNL     1      18.191  54.084  37.489  1.00  0.00     0.111 A 
HETATM    6  C21 UNL     1      18.917  53.121  36.793  1.00  0.00     0.129 A 
ENDROOT
BRANCH   1   7
HETATM    7  N1  UNL     1      19.622  50.779  36.455  1.00  0.00    -0.349 N 
ATOM      8  H1  UNL     1      19.121  49.896  36.352  1.00  0.00     0.166 HD
BRANCH   7   9
HETATM    9  C6  UNL     1      20.897  50.818  35.884  1.00  0.00     0.073 A 
HETATM   10  C2  UNL     1      22.105  51.291  36.362  1.00  0.00     0.079 A 
HETATM   11  C1  UNL     1      22.395  51.863  37.702  1.00  0.00     0.079 C 
HETATM   12  O1  UNL     1      23.024  51.169  35.431  1.00  0.00    -0.290 OA
HETATM   13  C3  UNL     1      22.559  50.648  34.340  1.00  0.00     0.191 A 
HETATM   14  C4  UNL     1      21.219  50.410  34.578  1.00  0.00     0.025 A 
HETATM   15  C5  UNL     1      20.347  49.838  33.533  1.00  0.00     0.056 C 
BRANCH  13  16
HETATM   16  O2  UNL     1      23.280  50.385  33.159  1.00  0.00    -0.340 OA
ATOM     17  H2  UNL     1      23.079  49.725  32.506  1.00  0.00     0.220 HD
ENDBRANCH  13  16
ENDBRANCH   7   9
ENDBRANCH   1   7
BRANCH   2  18
HETATM   18  O3  UNL     1      18.181  50.043  38.691  1.00  0.00    -0.358 OA
ATOM     19  H3  UNL     1      18.388  49.792  39.583  1.00  0.00     0.217 HD
ENDBRANCH   2  18
BRANCH   6  20
HETATM   20  O7  UNL     1      19.626  53.569  35.708  1.00  0.00    -0.356 OA
ATOM     21  H7  UNL     1      19.563  54.470  35.413  1.00  0.00     0.218 HD
ENDBRANCH   6  20
BRANCH   5  22
HETATM   22  O6  UNL     1      18.243  55.394  37.043  1.00  0.00    -0.357 OA
ATOM     23  H6  UNL     1      19.048  55.882  36.917  1.00  0.00     0.217 HD
ENDBRANCH   5  22
BRANCH   4  24
HETATM   24  C11 UNL     1      16.694  54.640  39.331  1.00  0.00     0.014 C 
HETATM   25  C12 UNL     1      15.511  54.373  39.902  1.00  0.00     0.001 C 
BRANCH  25  26
HETATM   26  C13 UNL     1      14.844  55.440  40.621  1.00  0.00     0.000 C 
HETATM   27  C14 UNL     1      14.824  56.661  40.084  1.00  0.00    -0.000 C 
BRANCH  27  28
HETATM   28  C15 UNL     1      14.170  57.730  40.777  1.00  0.00    -0.004 C 
HETATM   29  C16 UNL     1      13.708  58.786  40.184  1.00  0.00    -0.026 C 
BRANCH  29  30
HETATM   30  C17 UNL     1      13.782  59.040  38.750  1.00  0.00     0.037 C 
BRANCH  30  31
HETATM   31  C18 UNL     1      12.538  59.843  38.329  1.00  0.00     0.117 C 
BRANCH  31  32
HETATM   32  C19 UNL     1      11.891  59.123  37.224  1.00  0.00     0.172 C 
HETATM   33  O4  UNL     1      11.372  59.742  36.263  1.00  0.00    -0.648 OA
HETATM   34  O5  UNL     1      11.872  57.714  37.279  1.00  0.00    -0.648 OA
ENDBRANCH  31  32
ENDBRANCH  30  31
ENDBRANCH  29  30
ENDBRANCH  27  28
ENDBRANCH  25  26
ENDBRANCH   4  24
TORSDOF 12
ENDMDL
MODEL 2
REMARK VINA RESULT: -9.258333035      2.398      2.932
REMARK  12 active torsions:
REMARK  status: ('A' for Active; 'I' for Inactive)
REMARK    1  A    between atoms: C3_4  and  O2_5 
REMARK    2  A    between atoms: C6_9  and  N1_10 
REMARK    3  A    between atoms: N1_10  and  C7_12 
REMARK    4  A    between atoms: C8_13  and  O3_14 
REMARK    5  A    between atoms: C10_17  and  C11_18 
REMARK    6  A    between atoms: C12_19  and  C13_20 
REMARK    7  A    between atoms: C14_21  and  C15_22 
REMARK    8  A    between atoms: C16_23  and  C17_24 
REMARK    9  A    between atoms: C17_24  and  C18_25 
REMARK   10  A    between atoms: C18_25  and  C19_26 
REMARK   11  A    between atoms: C20_29  and  O6_30 
REMARK   12  A    between atoms: C21_32  and  O7_33 
ROOT
HETATM    1  C7  UNL     1      19.476  51.552  36.938  1.00  0.00     0.102 A 
HETATM    2  C8  UNL     1      18.112  51.350  36.697  1.00  0.00     0.096 A 
HETATM    3  C9  UNL     1      17.249  52.341  37.110  1.00  0.00     0.053 A 
HETATM    4  C10 UNL     1      17.676  53.497  37.743  1.00  0.00     0.003 A 
HETATM    5  C20 UNL     1      19.017  53.692  37.982  1.00  0.00     0.111 A 
HETATM    6  C21 UNL     1      19.898  52.697  37.566  1.00  0.00     0.129 A 
ENDROOT
BRANCH   1   7
HETATM    7  N1  UNL     1      20.343  50.533  36.463  1.00  0.00    -0.349 N 
ATOM      8  H1  UNL     1      20.316  49.656  36.982  1.00  0.00     0.166 HD
BRANCH   7   9
HETATM    9  C6  UNL     1      21.228  50.567  35.382  1.00  0.00     0.073 A 
HETATM   10  C2  UNL     1      22.588  50.804  35.314  1.00  0.00     0.079 A 
HETATM   11  C1  UNL     1      23.531  51.043  36.438  1.00  0.00     0.079 C 
HETATM   12  O1  UNL     1      22.973  50.794  34.058  1.00  0.00    -0.290 OA
HETATM   13  C3  UNL     1      21.994  50.568  33.241  1.00  0.00     0.191 A 
HETATM   14  C4  UNL     1      20.871  50.419  34.031  1.00  0.00     0.025 A 
HETATM   15  C5  UNL     1      19.543  50.175  33.434  1.00  0.00     0.056 C 
BRANCH  13  16
HETATM   16  O2  UNL     1      22.070  50.494  31.836  1.00  0.00    -0.340 OA
ATOM     17  H2  UNL     1      21.825  49.755  31.292  1.00  0.00     0.220 HD
ENDBRANCH  13  16
ENDBRANCH   7   9
ENDBRANCH   1   7
BRANCH   2  18
HETATM   18  O3  UNL     1      17.631  50.199  36.070  1.00  0.00    -0.358 OA
ATOM     19  H3  UNL     1      17.922  49.935  35.205  1.00  0.00     0.217 HD
ENDBRANCH   2  18
BRANCH   6  20
HETATM   20  O7  UNL     1      21.227  52.926  37.818  1.00  0.00    -0.356 OA
ATOM     21  H7  UNL     1      21.742  52.323  38.342  1.00  0.00     0.218 HD
ENDBRANCH   6  20
BRANCH   5  22
HETATM   22  O6  UNL     1      19.539  54.811  38.608  1.00  0.00    -0.357 OA
ATOM     23  H6  UNL     1      20.367  55.215  38.374  1.00  0.00     0.217 HD
ENDBRANCH   5  22
BRANCH   4  24
HETATM   24  C11 UNL     1      16.727  54.510  38.156  1.00  0.00     0.014 C 
HETATM   25  C12 UNL     1      15.593  54.784  37.497  1.00  0.00     0.001 C 
BRANCH  25  26
HETATM   26  C13 UNL     1      14.734  55.827  38.021  1.00  0.00     0.000 C 
HETATM   27  C14 UNL     1      15.157  56.544  39.063  1.00  0.00    -0.000 C 
BRANCH  27  28
HETATM   28  C15 UNL     1      14.324  57.579  39.597  1.00  0.00    -0.004 C 
HETATM   29  C16 UNL     1      13.973  57.638  40.844  1.00  0.00    -0.026 C 
BRANCH  29  30
HETATM   30  C17 UNL     1      14.366  56.679  41.870  1.00  0.00     0.037 C 
BRANCH  30  31
HETATM   31  C18 UNL     1      13.102  56.212  42.614  1.00  0.00     0.117 C 
BRANCH  31  32
HETATM   32  C19 UNL     1      12.727  54.896  42.077  1.00  0.00     0.172 C 
HETATM   33  O4  UNL     1      13.446  54.314  41.228  1.00  0.00    -0.648 OA
HETATM   34  O5  UNL     1      11.533  54.311  42.544  1.00  0.00    -0.648 OA
ENDBRANCH  31  32
ENDBRANCH  30  31
ENDBRANCH  29  30
ENDBRANCH  27  28
ENDBRANCH  25  26
ENDBRANCH   4  24
TORSDOF 12
ENDMDL
MODEL 3
REMARK VINA RESULT: -9.152732810      2.461      3.159
REMARK  12 active torsions:
REMARK  status: ('A' for Active; 'I' for Inactive)
REMARK    1  A    between atoms: C3_4  and  O2_5 
REMARK    2  A    between atoms: C6_9  and  N1_10 
REMARK    3  A    between atoms: N1_10  and  C7_12 
REMARK    4  A    between atoms: C8_13  and  O3_14 
REMARK    5  A    between atoms: C10_17  and  C11_18 
REMARK    6  A    between atoms: C12_19  and  C13_20 
REMARK    7  A    between atoms: C14_21  and  C15_22 
REMARK    8  A    between atoms: C16_23  and  C17_24 
REMARK    9  A    between atoms: C17_24  and  C18_25 
REMARK   10  A    between atoms: C18_25  and  C19_26 
REMARK   11  A    between atoms: C20_29  and  O6_30 
REMARK   12  A    between atoms: C21_32  and  O7_33 
ROOT
HETATM    1  C7  UNL     1      19.431  51.669  36.931  1.00  0.00     0.102 A 
HETATM    2  C8  UNL     1      19.941  52.797  37.585  1.00  0.00     0.096 A 
HETATM    3  C9  UNL     1      19.040  53.779  37.936  1.00  0.00     0.053 A 
HETATM    4  C10 UNL     1      17.684  53.688  37.667  1.00  0.00     0.003 A 
HETATM    5  C20 UNL     1      17.185  52.579  37.022  1.00  0.00     0.111 A 
HETATM    6  C21 UNL     1      18.088  51.581  36.664  1.00  0.00     0.129 A 
ENDROOT
BRANCH   1   7
HETATM    7  N1  UNL     1      20.378  50.658  36.619  1.00  0.00    -0.349 N 
ATOM      8  H1  UNL     1      20.395  49.861  37.255  1.00  0.00     0.166 HD
BRANCH   7   9
HETATM    9  C6  UNL     1      21.290  50.605  35.562  1.00  0.00     0.073 A 
HETATM   10  C2  UNL     1      22.655  50.817  35.513  1.00  0.00     0.079 A 
HETATM   11  C1  UNL     1      23.574  51.116  36.642  1.00  0.00     0.079 C 
HETATM   12  O1  UNL     1      23.071  50.715  34.270  1.00  0.00    -0.290 OA
HETATM   13  C3  UNL     1      22.108  50.451  33.445  1.00  0.00     0.191 A 
HETATM   14  C4  UNL     1      20.964  50.373  34.215  1.00  0.00     0.025 A 
HETATM   15  C5  UNL     1      19.647  50.109  33.602  1.00  0.00     0.056 C 
BRANCH  13  16
HETATM   16  O2  UNL     1      22.217  50.281  32.051  1.00  0.00    -0.340 OA
ATOM     17  H2  UNL     1      22.330  50.966  31.402  1.00  0.00     0.220 HD
ENDBRANCH  13  16
ENDBRANCH   7   9
ENDBRANCH   1   7
BRANCH   2  18
HETATM   18  O3  UNL     1      21.300  52.939  37.870  1.00  0.00    -0.358 OA
ATOM     19  H3  UNL     1      21.778  53.736  37.671  1.00  0.00     0.217 HD
ENDBRANCH   2  18
BRANCH   6  20
HETATM   20  O7  UNL     1      17.556  50.490  36.025  1.00  0.00    -0.356 OA
ATOM     21  H7  UNL     1      16.911  50.587  35.335  1.00  0.00     0.218 HD
ENDBRANCH   6  20
BRANCH   5  22
HETATM   22  O6  UNL     1      15.849  52.399  36.709  1.00  0.00    -0.357 OA
ATOM     23  H6  UNL     1      15.483  51.585  36.385  1.00  0.00     0.217 HD
ENDBRANCH   5  22
BRANCH   4  24
HETATM   24  C11 UNL     1      16.778  54.747  38.060  1.00  0.00     0.014 C 
HETATM   25  C12 UNL     1      16.408  55.751  37.253  1.00  0.00     0.001 C 
BRANCH  25  26
HETATM   26  C13 UNL     1      15.495  56.747  37.778  1.00  0.00     0.000 C 
HETATM   27  C14 UNL     1      15.117  56.663  39.054  1.00  0.00    -0.000 C 
BRANCH  27  28
HETATM   28  C15 UNL     1      14.216  57.636  39.593  1.00  0.00    -0.004 C 
HETATM   29  C16 UNL     1      13.874  57.676  40.843  1.00  0.00    -0.026 C 
BRANCH  29  30
HETATM   30  C17 UNL     1      14.347  56.753  41.869  1.00  0.00     0.037 C 
BRANCH  30  31
HETATM   31  C18 UNL     1      13.132  56.236  42.659  1.00  0.00     0.117 C 
BRANCH  31  32
HETATM   32  C19 UNL     1      12.746  54.937  42.090  1.00  0.00     0.172 C 
HETATM   33  O4  UNL     1      13.461  54.371  41.226  1.00  0.00    -0.648 OA
HETATM   34  O5  UNL     1      11.549  54.348  42.544  1.00  0.00    -0.648 OA
ENDBRANCH  31  32
ENDBRANCH  30  31
ENDBRANCH  29  30
ENDBRANCH  27  28
ENDBRANCH  25  26
ENDBRANCH   4  24
TORSDOF 12
ENDMDL
MODEL 4
REMARK VINA RESULT: -9.143119402      0.504      1.645
REMARK  12 active torsions:
REMARK  status: ('A' for Active; 'I' for Inactive)
REMARK    1  A    between atoms: C3_4  and  O2_5 
REMARK    2  A    between atoms: C6_9  and  N1_10 
REMARK    3  A    between atoms: N1_10  and  C7_12 
REMARK    4  A    between atoms: C8_13  and  O3_14 
REMARK    5  A    between atoms: C10_17  and  C11_18 
REMARK    6  A    between atoms: C12_19  and  C13_20 
REMARK    7  A    between atoms: C14_21  and  C15_22 
REMARK    8  A    between atoms: C16_23  and  C17_24 
REMARK    9  A    between atoms: C17_24  and  C18_25 
REMARK   10  A    between atoms: C18_25  and  C19_26 
REMARK   11  A    between atoms: C20_29  and  O6_30 
REMARK   12  A    between atoms: C21_32  and  O7_33 
ROOT
HETATM    1  C7  UNL     1      19.039  51.893  37.042  1.00  0.00     0.102 A 
HETATM    2  C8  UNL     1      18.315  51.443  38.152  1.00  0.00     0.096 A 
HETATM    3  C9  UNL     1      17.592  52.384  38.851  1.00  0.00     0.053 A 
HETATM    4  C10 UNL     1      17.563  53.725  38.501  1.00  0.00     0.003 A 
HETATM    5  C20 UNL     1      18.278  54.165  37.411  1.00  0.00     0.111 A 
HETATM    6  C21 UNL     1      19.010  53.221  36.697  1.00  0.00     0.129 A 
ENDROOT
BRANCH   1   7
HETATM    7  N1  UNL     1      19.741  50.892  36.318  1.00  0.00    -0.349 N 
ATOM      8  H1  UNL     1      19.195  50.068  36.065  1.00  0.00     0.166 HD
BRANCH   7   9
HETATM    9  C6  UNL     1      21.076  50.881  35.905  1.00  0.00     0.073 A 
HETATM   10  C2  UNL     1      21.683  50.380  34.768  1.00  0.00     0.079 A 
HETATM   11  C1  UNL     1      21.036  49.737  33.595  1.00  0.00     0.079 C 
HETATM   12  O1  UNL     1      22.983  50.551  34.854  1.00  0.00    -0.290 OA
HETATM   13  C3  UNL     1      23.336  51.130  35.958  1.00  0.00     0.191 A 
HETATM   14  C4  UNL     1      22.165  51.357  36.654  1.00  0.00     0.025 A 
HETATM   15  C5  UNL     1      22.180  51.985  37.991  1.00  0.00     0.056 C 
BRANCH  13  16
HETATM   16  O2  UNL     1      24.647  51.454  36.357  1.00  0.00    -0.340 OA
ATOM     17  H2  UNL     1      24.940  52.276  36.733  1.00  0.00     0.220 HD
ENDBRANCH  13  16
ENDBRANCH   7   9
ENDBRANCH   1   7
BRANCH   2  18
HETATM   18  O3  UNL     1      18.320  50.105  38.549  1.00  0.00    -0.358 OA
ATOM     19  H3  UNL     1      19.112  49.666  38.835  1.00  0.00     0.217 HD
ENDBRANCH   2  18
BRANCH   6  20
HETATM   20  O7  UNL     1      19.709  53.694  35.615  1.00  0.00    -0.356 OA
ATOM     21  H7  UNL     1      19.319  54.307  35.004  1.00  0.00     0.218 HD
ENDBRANCH   6  20
BRANCH   5  22
HETATM   22  O6  UNL     1      18.312  55.481  36.986  1.00  0.00    -0.357 OA
ATOM     23  H6  UNL     1      18.529  55.750  36.101  1.00  0.00     0.217 HD
ENDBRANCH   5  22
BRANCH   4  24
HETATM   24  C11 UNL     1      16.784  54.674  39.269  1.00  0.00     0.014 C 
HETATM   25  C12 UNL     1      15.618  54.379  39.861  1.00  0.00     0.001 C 
BRANCH  25  26
HETATM   26  C13 UNL     1      14.942  55.428  40.598  1.00  0.00     0.000 C 
HETATM   27  C14 UNL     1      14.865  56.645  40.057  1.00  0.00    -0.000 C 
BRANCH  27  28
HETATM   28  C15 UNL     1      14.201  57.696  40.768  1.00  0.00    -0.004 C 
HETATM   29  C16 UNL     1      13.721  58.753  40.191  1.00  0.00    -0.026 C 
BRANCH  29  30
HETATM   30  C17 UNL     1      13.784  59.026  38.759  1.00  0.00     0.037 C 
BRANCH  30  31
HETATM   31  C18 UNL     1      12.525  59.814  38.355  1.00  0.00     0.117 C 
BRANCH  31  32
HETATM   32  C19 UNL     1      11.888  59.101  37.239  1.00  0.00     0.172 C 
HETATM   33  O4  UNL     1      11.411  59.725  36.260  1.00  0.00    -0.648 OA
HETATM   34  O5  UNL     1      11.828  57.694  37.306  1.00  0.00    -0.648 OA
ENDBRANCH  31  32
ENDBRANCH  30  31
ENDBRANCH  29  30
ENDBRANCH  27  28
ENDBRANCH  25  26
ENDBRANCH   4  24
TORSDOF 12
ENDMDL
MODEL 5
REMARK VINA RESULT: -9.082880418      2.344      3.645
REMARK  12 active torsions:
REMARK  status: ('A' for Active; 'I' for Inactive)
REMARK    1  A    between atoms: C3_4  and  O2_5 
REMARK    2  A    between atoms: C6_9  and  N1_10 
REMARK    3  A    between atoms: N1_10  and  C7_12 
REMARK    4  A    between atoms: C8_13  and  O3_14 
REMARK    5  A    between atoms: C10_17  and  C11_18 
REMARK    6  A    between atoms: C12_19  and  C13_20 
REMARK    7  A    between atoms: C14_21  and  C15_22 
REMARK    8  A    between atoms: C16_23  and  C17_24 
REMARK    9  A    between atoms: C17_24  and  C18_25 
REMARK   10  A    between atoms: C18_25  and  C19_26 
REMARK   11  A    between atoms: C20_29  and  O6_30 
REMARK   12  A    between atoms: C21_32  and  O7_33 
ROOT
HETATM    1  C7  UNL     1      17.608  54.549  36.436  1.00  0.00     0.102 A 
HETATM    2  C8  UNL     1      17.678  55.905  36.096  1.00  0.00     0.096 A 
HETATM    3  C9  UNL     1      16.735  56.741  36.652  1.00  0.00     0.053 A 
HETATM    4  C10 UNL     1      15.745  56.293  37.511  1.00  0.00     0.003 A 
HETATM    5  C20 UNL     1      15.676  54.959  37.843  1.00  0.00     0.111 A 
HETATM    6  C21 UNL     1      16.626  54.107  37.287  1.00  0.00     0.129 A 
ENDROOT
BRANCH   1   7
HETATM    7  N1  UNL     1      18.619  53.721  35.880  1.00  0.00    -0.349 N 
ATOM      8  H1  UNL     1      18.610  53.640  34.863  1.00  0.00     0.166 HD
BRANCH   7   9
HETATM    9  C6  UNL     1      19.622  53.002  36.534  1.00  0.00     0.073 A 
HETATM   10  C2  UNL     1      20.333  53.260  37.691  1.00  0.00     0.079 A 
HETATM   11  C1  UNL     1      20.173  54.403  38.626  1.00  0.00     0.079 C 
HETATM   12  O1  UNL     1      21.227  52.313  37.877  1.00  0.00    -0.290 OA
HETATM   13  C3  UNL     1      21.199  51.415  36.945  1.00  0.00     0.191 A 
HETATM   14  C4  UNL     1      20.202  51.807  36.074  1.00  0.00     0.025 A 
HETATM   15  C5  UNL     1      19.898  51.027  34.857  1.00  0.00     0.056 C 
BRANCH  13  16
HETATM   16  O2  UNL     1      22.022  50.276  36.848  1.00  0.00    -0.340 OA
ATOM     17  H2  UNL     1      22.284  49.829  36.051  1.00  0.00     0.220 HD
ENDBRANCH  13  16
ENDBRANCH   7   9
ENDBRANCH   1   7
BRANCH   2  18
HETATM   18  O3  UNL     1      18.652  56.403  35.228  1.00  0.00    -0.358 OA
ATOM     19  H3  UNL     1      18.646  57.303  34.925  1.00  0.00     0.217 HD
ENDBRANCH   2  18
BRANCH   6  20
HETATM   20  O7  UNL     1      16.528  52.785  37.641  1.00  0.00    -0.356 OA
ATOM     21  H7  UNL     1      17.185  52.152  37.373  1.00  0.00     0.218 HD
ENDBRANCH   6  20
BRANCH   5  22
HETATM   22  O6  UNL     1      14.724  54.419  38.690  1.00  0.00    -0.357 OA
ATOM     23  H6  UNL     1      13.825  54.241  38.437  1.00  0.00     0.217 HD
ENDBRANCH   5  22
BRANCH   4  24
HETATM   24  C11 UNL     1      14.778  57.214  38.072  1.00  0.00     0.014 C 
HETATM   25  C12 UNL     1      14.793  57.631  39.345  1.00  0.00     0.001 C 
BRANCH  25  26
HETATM   26  C13 UNL     1      13.762  58.554  39.775  1.00  0.00     0.000 C 
HETATM   27  C14 UNL     1      13.641  59.721  39.141  1.00  0.00    -0.000 C 
BRANCH  27  28
HETATM   28  C15 UNL     1      12.628  60.648  39.549  1.00  0.00    -0.004 C 
HETATM   29  C16 UNL     1      11.406  60.604  39.116  1.00  0.00    -0.026 C 
BRANCH  29  30
HETATM   30  C17 UNL     1      10.890  59.623  38.168  1.00  0.00     0.037 C 
BRANCH  30  31
HETATM   31  C18 UNL     1      10.054  60.361  37.107  1.00  0.00     0.117 C 
BRANCH  31  32
HETATM   32  C19 UNL     1       8.861  60.903  37.773  1.00  0.00     0.172 C 
HETATM   33  O4  UNL     1       8.729  62.138  37.961  1.00  0.00    -0.648 OA
HETATM   34  O5  UNL     1       7.872  59.992  38.197  1.00  0.00    -0.648 OA
ENDBRANCH  31  32
ENDBRANCH  30  31
ENDBRANCH  29  30
ENDBRANCH  27  28
ENDBRANCH  25  26
ENDBRANCH   4  24
TORSDOF 12
ENDMDL
