MODEL 1
REMARK VINA RESULT: -8.580795633      0.000      0.000
REMARK  12 active torsions:
REMARK  status: ('A' for Active; 'I' for Inactive)
REMARK    1  A    between atoms: C2_2  and  C3_3 
REMARK    2  A    between atoms: C3_3  and  C4_4 
REMARK    3  A    between atoms: C4_4  and  C5_5 
REMARK    4  A    between atoms: C5_5  and  C6_6 
REMARK    5  A    between atoms: C6_6  and  N1_7 
REMARK    6  A    between atoms: N1_7  and  C7_9 
REMARK    7  A    between atoms: C8_10  and  N2_11 
REMARK    8  A    between atoms: C9_13  and  C10_14 
REMARK    9  A    between atoms: C12_16  and  O2_17 
REMARK   10  A    between atoms: C13_19  and  O3_20 
REMARK   11  A    between atoms: C14_22  and  O4_23 
REMARK   12  A    between atoms: C15_25  and  O5_26 
ROOT
HETATM    1  C7  UNL     1      14.821  56.365  38.925  1.00  0.00     0.091 A 
HETATM    2  C8  UNL     1      14.711  57.174  37.812  1.00  0.00     0.125 A 
HETATM    3  C14 UNL     1      15.497  56.946  36.663  1.00  0.00     0.131 A 
HETATM    4  C15 UNL     1      16.394  55.910  36.626  1.00  0.00     0.114 A 
HETATM    5  C16 UNL     1      16.514  55.101  37.722  1.00  0.00     0.036 A 
HETATM    6  C17 UNL     1      17.323  54.025  37.931  1.00  0.00    -0.031 A 
HETATM    7  C18 UNL     1      18.308  53.441  36.981  1.00  0.00     0.050 C 
HETATM    8  C19 UNL     1      17.063  53.572  39.182  1.00  0.00     0.096 A 
HETATM    9  N3  UNL     1      16.112  54.374  39.702  1.00  0.00    -0.363 N 
ATOM     10  H3  UNL     1      15.728  54.259  40.640  1.00  0.00     0.165 HD
HETATM   11  C20 UNL     1      15.730  55.332  38.862  1.00  0.00     0.075 A 
ENDROOT
BRANCH   2  12
HETATM   12  N2  UNL     1      13.798  58.235  37.773  1.00  0.00    -0.221 N 
HETATM   13  O1  UNL     1      13.704  59.389  38.490  1.00  0.00    -0.267 OA
HETATM   14  C9  UNL     1      12.363  59.534  38.823  1.00  0.00     0.185 C 
HETATM   15  C12 UNL     1      11.552  58.911  37.713  1.00  0.00     0.200 C 
HETATM   16  C13 UNL     1      12.639  58.287  36.869  1.00  0.00     0.279 C 
BRANCH  14  17
HETATM   17  C10 UNL     1      11.982  60.964  39.076  1.00  0.00     0.033 C 
HETATM   18  C11 UNL     1      13.249  61.740  39.356  1.00  0.00     0.007 C 
ENDBRANCH  14  17
BRANCH  15  19
HETATM   19  O2  UNL     1      10.836  59.886  37.009  1.00  0.00    -0.388 OA
ATOM     20  H2  UNL     1      10.951  59.781  36.072  1.00  0.00     0.210 HD
ENDBRANCH  15  19
BRANCH  16  21
HETATM   21  O3  UNL     1      12.317  57.101  36.287  1.00  0.00    -0.372 OA
ATOM     22  H3  UNL     1      12.945  56.787  35.647  1.00  0.00     0.212 HD
ENDBRANCH  16  21
ENDBRANCH   2  12
BRANCH   1  23
HETATM   23  N1  UNL     1      14.044  56.643  40.052  1.00  0.00    -0.366 N 
ATOM     24  H1  UNL     1      13.096  56.271  40.006  1.00  0.00     0.165 HD
BRANCH  23  25
HETATM   25  C6  UNL     1      14.329  57.343  41.242  1.00  0.00     0.061 C 
BRANCH  25  26
HETATM   26  C5  UNL     1      13.690  56.903  42.508  1.00  0.00     0.044 C 
BRANCH  26  27
HETATM   27  C4  UNL     1      13.506  55.400  42.617  1.00  0.00     0.005 C 
BRANCH  27  28
HETATM   28  C3  UNL     1      12.035  55.037  42.723  1.00  0.00     0.000 C 
BRANCH  28  29
HETATM   29  C2  UNL     1      11.764  53.970  41.678  1.00  0.00    -0.005 C 
HETATM   30  C1  UNL     1      13.023  53.345  41.157  1.00  0.00     0.005 C 
ENDBRANCH  28  29
ENDBRANCH  27  28
ENDBRANCH  26  27
ENDBRANCH  25  26
ENDBRANCH  23  25
ENDBRANCH   1  23
BRANCH   3  31
HETATM   31  O4  UNL     1      15.359  57.781  35.564  1.00  0.00    -0.356 OA
ATOM     32  H4  UNL     1      14.490  58.011  35.256  1.00  0.00     0.218 HD
ENDBRANCH   3  31
BRANCH   4  33
HETATM   33  O5  UNL     1      17.171  55.674  35.509  1.00  0.00    -0.357 OA
ATOM     34  H5  UNL     1      17.745  54.919  35.458  1.00  0.00     0.217 HD
ENDBRANCH   4  33
TORSDOF 12
ENDMDL
MODEL 2
REMARK VINA RESULT: -8.565153924      0.851      1.027
REMARK  12 active torsions:
REMARK  status: ('A' for Active; 'I' for Inactive)
REMARK    1  A    between atoms: C2_2  and  C3_3 
REMARK    2  A    between atoms: C3_3  and  C4_4 
REMARK    3  A    between atoms: C4_4  and  C5_5 
REMARK    4  A    between atoms: C5_5  and  C6_6 
REMARK    5  A    between atoms: C6_6  and  N1_7 
REMARK    6  A    between atoms: N1_7  and  C7_9 
REMARK    7  A    between atoms: C8_10  and  N2_11 
REMARK    8  A    between atoms: C9_13  and  C10_14 
REMARK    9  A    between atoms: C12_16  and  O2_17 
REMARK   10  A    between atoms: C13_19  and  O3_20 
REMARK   11  A    between atoms: C14_22  and  O4_23 
REMARK   12  A    between atoms: C15_25  and  O5_26 
ROOT
HETATM    1  C7  UNL     1      15.322  55.604  38.499  1.00  0.00     0.091 A 
HETATM    2  C8  UNL     1      15.203  56.529  37.482  1.00  0.00     0.125 A 
HETATM    3  C14 UNL     1      15.961  56.415  36.298  1.00  0.00     0.131 A 
HETATM    4  C15 UNL     1      16.838  55.374  36.129  1.00  0.00     0.114 A 
HETATM    5  C16 UNL     1      16.966  54.450  37.129  1.00  0.00     0.036 A 
HETATM    6  C17 UNL     1      17.759  53.345  37.203  1.00  0.00    -0.031 A 
HETATM    7  C18 UNL     1      18.714  52.851  36.174  1.00  0.00     0.050 C 
HETATM    8  C19 UNL     1      17.518  52.764  38.405  1.00  0.00     0.096 A 
HETATM    9  N3  UNL     1      16.593  53.521  39.028  1.00  0.00    -0.363 N 
ATOM     10  H3  UNL     1      16.226  53.311  39.957  1.00  0.00     0.165 HD
HETATM   11  C20 UNL     1      16.210  54.570  38.305  1.00  0.00     0.075 A 
ENDROOT
BRANCH   2  12
HETATM   12  N2  UNL     1      14.308  57.602  37.578  1.00  0.00    -0.221 N 
HETATM   13  O1  UNL     1      14.255  58.679  38.410  1.00  0.00    -0.267 OA
HETATM   14  C9  UNL     1      12.927  58.810  38.795  1.00  0.00     0.185 C 
HETATM   15  C12 UNL     1      12.074  58.316  37.652  1.00  0.00     0.200 C 
HETATM   16  C13 UNL     1      13.127  57.764  36.717  1.00  0.00     0.279 C 
BRANCH  14  17
HETATM   17  C10 UNL     1      12.578  60.212  39.203  1.00  0.00     0.033 C 
HETATM   18  C11 UNL     1      13.865  60.928  39.548  1.00  0.00     0.007 C 
ENDBRANCH  14  17
BRANCH  15  19
HETATM   19  O2  UNL     1      11.357  59.368  37.072  1.00  0.00    -0.388 OA
ATOM     20  H2  UNL     1      10.622  59.040  36.567  1.00  0.00     0.210 HD
ENDBRANCH  15  19
BRANCH  16  21
HETATM   21  O3  UNL     1      12.767  56.649  36.027  1.00  0.00    -0.372 OA
ATOM     22  H3  UNL     1      12.687  55.862  36.555  1.00  0.00     0.212 HD
ENDBRANCH  16  21
ENDBRANCH   2  12
BRANCH   1  23
HETATM   23  N1  UNL     1      14.573  55.771  39.667  1.00  0.00    -0.366 N 
ATOM     24  H1  UNL     1      13.567  55.670  39.534  1.00  0.00     0.165 HD
BRANCH  23  25
HETATM   25  C6  UNL     1      14.952  56.053  40.994  1.00  0.00     0.061 C 
BRANCH  25  26
HETATM   26  C5  UNL     1      14.351  57.223  41.683  1.00  0.00     0.044 C 
BRANCH  26  27
HETATM   27  C4  UNL     1      13.078  56.904  42.445  1.00  0.00     0.005 C 
BRANCH  27  28
HETATM   28  C3  UNL     1      13.112  55.488  42.995  1.00  0.00     0.000 C 
BRANCH  28  29
HETATM   29  C2  UNL     1      11.803  54.827  42.601  1.00  0.00    -0.005 C 
HETATM   30  C1  UNL     1      11.992  53.748  41.579  1.00  0.00     0.005 C 
ENDBRANCH  28  29
ENDBRANCH  27  28
ENDBRANCH  26  27
ENDBRANCH  25  26
ENDBRANCH  23  25
ENDBRANCH   1  23
BRANCH   3  31
HETATM   31  O4  UNL     1      15.816  57.365  35.298  1.00  0.00    -0.356 OA
ATOM     32  H4  UNL     1      16.453  57.406  34.594  1.00  0.00     0.218 HD
ENDBRANCH   3  31
BRANCH   4  33
HETATM   33  O5  UNL     1      17.587  55.248  34.977  1.00  0.00    -0.357 OA
ATOM     34  H5  UNL     1      18.042  54.440  34.770  1.00  0.00     0.217 HD
ENDBRANCH   4  33
TORSDOF 12
ENDMDL
MODEL 3
REMARK VINA RESULT: -8.389864271      4.185      8.300
REMARK  12 active torsions:
REMARK  status: ('A' for Active; 'I' for Inactive)
REMARK    1  A    between atoms: C2_2  and  C3_3 
REMARK    2  A    between atoms: C3_3  and  C4_4 
REMARK    3  A    between atoms: C4_4  and  C5_5 
REMARK    4  A    between atoms: C5_5  and  C6_6 
REMARK    5  A    between atoms: C6_6  and  N1_7 
REMARK    6  A    between atoms: N1_7  and  C7_9 
REMARK    7  A    between atoms: C8_10  and  N2_11 
REMARK    8  A    between atoms: C9_13  and  C10_14 
REMARK    9  A    between atoms: C12_16  and  O2_17 
REMARK   10  A    between atoms: C13_19  and  O3_20 
REMARK   11  A    between atoms: C14_22  and  O4_23 
REMARK   12  A    between atoms: C15_25  and  O5_26 
ROOT
HETATM    1  C7  UNL     1      17.582  53.439  37.976  1.00  0.00     0.091 A 
HETATM    2  C8  UNL     1      18.061  52.194  38.328  1.00  0.00     0.125 A 
HETATM    3  C14 UNL     1      17.404  51.405  39.295  1.00  0.00     0.131 A 
HETATM    4  C15 UNL     1      16.267  51.860  39.911  1.00  0.00     0.114 A 
HETATM    5  C16 UNL     1      15.780  53.093  39.571  1.00  0.00     0.036 A 
HETATM    6  C17 UNL     1      14.686  53.759  40.035  1.00  0.00    -0.031 A 
HETATM    7  C18 UNL     1      13.714  53.292  41.059  1.00  0.00     0.050 C 
HETATM    8  C19 UNL     1      14.642  54.948  39.382  1.00  0.00     0.096 A 
HETATM    9  N3  UNL     1      15.698  54.977  38.545  1.00  0.00    -0.363 N 
ATOM     10  H3  UNL     1      15.908  55.762  37.929  1.00  0.00     0.165 HD
HETATM   11  C20 UNL     1      16.438  53.873  38.609  1.00  0.00     0.075 A 
ENDROOT
BRANCH   2  12
HETATM   12  N2  UNL     1      19.204  51.658  37.721  1.00  0.00    -0.221 N 
HETATM   13  O1  UNL     1      20.534  51.844  37.948  1.00  0.00    -0.267 OA
HETATM   14  C9  UNL     1      21.128  51.977  36.700  1.00  0.00     0.185 C 
HETATM   15  C12 UNL     1      20.329  51.143  35.728  1.00  0.00     0.200 C 
HETATM   16  C13 UNL     1      19.167  50.714  36.594  1.00  0.00     0.279 C 
BRANCH  14  17
HETATM   17  C10 UNL     1      22.583  51.605  36.709  1.00  0.00     0.033 C 
HETATM   18  C11 UNL     1      23.165  52.042  38.034  1.00  0.00     0.007 C 
ENDBRANCH  14  17
BRANCH  15  19
HETATM   19  O2  UNL     1      21.076  50.051  35.273  1.00  0.00    -0.388 OA
ATOM     20  H2  UNL     1      22.007  50.208  35.383  1.00  0.00     0.210 HD
ENDBRANCH  15  19
BRANCH  16  21
HETATM   21  O3  UNL     1      17.967  50.629  35.961  1.00  0.00    -0.372 OA
ATOM     22  H3  UNL     1      17.960  50.066  35.195  1.00  0.00     0.212 HD
ENDBRANCH  16  21
ENDBRANCH   2  12
BRANCH   1  23
HETATM   23  N1  UNL     1      18.279  54.200  37.034  1.00  0.00    -0.366 N 
ATOM     24  H1  UNL     1      18.250  53.820  36.087  1.00  0.00     0.165 HD
BRANCH  23  25
HETATM   25  C6  UNL     1      19.016  55.396  37.150  1.00  0.00     0.061 C 
BRANCH  25  26
HETATM   26  C5  UNL     1      18.849  56.449  36.116  1.00  0.00     0.044 C 
BRANCH  26  27
HETATM   27  C4  UNL     1      17.443  56.545  35.555  1.00  0.00     0.005 C 
BRANCH  27  28
HETATM   28  C3  UNL     1      16.543  57.355  36.472  1.00  0.00     0.000 C 
BRANCH  28  29
HETATM   29  C2  UNL     1      15.140  57.283  35.896  1.00  0.00    -0.005 C 
HETATM   30  C1  UNL     1      14.102  57.792  36.850  1.00  0.00     0.005 C 
ENDBRANCH  28  29
ENDBRANCH  27  28
ENDBRANCH  26  27
ENDBRANCH  25  26
ENDBRANCH  23  25
ENDBRANCH   1  23
BRANCH   3  31
HETATM   31  O4  UNL     1      17.917  50.159  39.624  1.00  0.00    -0.356 OA
ATOM     32  H4  UNL     1      18.857  50.047  39.712  1.00  0.00     0.218 HD
ENDBRANCH   3  31
BRANCH   4  33
HETATM   33  O5  UNL     1      15.612  51.100  40.859  1.00  0.00    -0.357 OA
ATOM     34  H5  UNL     1      14.899  50.519  40.619  1.00  0.00     0.217 HD
ENDBRANCH   4  33
TORSDOF 12
ENDMDL
MODEL 4
REMARK VINA RESULT: -8.282720577      4.264      8.400
REMARK  12 active torsions:
REMARK  status: ('A' for Active; 'I' for Inactive)
REMARK    1  A    between atoms: C2_2  and  C3_3 
REMARK    2  A    between atoms: C3_3  and  C4_4 
REMARK    3  A    between atoms: C4_4  and  C5_5 
REMARK    4  A    between atoms: C5_5  and  C6_6 
REMARK    5  A    between atoms: C6_6  and  N1_7 
REMARK    6  A    between atoms: N1_7  and  C7_9 
REMARK    7  A    between atoms: C8_10  and  N2_11 
REMARK    8  A    between atoms: C9_13  and  C10_14 
REMARK    9  A    between atoms: C12_16  and  O2_17 
REMARK   10  A    between atoms: C13_19  and  O3_20 
REMARK   11  A    between atoms: C14_22  and  O4_23 
REMARK   12  A    between atoms: C15_25  and  O5_26 
ROOT
HETATM    1  C7  UNL     1      18.313  54.107  37.853  1.00  0.00     0.091 A 
HETATM    2  C8  UNL     1      18.773  52.817  37.688  1.00  0.00     0.125 A 
HETATM    3  C14 UNL     1      18.077  51.718  38.236  1.00  0.00     0.131 A 
HETATM    4  C15 UNL     1      16.922  51.909  38.949  1.00  0.00     0.114 A 
HETATM    5  C16 UNL     1      16.455  53.183  39.122  1.00  0.00     0.036 A 
HETATM    6  C17 UNL     1      15.351  53.628  39.782  1.00  0.00    -0.031 A 
HETATM    7  C18 UNL     1      14.341  52.808  40.503  1.00  0.00     0.050 C 
HETATM    8  C19 UNL     1      15.336  54.979  39.663  1.00  0.00     0.096 A 
HETATM    9  N3  UNL     1      16.421  55.322  38.940  1.00  0.00    -0.363 N 
ATOM     10  H3  UNL     1      16.657  56.285  38.698  1.00  0.00     0.165 HD
HETATM   11  C20 UNL     1      17.151  54.272  38.574  1.00  0.00     0.075 A 
ENDROOT
BRANCH   2  12
HETATM   12  N2  UNL     1      19.932  52.548  36.950  1.00  0.00    -0.221 N 
HETATM   13  O1  UNL     1      20.134  51.920  35.759  1.00  0.00    -0.267 OA
HETATM   14  C9  UNL     1      21.232  51.088  35.936  1.00  0.00     0.185 C 
HETATM   15  C12 UNL     1      22.136  51.744  36.951  1.00  0.00     0.200 C 
HETATM   16  C13 UNL     1      21.286  52.916  37.389  1.00  0.00     0.279 C 
BRANCH  14  17
HETATM   17  C10 UNL     1      21.943  50.785  34.649  1.00  0.00     0.033 C 
HETATM   18  C11 UNL     1      20.907  50.343  33.640  1.00  0.00     0.007 C 
ENDBRANCH  14  17
BRANCH  15  19
HETATM   19  O2  UNL     1      23.335  52.157  36.360  1.00  0.00    -0.388 OA
ATOM     20  H2  UNL     1      23.171  52.775  35.657  1.00  0.00     0.210 HD
ENDBRANCH  15  19
BRANCH  16  21
HETATM   21  O3  UNL     1      21.389  53.252  38.702  1.00  0.00    -0.372 OA
ATOM     22  H3  UNL     1      21.608  52.532  39.282  1.00  0.00     0.212 HD
ENDBRANCH  16  21
ENDBRANCH   2  12
BRANCH   1  23
HETATM   23  N1  UNL     1      19.047  55.169  37.319  1.00  0.00    -0.366 N 
ATOM     24  H1  UNL     1      19.849  55.448  37.885  1.00  0.00     0.165 HD
BRANCH  23  25
HETATM   25  C6  UNL     1      18.885  55.925  36.141  1.00  0.00     0.061 C 
BRANCH  25  26
HETATM   26  C5  UNL     1      17.914  57.049  36.134  1.00  0.00     0.044 C 
BRANCH  26  27
HETATM   27  C4  UNL     1      16.550  56.682  35.577  1.00  0.00     0.005 C 
BRANCH  27  28
HETATM   28  C3  UNL     1      15.443  57.407  36.323  1.00  0.00     0.000 C 
BRANCH  28  29
HETATM   29  C2  UNL     1      14.212  56.520  36.265  1.00  0.00    -0.005 C 
HETATM   30  C1  UNL     1      12.975  57.225  36.732  1.00  0.00     0.005 C 
ENDBRANCH  28  29
ENDBRANCH  27  28
ENDBRANCH  26  27
ENDBRANCH  25  26
ENDBRANCH  23  25
ENDBRANCH   1  23
BRANCH   3  31
HETATM   31  O4  UNL     1      18.571  50.435  38.050  1.00  0.00    -0.356 OA
ATOM     32  H4  UNL     1      19.019  49.997  38.764  1.00  0.00     0.218 HD
ENDBRANCH   3  31
BRANCH   4  33
HETATM   33  O5  UNL     1      16.231  50.844  39.492  1.00  0.00    -0.357 OA
ATOM     34  H5  UNL     1      16.160  50.016  39.032  1.00  0.00     0.217 HD
ENDBRANCH   4  33
TORSDOF 12
ENDMDL
MODEL 5
REMARK VINA RESULT: -8.256660673      2.659      7.147
REMARK  12 active torsions:
REMARK  status: ('A' for Active; 'I' for Inactive)
REMARK    1  A    between atoms: C2_2  and  C3_3 
REMARK    2  A    between atoms: C3_3  and  C4_4 
REMARK    3  A    between atoms: C4_4  and  C5_5 
REMARK    4  A    between atoms: C5_5  and  C6_6 
REMARK    5  A    between atoms: C6_6  and  N1_7 
REMARK    6  A    between atoms: N1_7  and  C7_9 
REMARK    7  A    between atoms: C8_10  and  N2_11 
REMARK    8  A    between atoms: C9_13  and  C10_14 
REMARK    9  A    between atoms: C12_16  and  O2_17 
REMARK   10  A    between atoms: C13_19  and  O3_20 
REMARK   11  A    between atoms: C14_22  and  O4_23 
REMARK   12  A    between atoms: C15_25  and  O5_26 
ROOT
HETATM    1  C7  UNL     1      16.632  54.789  38.402  1.00  0.00     0.091 A 
HETATM    2  C8  UNL     1      17.319  54.849  37.207  1.00  0.00     0.125 A 
HETATM    3  C14 UNL     1      16.938  55.751  36.190  1.00  0.00     0.131 A 
HETATM    4  C15 UNL     1      15.870  56.592  36.368  1.00  0.00     0.114 A 
HETATM    5  C16 UNL     1      15.180  56.542  37.549  1.00  0.00     0.036 A 
HETATM    6  C17 UNL     1      14.098  57.261  37.960  1.00  0.00    -0.031 A 
HETATM    7  C18 UNL     1      13.377  58.318  37.202  1.00  0.00     0.050 C 
HETATM    8  C19 UNL     1      13.791  56.832  39.210  1.00  0.00     0.096 A 
HETATM    9  N3  UNL     1      14.684  55.872  39.527  1.00  0.00    -0.363 N 
ATOM     10  H3  UNL     1      14.684  55.374  40.417  1.00  0.00     0.165 HD
HETATM   11  C20 UNL     1      15.564  55.644  38.555  1.00  0.00     0.075 A 
ENDROOT
BRANCH   2  12
HETATM   12  N2  UNL     1      18.433  54.036  36.967  1.00  0.00    -0.221 N 
HETATM   13  O1  UNL     1      18.579  52.852  36.311  1.00  0.00    -0.267 OA
HETATM   14  C9  UNL     1      19.398  52.062  37.107  1.00  0.00     0.185 C 
HETATM   15  C12 UNL     1      20.340  52.985  37.842  1.00  0.00     0.200 C 
HETATM   16  C13 UNL     1      19.788  54.338  37.455  1.00  0.00     0.279 C 
BRANCH  14  17
HETATM   17  C10 UNL     1      20.127  51.010  36.322  1.00  0.00     0.033 C 
HETATM   18  C11 UNL     1      19.864  51.261  34.854  1.00  0.00     0.007 C 
ENDBRANCH  14  17
BRANCH  15  19
HETATM   19  O2  UNL     1      21.657  52.810  37.402  1.00  0.00    -0.388 OA
ATOM     20  H2  UNL     1      22.149  52.271  38.011  1.00  0.00     0.210 HD
ENDBRANCH  15  19
BRANCH  16  21
HETATM   21  O3  UNL     1      19.846  55.291  38.423  1.00  0.00    -0.372 OA
ATOM     22  H3  UNL     1      20.685  55.729  38.501  1.00  0.00     0.212 HD
ENDBRANCH  16  21
ENDBRANCH   2  12
BRANCH   1  23
HETATM   23  N1  UNL     1      17.025  53.862  39.371  1.00  0.00    -0.366 N 
ATOM     24  H1  UNL     1      17.903  54.092  39.835  1.00  0.00     0.165 HD
BRANCH  23  25
HETATM   25  C6  UNL     1      16.432  52.667  39.824  1.00  0.00     0.061 C 
BRANCH  25  26
HETATM   26  C5  UNL     1      17.292  51.479  40.059  1.00  0.00     0.044 C 
BRANCH  26  27
HETATM   27  C4  UNL     1      16.958  50.291  39.175  1.00  0.00     0.005 C 
BRANCH  27  28
HETATM   28  C3  UNL     1      16.107  50.715  37.990  1.00  0.00     0.000 C 
BRANCH  28  29
HETATM   29  C2  UNL     1      15.902  49.484  37.126  1.00  0.00    -0.005 C 
HETATM   30  C1  UNL     1      16.686  49.543  35.850  1.00  0.00     0.005 C 
ENDBRANCH  28  29
ENDBRANCH  27  28
ENDBRANCH  26  27
ENDBRANCH  25  26
ENDBRANCH  23  25
ENDBRANCH   1  23
BRANCH   3  31
HETATM   31  O4  UNL     1      17.651  55.782  35.001  1.00  0.00    -0.356 OA
ATOM     32  H4  UNL     1      18.579  55.988  35.016  1.00  0.00     0.218 HD
ENDBRANCH   3  31
BRANCH   4  33
HETATM   33  O5  UNL     1      15.484  57.479  35.384  1.00  0.00    -0.357 OA
ATOM     34  H5  UNL     1      15.275  58.383  35.589  1.00  0.00     0.217 HD
ENDBRANCH   4  33
TORSDOF 12
ENDMDL
