MODEL 1
REMARK VINA RESULT: -7.773930482      0.000      0.000
REMARK  10 active torsions:
REMARK  status: ('A' for Active; 'I' for Inactive)
REMARK    1  A    between atoms: C4_4  and  C5_5 
REMARK    2  A    between atoms: C5_5  and  N1_6 
REMARK    3  A    between atoms: C8_11  and  C9_12 
REMARK    4  A    between atoms: C9_12  and  C10_13 
REMARK    5  A    between atoms: N3_14  and  C11_15 
REMARK    6  A    between atoms: C11_15  and  C12_16 
REMARK    7  A    between atoms: C12_16  and  N4_17 
REMARK    8  A    between atoms: C17_25  and  C18_26 
REMARK    9  A    between atoms: C18_26  and  C19_27 
REMARK   10  A    between atoms: C19_27  and  C20_28 
ROOT
HETATM    1  C10 UNL     1      16.289 -12.458  20.566  1.00  0.00     0.038 A 
HETATM    2  N3  UNL     1      15.338 -13.196  21.148  1.00  0.00    -0.331 N 
HETATM    3  C16 UNL     1      14.072 -12.608  21.464  1.00  0.00     0.111 A 
HETATM    4  N5  UNL     1      13.185 -13.376  22.039  1.00  0.00    -0.385 N 
ATOM      5  H51 UNL     1      12.284 -12.957  22.264  1.00  0.00     0.157 HD
ATOM      6  H52 UNL     1      13.402 -14.353  22.237  1.00  0.00     0.157 HD
HETATM    7  C17 UNL     1      13.765 -11.226  21.184  1.00  0.00     0.004 A 
HETATM    8  C21 UNL     1      14.818 -10.459  20.563  1.00  0.00     0.017 A 
HETATM    9  C22 UNL     1      15.986 -11.075  20.290  1.00  0.00     0.031 A 
ENDROOT
BRANCH   1  10
HETATM   10  C9  UNL     1      17.534 -13.089  20.275  1.00  0.00     0.059 C 
BRANCH  10  11
HETATM   11  C8  UNL     1      18.739 -13.193  20.705  1.00  0.00     0.040 A 
HETATM   12  C2  UNL     1      19.953 -12.747  20.321  1.00  0.00    -0.033 A 
HETATM   13  C1  UNL     1      20.484 -12.175  19.068  1.00  0.00     0.050 C 
HETATM   14  C3  UNL     1      20.881 -13.012  21.356  1.00  0.00     0.039 A 
HETATM   15  C4  UNL     1      20.216 -13.625  22.357  1.00  0.00     0.048 A 
HETATM   16  N2  UNL     1      18.957 -13.740  21.988  1.00  0.00    -0.355 N 
ATOM     17  H2  UNL     1      18.230 -14.171  22.559  1.00  0.00     0.166 HD
BRANCH  15  18
HETATM   18  C5  UNL     1      20.700 -14.053  23.539  1.00  0.00     0.114 C 
BRANCH  18  19
HETATM   19  N1  UNL     1      21.455 -13.243  24.406  1.00  0.00    -0.397 N 
HETATM   20  C6  UNL     1      20.812 -12.411  25.402  1.00  0.00     0.148 C 
HETATM   21  C7  UNL     1      22.907 -13.219  24.328  1.00  0.00     0.148 C 
ENDBRANCH  18  19
ENDBRANCH  15  18
ENDBRANCH  10  11
ENDBRANCH   1  10
BRANCH   2  22
HETATM   22  C11 UNL     1      15.546 -14.584  21.477  1.00  0.00     0.158 C 
BRANCH  22  23
HETATM   23  C12 UNL     1      15.336 -15.536  20.339  1.00  0.00     0.256 C 
BRANCH  23  24
HETATM   24  N4  UNL     1      14.379 -16.560  20.611  1.00  0.00    -0.077 N 
HETATM   25  C13 UNL     1      14.924 -17.792  20.013  1.00  0.00     0.271 C 
HETATM   26  C14 UNL     1      13.083 -16.374  20.042  1.00  0.00     0.271 C 
HETATM   27  C15 UNL     1      14.224 -16.837  22.026  1.00  0.00     0.271 C 
ENDBRANCH  23  24
ENDBRANCH  22  23
ENDBRANCH   2  22
BRANCH   7  28
HETATM   28  C18 UNL     1      12.610 -10.670  21.467  1.00  0.00    -0.003 C 
BRANCH  28  29
HETATM   29  C19 UNL     1      12.326  -9.653  22.477  1.00  0.00     0.127 C 
BRANCH  29  30
HETATM   30  C20 UNL     1      11.423 -10.144  23.550  1.00  0.00     0.234 C 
HETATM   31  N6  UNL     1      11.043 -11.510  23.536  1.00  0.00    -0.062 NA
HETATM   32  O1  UNL     1      10.983  -9.413  24.464  1.00  0.00    -0.277 OA
ENDBRANCH  29  30
ENDBRANCH  28  29
ENDBRANCH   7  28
TORSDOF 10
ENDMDL
MODEL 2
REMARK VINA RESULT: -7.594945888      2.309      3.438
REMARK  10 active torsions:
REMARK  status: ('A' for Active; 'I' for Inactive)
REMARK    1  A    between atoms: C4_4  and  C5_5 
REMARK    2  A    between atoms: C5_5  and  N1_6 
REMARK    3  A    between atoms: C8_11  and  C9_12 
REMARK    4  A    between atoms: C9_12  and  C10_13 
REMARK    5  A    between atoms: N3_14  and  C11_15 
REMARK    6  A    between atoms: C11_15  and  C12_16 
REMARK    7  A    between atoms: C12_16  and  N4_17 
REMARK    8  A    between atoms: C17_25  and  C18_26 
REMARK    9  A    between atoms: C18_26  and  C19_27 
REMARK   10  A    between atoms: C19_27  and  C20_28 
ROOT
HETATM    1  C10 UNL     1      16.265 -12.739  20.500  1.00  0.00     0.038 A 
HETATM    2  N3  UNL     1      15.738 -11.937  19.570  1.00  0.00    -0.331 N 
HETATM    3  C16 UNL     1      14.457 -11.336  19.790  1.00  0.00     0.111 A 
HETATM    4  N5  UNL     1      13.990 -10.567  18.843  1.00  0.00    -0.385 N 
ATOM      5  H51 UNL     1      13.078 -10.139  18.999  1.00  0.00     0.157 HD
ATOM      6  H52 UNL     1      14.534 -10.407  17.995  1.00  0.00     0.157 HD
HETATM    7  C17 UNL     1      13.688 -11.562  20.989  1.00  0.00     0.004 A 
HETATM    8  C21 UNL     1      14.285 -12.439  21.966  1.00  0.00     0.017 A 
HETATM    9  C22 UNL     1      15.495 -12.971  21.698  1.00  0.00     0.031 A 
ENDROOT
BRANCH   1  10
HETATM   10  C9  UNL     1      17.541 -13.316  20.233  1.00  0.00     0.059 C 
BRANCH  10  11
HETATM   11  C8  UNL     1      18.747 -13.351  20.672  1.00  0.00     0.040 A 
HETATM   12  C2  UNL     1      19.933 -12.821  20.305  1.00  0.00    -0.033 A 
HETATM   13  C1  UNL     1      20.436 -12.195  19.066  1.00  0.00     0.050 C 
HETATM   14  C3  UNL     1      20.869 -13.043  21.344  1.00  0.00     0.039 A 
HETATM   15  C4  UNL     1      20.236 -13.714  22.330  1.00  0.00     0.048 A 
HETATM   16  N2  UNL     1      18.991 -13.903  21.948  1.00  0.00    -0.355 N 
ATOM     17  H2  UNL     1      18.288 -14.390  22.505  1.00  0.00     0.166 HD
BRANCH  15  18
HETATM   18  C5  UNL     1      20.737 -14.130  23.509  1.00  0.00     0.114 C 
BRANCH  18  19
HETATM   19  N1  UNL     1      21.476 -13.300  24.372  1.00  0.00    -0.397 N 
HETATM   20  C6  UNL     1      22.923 -13.259  24.313  1.00  0.00     0.148 C 
HETATM   21  C7  UNL     1      20.806 -12.458  25.350  1.00  0.00     0.148 C 
ENDBRANCH  18  19
ENDBRANCH  15  18
ENDBRANCH  10  11
ENDBRANCH   1  10
BRANCH   2  22
HETATM   22  C11 UNL     1      16.422 -11.652  18.334  1.00  0.00     0.158 C 
BRANCH  22  23
HETATM   23  C12 UNL     1      15.993 -12.494  17.172  1.00  0.00     0.256 C 
BRANCH  23  24
HETATM   24  N4  UNL     1      16.241 -11.895  15.900  1.00  0.00    -0.077 N 
HETATM   25  C13 UNL     1      16.190 -12.993  14.918  1.00  0.00     0.271 C 
HETATM   26  C14 UNL     1      17.514 -11.269  15.740  1.00  0.00     0.271 C 
HETATM   27  C15 UNL     1      15.213 -10.953  15.501  1.00  0.00     0.271 C 
ENDBRANCH  23  24
ENDBRANCH  22  23
ENDBRANCH   2  22
BRANCH   7  28
HETATM   28  C18 UNL     1      12.512 -11.020  21.208  1.00  0.00    -0.003 C 
BRANCH  28  29
HETATM   29  C19 UNL     1      12.198  -9.857  22.034  1.00  0.00     0.127 C 
BRANCH  29  30
HETATM   30  C20 UNL     1      11.487 -10.217  23.288  1.00  0.00     0.234 C 
HETATM   31  N6  UNL     1      11.220  -9.189  24.228  1.00  0.00    -0.062 NA
HETATM   32  O1  UNL     1      11.113 -11.379  23.555  1.00  0.00    -0.277 OA
ENDBRANCH  29  30
ENDBRANCH  28  29
ENDBRANCH   7  28
TORSDOF 10
ENDMDL
MODEL 3
REMARK VINA RESULT: -7.430943401      0.912      1.120
REMARK  10 active torsions:
REMARK  status: ('A' for Active; 'I' for Inactive)
REMARK    1  A    between atoms: C4_4  and  C5_5 
REMARK    2  A    between atoms: C5_5  and  N1_6 
REMARK    3  A    between atoms: C8_11  and  C9_12 
REMARK    4  A    between atoms: C9_12  and  C10_13 
REMARK    5  A    between atoms: N3_14  and  C11_15 
REMARK    6  A    between atoms: C11_15  and  C12_16 
REMARK    7  A    between atoms: C12_16  and  N4_17 
REMARK    8  A    between atoms: C17_25  and  C18_26 
REMARK    9  A    between atoms: C18_26  and  C19_27 
REMARK   10  A    between atoms: C19_27  and  C20_28 
ROOT
HETATM    1  C10 UNL     1      15.928 -12.548  20.633  1.00  0.00     0.038 A 
HETATM    2  N3  UNL     1      15.015 -13.378  21.149  1.00  0.00    -0.331 N 
HETATM    3  C16 UNL     1      13.760 -12.862  21.606  1.00  0.00     0.111 A 
HETATM    4  N5  UNL     1      12.911 -13.719  22.106  1.00  0.00    -0.385 N 
ATOM      5  H51 UNL     1      12.017 -13.352  22.433  1.00  0.00     0.157 HD
ATOM      6  H52 UNL     1      13.147 -14.711  22.151  1.00  0.00     0.157 HD
HETATM    7  C17 UNL     1      13.426 -11.460  21.542  1.00  0.00     0.004 A 
HETATM    8  C21 UNL     1      14.439 -10.594  20.988  1.00  0.00     0.017 A 
HETATM    9  C22 UNL     1      15.598 -11.145  20.574  1.00  0.00     0.031 A 
ENDROOT
BRANCH   1  10
HETATM   10  C9  UNL     1      17.163 -13.110  20.195  1.00  0.00     0.059 C 
BRANCH  10  11
HETATM   11  C8  UNL     1      18.382 -13.279  20.560  1.00  0.00     0.040 A 
HETATM   12  C2  UNL     1      19.585 -12.787  20.198  1.00  0.00    -0.033 A 
HETATM   13  C1  UNL     1      20.075 -12.044  19.021  1.00  0.00     0.050 C 
HETATM   14  C3  UNL     1      20.548 -13.201  21.149  1.00  0.00     0.039 A 
HETATM   15  C4  UNL     1      19.915 -13.949  22.076  1.00  0.00     0.048 A 
HETATM   16  N2  UNL     1      18.643 -14.005  21.742  1.00  0.00    -0.355 N 
ATOM     17  H2  UNL     1      17.933 -14.510  22.273  1.00  0.00     0.166 HD
BRANCH  15  18
HETATM   18  C5  UNL     1      20.438 -14.543  23.166  1.00  0.00     0.114 C 
BRANCH  18  19
HETATM   19  N1  UNL     1      19.795 -14.572  24.417  1.00  0.00    -0.397 N 
HETATM   20  C6  UNL     1      19.839 -13.430  25.307  1.00  0.00     0.148 C 
HETATM   21  C7  UNL     1      19.065 -15.752  24.852  1.00  0.00     0.148 C 
ENDBRANCH  18  19
ENDBRANCH  15  18
ENDBRANCH  10  11
ENDBRANCH   1  10
BRANCH   2  22
HETATM   22  C11 UNL     1      15.252 -14.795  21.264  1.00  0.00     0.158 C 
BRANCH  22  23
HETATM   23  C12 UNL     1      14.780 -15.606  20.097  1.00  0.00     0.256 C 
BRANCH  23  24
HETATM   24  N4  UNL     1      14.035 -16.768  20.462  1.00  0.00    -0.077 N 
HETATM   25  C13 UNL     1      14.650 -17.891  19.734  1.00  0.00     0.271 C 
HETATM   26  C14 UNL     1      12.653 -16.763  20.106  1.00  0.00     0.271 C 
HETATM   27  C15 UNL     1      14.144 -17.097  21.871  1.00  0.00     0.271 C 
ENDBRANCH  23  24
ENDBRANCH  22  23
ENDBRANCH   2  22
BRANCH   7  28
HETATM   28  C18 UNL     1      12.281 -10.969  21.958  1.00  0.00    -0.003 C 
BRANCH  28  29
HETATM   29  C19 UNL     1      11.979  -9.591  22.338  1.00  0.00     0.127 C 
BRANCH  29  30
HETATM   30  C20 UNL     1      11.472  -9.477  23.730  1.00  0.00     0.234 C 
HETATM   31  N6  UNL     1      11.006 -10.651  24.374  1.00  0.00    -0.062 NA
HETATM   32  O1  UNL     1      11.436  -8.398  24.361  1.00  0.00    -0.277 OA
ENDBRANCH  29  30
ENDBRANCH  28  29
ENDBRANCH   7  28
TORSDOF 10
ENDMDL
MODEL 4
REMARK VINA RESULT: -7.113906143      2.099      3.842
REMARK  10 active torsions:
REMARK  status: ('A' for Active; 'I' for Inactive)
REMARK    1  A    between atoms: C4_4  and  C5_5 
REMARK    2  A    between atoms: C5_5  and  N1_6 
REMARK    3  A    between atoms: C8_11  and  C9_12 
REMARK    4  A    between atoms: C9_12  and  C10_13 
REMARK    5  A    between atoms: N3_14  and  C11_15 
REMARK    6  A    between atoms: C11_15  and  C12_16 
REMARK    7  A    between atoms: C12_16  and  N4_17 
REMARK    8  A    between atoms: C17_25  and  C18_26 
REMARK    9  A    between atoms: C18_26  and  C19_27 
REMARK   10  A    between atoms: C19_27  and  C20_28 
ROOT
HETATM    1  C10 UNL     1      14.001 -13.027  21.353  1.00  0.00     0.038 A 
HETATM    2  N3  UNL     1      14.387 -11.778  21.073  1.00  0.00    -0.331 N 
HETATM    3  C16 UNL     1      13.578 -10.672  21.486  1.00  0.00     0.111 A 
HETATM    4  N5  UNL     1      14.002  -9.476  21.179  1.00  0.00    -0.385 N 
ATOM      5  H51 UNL     1      13.425  -8.688  21.472  1.00  0.00     0.157 HD
ATOM      6  H52 UNL     1      14.880  -9.356  20.673  1.00  0.00     0.157 HD
HETATM    7  C17 UNL     1      12.336 -10.843  22.202  1.00  0.00     0.004 A 
HETATM    8  C21 UNL     1      11.948 -12.204  22.479  1.00  0.00     0.017 A 
HETATM    9  C22 UNL     1      12.757 -13.200  22.063  1.00  0.00     0.031 A 
ENDROOT
BRANCH   1  10
HETATM   10  C9  UNL     1      14.840 -14.095  20.917  1.00  0.00     0.059 C 
BRANCH  10  11
HETATM   11  C8  UNL     1      15.845 -14.805  21.283  1.00  0.00     0.040 A 
HETATM   12  C2  UNL     1      16.500 -15.886  20.807  1.00  0.00    -0.033 A 
HETATM   13  C1  UNL     1      16.179 -16.916  19.801  1.00  0.00     0.050 C 
HETATM   14  C3  UNL     1      17.690 -16.058  21.554  1.00  0.00     0.039 A 
HETATM   15  C4  UNL     1      17.738 -15.078  22.481  1.00  0.00     0.048 A 
HETATM   16  N2  UNL     1      16.661 -14.337  22.335  1.00  0.00    -0.355 N 
ATOM     17  H2  UNL     1      16.442 -13.524  22.912  1.00  0.00     0.166 HD
BRANCH  15  18
HETATM   18  C5  UNL     1      18.693 -14.852  23.404  1.00  0.00     0.114 C 
BRANCH  18  19
HETATM   19  N1  UNL     1      20.062 -14.755  23.094  1.00  0.00    -0.397 N 
HETATM   20  C6  UNL     1      20.587 -13.615  22.371  1.00  0.00     0.148 C 
HETATM   21  C7  UNL     1      20.992 -15.800  23.494  1.00  0.00     0.148 C 
ENDBRANCH  18  19
ENDBRANCH  15  18
ENDBRANCH  10  11
ENDBRANCH   1  10
BRANCH   2  22
HETATM   22  C11 UNL     1      15.607 -11.501  20.357  1.00  0.00     0.158 C 
BRANCH  22  23
HETATM   23  C12 UNL     1      15.438 -11.318  18.880  1.00  0.00     0.256 C 
BRANCH  23  24
HETATM   24  N4  UNL     1      16.329 -12.109  18.093  1.00  0.00    -0.077 N 
HETATM   25  C13 UNL     1      17.499 -12.377  18.949  1.00  0.00     0.271 C 
HETATM   26  C14 UNL     1      16.830 -11.495  16.906  1.00  0.00     0.271 C 
HETATM   27  C15 UNL     1      15.784 -13.407  17.744  1.00  0.00     0.271 C 
ENDBRANCH  23  24
ENDBRANCH  22  23
ENDBRANCH   2  22
BRANCH   7  28
HETATM   28  C18 UNL     1      11.580  -9.840  22.588  1.00  0.00    -0.003 C 
BRANCH  28  29
HETATM   29  C19 UNL     1      11.269  -9.424  23.953  1.00  0.00     0.127 C 
BRANCH  29  30
HETATM   30  C20 UNL     1      11.818  -8.084  24.286  1.00  0.00     0.234 C 
HETATM   31  N6  UNL     1      13.080  -7.723  23.750  1.00  0.00    -0.062 NA
HETATM   32  O1  UNL     1      11.222  -7.260  25.013  1.00  0.00    -0.277 OA
ENDBRANCH  29  30
ENDBRANCH  28  29
ENDBRANCH   7  28
TORSDOF 10
ENDMDL
MODEL 5
REMARK VINA RESULT: -7.078926323      1.296      1.581
REMARK  10 active torsions:
REMARK  status: ('A' for Active; 'I' for Inactive)
REMARK    1  A    between atoms: C4_4  and  C5_5 
REMARK    2  A    between atoms: C5_5  and  N1_6 
REMARK    3  A    between atoms: C8_11  and  C9_12 
REMARK    4  A    between atoms: C9_12  and  C10_13 
REMARK    5  A    between atoms: N3_14  and  C11_15 
REMARK    6  A    between atoms: C11_15  and  C12_16 
REMARK    7  A    between atoms: C12_16  and  N4_17 
REMARK    8  A    between atoms: C17_25  and  C18_26 
REMARK    9  A    between atoms: C18_26  and  C19_27 
REMARK   10  A    between atoms: C19_27  and  C20_28 
ROOT
HETATM    1  C10 UNL     1      15.431 -12.198  20.843  1.00  0.00     0.038 A 
HETATM    2  N3  UNL     1      14.425 -12.910  21.363  1.00  0.00    -0.331 N 
HETATM    3  C16 UNL     1      13.232 -12.248  21.797  1.00  0.00     0.111 A 
HETATM    4  N5  UNL     1      12.288 -12.994  22.302  1.00  0.00    -0.385 N 
ATOM      5  H51 UNL     1      11.438 -12.523  22.612  1.00  0.00     0.157 HD
ATOM      6  H52 UNL     1      12.410 -14.005  22.367  1.00  0.00     0.157 HD
HETATM    7  C17 UNL     1      13.059 -10.818  21.704  1.00  0.00     0.004 A 
HETATM    8  C21 UNL     1      14.168 -10.083  21.146  1.00  0.00     0.017 A 
HETATM    9  C22 UNL     1      15.262 -10.768  20.755  1.00  0.00     0.031 A 
ENDROOT
BRANCH   1  10
HETATM   10  C9  UNL     1      16.599 -12.903  20.429  1.00  0.00     0.059 C 
BRANCH  10  11
HETATM   11  C8  UNL     1      17.803 -13.164  20.790  1.00  0.00     0.040 A 
HETATM   12  C2  UNL     1      19.040 -12.784  20.406  1.00  0.00    -0.033 A 
HETATM   13  C1  UNL     1      19.579 -12.116  19.206  1.00  0.00     0.050 C 
HETATM   14  C3  UNL     1      19.974 -13.252  21.362  1.00  0.00     0.039 A 
HETATM   15  C4  UNL     1      19.288 -13.919  22.313  1.00  0.00     0.048 A 
HETATM   16  N2  UNL     1      18.013 -13.878  21.990  1.00  0.00    -0.355 N 
ATOM     17  H2  UNL     1      17.268 -14.308  22.539  1.00  0.00     0.166 HD
BRANCH  15  18
HETATM   18  C5  UNL     1      19.770 -14.527  23.415  1.00  0.00     0.114 C 
BRANCH  18  19
HETATM   19  N1  UNL     1      20.799 -13.989  24.209  1.00  0.00    -0.397 N 
HETATM   20  C6  UNL     1      20.556 -12.863  25.087  1.00  0.00     0.148 C 
HETATM   21  C7  UNL     1      22.140 -14.551  24.171  1.00  0.00     0.148 C 
ENDBRANCH  18  19
ENDBRANCH  15  18
ENDBRANCH  10  11
ENDBRANCH   1  10
BRANCH   2  22
HETATM   22  C11 UNL     1      14.501 -14.342  21.506  1.00  0.00     0.158 C 
BRANCH  22  23
HETATM   23  C12 UNL     1      13.978 -15.117  20.336  1.00  0.00     0.256 C 
BRANCH  23  24
HETATM   24  N4  UNL     1      13.508 -16.424  20.669  1.00  0.00    -0.077 N 
HETATM   25  C13 UNL     1      12.056 -16.291  20.882  1.00  0.00     0.271 C 
HETATM   26  C14 UNL     1      14.041 -16.995  21.864  1.00  0.00     0.271 C 
HETATM   27  C15 UNL     1      13.670 -17.381  19.592  1.00  0.00     0.271 C 
ENDBRANCH  23  24
ENDBRANCH  22  23
ENDBRANCH   2  22
BRANCH   7  28
HETATM   28  C18 UNL     1      11.973 -10.194  22.098  1.00  0.00    -0.003 C 
BRANCH  28  29
HETATM   29  C19 UNL     1      11.569  -9.867  23.463  1.00  0.00     0.127 C 
BRANCH  29  30
HETATM   30  C20 UNL     1      11.981  -8.499  23.872  1.00  0.00     0.234 C 
HETATM   31  N6  UNL     1      11.064  -7.715  24.616  1.00  0.00    -0.062 NA
HETATM   32  O1  UNL     1      13.096  -8.006  23.594  1.00  0.00    -0.277 OA
ENDBRANCH  29  30
ENDBRANCH  28  29
ENDBRANCH   7  28
TORSDOF 10
ENDMDL
