MODEL 1
REMARK VINA RESULT: -6.924354062      0.000      0.000
REMARK  11 active torsions:
REMARK  status: ('A' for Active; 'I' for Inactive)
REMARK    1  A    between atoms: C4_5  and  C5_6 
REMARK    2  A    between atoms: C6_7  and  C7_8 
REMARK    3  A    between atoms: C7_8  and  C8_9 
REMARK    4  A    between atoms: C8_9  and  C9_10 
REMARK    5  A    between atoms: C9_10  and  C10_11 
REMARK    6  A    between atoms: C10_11  and  O1_12 
REMARK    7  A    between atoms: N3_20  and  C15_21 
REMARK    8  A    between atoms: C15_21  and  C16_22 
REMARK    9  A    between atoms: C16_22  and  O2_23 
REMARK   10  A    between atoms: C16_22  and  C17_25 
REMARK   11  A    between atoms: C17_25  and  O3_26 
ROOT
HETATM    1  C5  UNL     1     -27.175   1.820  15.396  1.00  0.00     0.052 A 
HETATM    2  C6  UNL     1     -26.609   1.810  16.632  1.00  0.00    -0.028 A 
HETATM    3  C11 UNL     1     -25.202   1.827  16.738  1.00  0.00     0.043 A 
HETATM    4  C12 UNL     1     -24.391   1.855  15.629  1.00  0.00     0.080 A 
HETATM    5  C13 UNL     1     -25.041   1.864  14.393  1.00  0.00     0.136 A 
HETATM    6  N2  UNL     1     -24.048   1.891  13.485  1.00  0.00    -0.336 N 
ATOM      7  H2  UNL     1     -24.176   1.905  12.473  1.00  0.00     0.168 HD
HETATM    8  C14 UNL     1     -22.859   1.898  14.116  1.00  0.00     0.185 A 
HETATM    9  N3  UNL     1     -23.060   1.877  15.448  1.00  0.00    -0.337 N 
HETATM   10  N4  UNL     1     -26.362   1.847  14.286  1.00  0.00    -0.335 N 
HETATM   11  C18 UNL     1     -27.038   1.856  12.986  1.00  0.00     0.158 C 
ENDROOT
BRANCH   1  12
HETATM   12  C4  UNL     1     -28.615   1.784  15.227  1.00  0.00    -0.006 A 
HETATM   13  C3  UNL     1     -29.394   2.947  15.232  1.00  0.00     0.031 A 
HETATM   14  C2  UNL     1     -30.764   2.852  15.109  1.00  0.00     0.090 A 
HETATM   15  N1  UNL     1     -31.413   1.693  14.984  1.00  0.00    -0.371 N 
HETATM   16  C1  UNL     1     -32.877   1.641  14.858  1.00  0.00     0.154 C 
HETATM   17  C20 UNL     1     -30.685   0.558  14.977  1.00  0.00     0.090 A 
HETATM   18  C19 UNL     1     -29.316   0.614  15.097  1.00  0.00     0.031 A 
ENDBRANCH   1  12
BRANCH   2  19
HETATM   19  C7  UNL     1     -27.401   1.803  17.863  1.00  0.00     0.041 C 
BRANCH  19  20
HETATM   20  C8  UNL     1     -27.397   0.542  18.652  1.00  0.00     0.007 C 
BRANCH  20  21
HETATM   21  C9  UNL     1     -28.822   0.095  18.889  1.00  0.00     0.026 C 
BRANCH  21  22
HETATM   22  C10 UNL     1     -29.043  -1.243  18.275  1.00  0.00     0.164 C 
BRANCH  22  23
HETATM   23  O1  UNL     1     -29.244  -2.144  19.334  1.00  0.00    -0.401 OA
ATOM     24  H1  UNL     1     -30.119  -2.499  19.227  1.00  0.00     0.209 HD
ENDBRANCH  22  23
ENDBRANCH  21  22
ENDBRANCH  20  21
ENDBRANCH  19  20
ENDBRANCH   2  19
BRANCH   9  25
HETATM   25  C15 UNL     1     -22.102   1.874  16.521  1.00  0.00     0.164 C 
BRANCH  25  26
HETATM   26  C16 UNL     1     -20.818   1.183  16.194  1.00  0.00     0.160 C 
BRANCH  26  27
HETATM   27  O2  UNL     1     -21.067  -0.087  15.731  1.00  0.00    -0.392 OA
ATOM     28  H2  UNL     1     -20.283  -0.620  15.798  1.00  0.00     0.210 HD
ENDBRANCH  26  27
BRANCH  26  29
HETATM   29  C17 UNL     1     -20.048   1.031  17.513  1.00  0.00     0.197 C 
BRANCH  29  30
HETATM   30  O3  UNL     1     -19.652   2.275  17.991  1.00  0.00    -0.398 OA
ATOM     31  H3  UNL     1     -19.066   2.697  17.373  1.00  0.00     0.209 HD
ENDBRANCH  29  30
ENDBRANCH  26  29
ENDBRANCH  25  26
ENDBRANCH   9  25
TORSDOF 11
ENDMDL
MODEL 2
REMARK VINA RESULT: -6.854495412      1.105      1.126
REMARK  11 active torsions:
REMARK  status: ('A' for Active; 'I' for Inactive)
REMARK    1  A    between atoms: C4_5  and  C5_6 
REMARK    2  A    between atoms: C6_7  and  C7_8 
REMARK    3  A    between atoms: C7_8  and  C8_9 
REMARK    4  A    between atoms: C8_9  and  C9_10 
REMARK    5  A    between atoms: C9_10  and  C10_11 
REMARK    6  A    between atoms: C10_11  and  O1_12 
REMARK    7  A    between atoms: N3_20  and  C15_21 
REMARK    8  A    between atoms: C15_21  and  C16_22 
REMARK    9  A    between atoms: C16_22  and  O2_23 
REMARK   10  A    between atoms: C16_22  and  C17_25 
REMARK   11  A    between atoms: C17_25  and  O3_26 
ROOT
HETATM    1  C5  UNL     1     -27.536   1.600  14.399  1.00  0.00     0.052 A 
HETATM    2  C6  UNL     1     -27.122   1.231  15.641  1.00  0.00    -0.028 A 
HETATM    3  C11 UNL     1     -25.744   1.280  15.943  1.00  0.00     0.043 A 
HETATM    4  C12 UNL     1     -24.814   1.691  15.020  1.00  0.00     0.080 A 
HETATM    5  C13 UNL     1     -25.310   2.056  13.767  1.00  0.00     0.136 A 
HETATM    6  N2  UNL     1     -24.223   2.413  13.059  1.00  0.00    -0.336 N 
ATOM      7  H2  UNL     1     -24.231   2.736  12.091  1.00  0.00     0.168 HD
HETATM    8  C14 UNL     1     -23.122   2.278  13.822  1.00  0.00     0.185 A 
HETATM    9  N3  UNL     1     -23.477   1.832  15.042  1.00  0.00    -0.337 N 
HETATM   10  N4  UNL     1     -26.603   2.011  13.475  1.00  0.00    -0.335 N 
HETATM   11  C18 UNL     1     -27.118   2.394  12.158  1.00  0.00     0.158 C 
ENDROOT
BRANCH   1  12
HETATM   12  C4  UNL     1     -28.937   1.551  14.027  1.00  0.00    -0.006 A 
HETATM   13  C3  UNL     1     -29.796   2.640  14.218  1.00  0.00     0.031 A 
HETATM   14  C2  UNL     1     -31.129   2.524  13.885  1.00  0.00     0.090 A 
HETATM   15  N1  UNL     1     -31.668   1.413  13.382  1.00  0.00    -0.371 N 
HETATM   16  C1  UNL     1     -33.097   1.336  13.043  1.00  0.00     0.154 C 
HETATM   17  C20 UNL     1     -30.862   0.350  13.189  1.00  0.00     0.090 A 
HETATM   18  C19 UNL     1     -29.526   0.428  13.509  1.00  0.00     0.031 A 
ENDBRANCH   1  12
BRANCH   2  19
HETATM   19  C7  UNL     1     -28.051   0.803  16.687  1.00  0.00     0.041 C 
BRANCH  19  20
HETATM   20  C8  UNL     1     -27.574   0.919  18.092  1.00  0.00     0.007 C 
BRANCH  20  21
HETATM   21  C9  UNL     1     -28.345  -0.045  18.965  1.00  0.00     0.026 C 
BRANCH  21  22
HETATM   22  C10 UNL     1     -29.213  -0.911  18.121  1.00  0.00     0.164 C 
BRANCH  22  23
HETATM   23  O1  UNL     1     -29.168  -2.197  18.683  1.00  0.00    -0.401 OA
ATOM     24  H1  UNL     1     -28.824  -2.097  19.564  1.00  0.00     0.209 HD
ENDBRANCH  22  23
ENDBRANCH  21  22
ENDBRANCH  20  21
ENDBRANCH  19  20
ENDBRANCH   2  19
BRANCH   9  25
HETATM   25  C15 UNL     1     -22.657   1.539  16.187  1.00  0.00     0.164 C 
BRANCH  25  26
HETATM   26  C16 UNL     1     -21.274   1.087  15.849  1.00  0.00     0.160 C 
BRANCH  26  27
HETATM   27  O2  UNL     1     -21.281  -0.241  15.496  1.00  0.00    -0.392 OA
ATOM     28  H2  UNL     1     -21.531  -0.338  14.585  1.00  0.00     0.210 HD
ENDBRANCH  26  27
BRANCH  26  29
HETATM   29  C17 UNL     1     -20.444   1.199  17.135  1.00  0.00     0.197 C 
BRANCH  29  30
HETATM   30  O3  UNL     1     -19.242   0.513  17.000  1.00  0.00    -0.398 OA
ATOM     31  H3  UNL     1     -18.732   0.874  16.284  1.00  0.00     0.209 HD
ENDBRANCH  29  30
ENDBRANCH  26  29
ENDBRANCH  25  26
ENDBRANCH   9  25
TORSDOF 11
ENDMDL
MODEL 3
REMARK VINA RESULT: -6.827562696      1.010      1.180
REMARK  11 active torsions:
REMARK  status: ('A' for Active; 'I' for Inactive)
REMARK    1  A    between atoms: C4_5  and  C5_6 
REMARK    2  A    between atoms: C6_7  and  C7_8 
REMARK    3  A    between atoms: C7_8  and  C8_9 
REMARK    4  A    between atoms: C8_9  and  C9_10 
REMARK    5  A    between atoms: C9_10  and  C10_11 
REMARK    6  A    between atoms: C10_11  and  O1_12 
REMARK    7  A    between atoms: N3_20  and  C15_21 
REMARK    8  A    between atoms: C15_21  and  C16_22 
REMARK    9  A    between atoms: C16_22  and  O2_23 
REMARK   10  A    between atoms: C16_22  and  C17_25 
REMARK   11  A    between atoms: C17_25  and  O3_26 
ROOT
HETATM    1  C5  UNL     1     -27.157   1.804  15.409  1.00  0.00     0.052 A 
HETATM    2  C6  UNL     1     -26.586   1.799  16.643  1.00  0.00    -0.028 A 
HETATM    3  C11 UNL     1     -25.179   1.826  16.745  1.00  0.00     0.043 A 
HETATM    4  C12 UNL     1     -24.372   1.858  15.633  1.00  0.00     0.080 A 
HETATM    5  C13 UNL     1     -25.025   1.862  14.399  1.00  0.00     0.136 A 
HETATM    6  N2  UNL     1     -24.036   1.895  13.488  1.00  0.00    -0.336 N 
ATOM      7  H2  UNL     1     -24.167   1.907  12.477  1.00  0.00     0.168 HD
HETATM    8  C14 UNL     1     -22.845   1.911  14.115  1.00  0.00     0.185 A 
HETATM    9  N3  UNL     1     -23.041   1.889  15.447  1.00  0.00    -0.337 N 
HETATM   10  N4  UNL     1     -26.347   1.836  14.296  1.00  0.00    -0.335 N 
HETATM   11  C18 UNL     1     -27.027   1.839  12.999  1.00  0.00     0.158 C 
ENDROOT
BRANCH   1  12
HETATM   12  C4  UNL     1     -28.596   1.758  15.244  1.00  0.00    -0.006 A 
HETATM   13  C3  UNL     1     -29.380   2.918  15.219  1.00  0.00     0.031 A 
HETATM   14  C2  UNL     1     -30.750   2.815  15.103  1.00  0.00     0.090 A 
HETATM   15  N1  UNL     1     -31.394   1.650  15.011  1.00  0.00    -0.371 N 
HETATM   16  C1  UNL     1     -32.859   1.590  14.890  1.00  0.00     0.154 C 
HETATM   17  C20 UNL     1     -30.663   0.519  15.033  1.00  0.00     0.090 A 
HETATM   18  C19 UNL     1     -29.293   0.582  15.148  1.00  0.00     0.031 A 
ENDBRANCH   1  12
BRANCH   2  19
HETATM   19  C7  UNL     1     -27.374   1.788  17.876  1.00  0.00     0.041 C 
BRANCH  19  20
HETATM   20  C8  UNL     1     -27.515   0.478  18.567  1.00  0.00     0.007 C 
BRANCH  20  21
HETATM   21  C9  UNL     1     -28.418   0.639  19.769  1.00  0.00     0.026 C 
BRANCH  21  22
HETATM   22  C10 UNL     1     -27.893   1.711  20.658  1.00  0.00     0.164 C 
BRANCH  22  23
HETATM   23  O1  UNL     1     -26.921   1.114  21.478  1.00  0.00    -0.401 OA
ATOM     24  H1  UNL     1     -26.076   1.358  21.118  1.00  0.00     0.209 HD
ENDBRANCH  22  23
ENDBRANCH  21  22
ENDBRANCH  20  21
ENDBRANCH  19  20
ENDBRANCH   2  19
BRANCH   9  25
HETATM   25  C15 UNL     1     -22.080   1.894  16.518  1.00  0.00     0.164 C 
BRANCH  25  26
HETATM   26  C16 UNL     1     -20.807   1.180  16.200  1.00  0.00     0.160 C 
BRANCH  26  27
HETATM   27  O2  UNL     1     -21.073  -0.092  15.752  1.00  0.00    -0.392 OA
ATOM     28  H2  UNL     1     -20.572  -0.275  14.966  1.00  0.00     0.210 HD
ENDBRANCH  26  27
BRANCH  26  29
HETATM   29  C17 UNL     1     -20.039   1.033  17.521  1.00  0.00     0.197 C 
BRANCH  29  30
HETATM   30  O3  UNL     1     -19.644   2.279  17.995  1.00  0.00    -0.398 OA
ATOM     31  H3  UNL     1     -20.358   2.699  18.459  1.00  0.00     0.209 HD
ENDBRANCH  29  30
ENDBRANCH  26  29
ENDBRANCH  25  26
ENDBRANCH   9  25
TORSDOF 11
ENDMDL
MODEL 4
REMARK VINA RESULT: -6.646821906      1.775      2.383
REMARK  11 active torsions:
REMARK  status: ('A' for Active; 'I' for Inactive)
REMARK    1  A    between atoms: C4_5  and  C5_6 
REMARK    2  A    between atoms: C6_7  and  C7_8 
REMARK    3  A    between atoms: C7_8  and  C8_9 
REMARK    4  A    between atoms: C8_9  and  C9_10 
REMARK    5  A    between atoms: C9_10  and  C10_11 
REMARK    6  A    between atoms: C10_11  and  O1_12 
REMARK    7  A    between atoms: N3_20  and  C15_21 
REMARK    8  A    between atoms: C15_21  and  C16_22 
REMARK    9  A    between atoms: C16_22  and  O2_23 
REMARK   10  A    between atoms: C16_22  and  C17_25 
REMARK   11  A    between atoms: C17_25  and  O3_26 
ROOT
HETATM    1  C5  UNL     1     -27.050   1.827  15.330  1.00  0.00     0.052 A 
HETATM    2  C6  UNL     1     -26.486   1.810  16.567  1.00  0.00    -0.028 A 
HETATM    3  C11 UNL     1     -25.078   1.826  16.675  1.00  0.00     0.043 A 
HETATM    4  C12 UNL     1     -24.267   1.860  15.567  1.00  0.00     0.080 A 
HETATM    5  C13 UNL     1     -24.914   1.877  14.330  1.00  0.00     0.136 A 
HETATM    6  N2  UNL     1     -23.920   1.910  13.424  1.00  0.00    -0.336 N 
ATOM      7  H2  UNL     1     -24.047   1.930  12.412  1.00  0.00     0.168 HD
HETATM    8  C14 UNL     1     -22.732   1.914  14.056  1.00  0.00     0.185 A 
HETATM    9  N3  UNL     1     -22.935   1.884  15.388  1.00  0.00    -0.337 N 
HETATM   10  N4  UNL     1     -26.235   1.860  14.221  1.00  0.00    -0.335 N 
HETATM   11  C18 UNL     1     -26.909   1.877  12.920  1.00  0.00     0.158 C 
ENDROOT
BRANCH   1  12
HETATM   12  C4  UNL     1     -28.490   1.792  15.159  1.00  0.00    -0.006 A 
HETATM   13  C3  UNL     1     -29.205   0.589  15.121  1.00  0.00     0.031 A 
HETATM   14  C2  UNL     1     -30.568   0.612  14.913  1.00  0.00     0.090 A 
HETATM   15  N1  UNL     1     -31.268   1.735  14.740  1.00  0.00    -0.371 N 
HETATM   16  C1  UNL     1     -32.721   1.709  14.521  1.00  0.00     0.154 C 
HETATM   17  C20 UNL     1     -30.602   2.906  14.772  1.00  0.00     0.090 A 
HETATM   18  C19 UNL     1     -29.241   2.923  14.978  1.00  0.00     0.031 A 
ENDBRANCH   1  12
BRANCH   2  19
HETATM   19  C7  UNL     1     -27.280   1.795  17.796  1.00  0.00     0.041 C 
BRANCH  19  20
HETATM   20  C8  UNL     1     -27.815   3.104  18.261  1.00  0.00     0.007 C 
BRANCH  20  21
HETATM   21  C9  UNL     1     -26.937   3.640  19.368  1.00  0.00     0.026 C 
BRANCH  21  22
HETATM   22  C10 UNL     1     -26.112   4.771  18.860  1.00  0.00     0.164 C 
BRANCH  22  23
HETATM   23  O1  UNL     1     -24.769   4.398  19.031  1.00  0.00    -0.401 OA
ATOM     24  H1  UNL     1     -24.244   5.076  18.620  1.00  0.00     0.209 HD
ENDBRANCH  22  23
ENDBRANCH  21  22
ENDBRANCH  20  21
ENDBRANCH  19  20
ENDBRANCH   2  19
BRANCH   9  25
HETATM   25  C15 UNL     1     -21.979   1.875  16.462  1.00  0.00     0.164 C 
BRANCH  25  26
HETATM   26  C16 UNL     1     -20.728   1.115  16.162  1.00  0.00     0.160 C 
BRANCH  26  27
HETATM   27  O2  UNL     1     -21.034  -0.160  15.750  1.00  0.00    -0.392 OA
ATOM     28  H2  UNL     1     -20.496  -0.402  15.005  1.00  0.00     0.210 HD
ENDBRANCH  26  27
BRANCH  26  29
HETATM   29  C17 UNL     1     -19.963   0.980  17.486  1.00  0.00     0.197 C 
BRANCH  29  30
HETATM   30  O3  UNL     1     -19.684   2.236  18.015  1.00  0.00    -0.398 OA
ATOM     31  H3  UNL     1     -19.544   2.176  18.953  1.00  0.00     0.209 HD
ENDBRANCH  29  30
ENDBRANCH  26  29
ENDBRANCH  25  26
ENDBRANCH   9  25
TORSDOF 11
ENDMDL
MODEL 5
REMARK VINA RESULT: -6.637322498      1.985      2.699
REMARK  11 active torsions:
REMARK  status: ('A' for Active; 'I' for Inactive)
REMARK    1  A    between atoms: C4_5  and  C5_6 
REMARK    2  A    between atoms: C6_7  and  C7_8 
REMARK    3  A    between atoms: C7_8  and  C8_9 
REMARK    4  A    between atoms: C8_9  and  C9_10 
REMARK    5  A    between atoms: C9_10  and  C10_11 
REMARK    6  A    between atoms: C10_11  and  O1_12 
REMARK    7  A    between atoms: N3_20  and  C15_21 
REMARK    8  A    between atoms: C15_21  and  C16_22 
REMARK    9  A    between atoms: C16_22  and  O2_23 
REMARK   10  A    between atoms: C16_22  and  C17_25 
REMARK   11  A    between atoms: C17_25  and  O3_26 
ROOT
HETATM    1  C5  UNL     1     -27.431   1.373  15.976  1.00  0.00     0.052 A 
HETATM    2  C6  UNL     1     -26.655   1.789  17.012  1.00  0.00    -0.028 A 
HETATM    3  C11 UNL     1     -25.266   1.936  16.810  1.00  0.00     0.043 A 
HETATM    4  C12 UNL     1     -24.679   1.671  15.596  1.00  0.00     0.080 A 
HETATM    5  C13 UNL     1     -25.535   1.248  14.577  1.00  0.00     0.136 A 
HETATM    6  N2  UNL     1     -24.734   1.059  13.514  1.00  0.00    -0.336 N 
ATOM      7  H2  UNL     1     -25.043   0.746  12.593  1.00  0.00     0.168 HD
HETATM    8  C14 UNL     1     -23.462   1.345  13.849  1.00  0.00     0.185 A 
HETATM    9  N3  UNL     1     -23.416   1.727  15.140  1.00  0.00    -0.337 N 
HETATM   10  N4  UNL     1     -26.841   1.107  14.761  1.00  0.00    -0.335 N 
HETATM   11  C18 UNL     1     -27.734   0.662  13.689  1.00  0.00     0.158 C 
ENDROOT
BRANCH   1  12
HETATM   12  C4  UNL     1     -28.860   1.187  16.133  1.00  0.00    -0.006 A 
HETATM   13  C3  UNL     1     -29.406  -0.005  16.625  1.00  0.00     0.031 A 
HETATM   14  C2  UNL     1     -30.775  -0.144  16.713  1.00  0.00     0.090 A 
HETATM   15  N1  UNL     1     -31.636   0.808  16.350  1.00  0.00    -0.371 N 
HETATM   16  C1  UNL     1     -33.089   0.614  16.462  1.00  0.00     0.154 C 
HETATM   17  C20 UNL     1     -31.136   1.965  15.873  1.00  0.00     0.090 A 
HETATM   18  C19 UNL     1     -29.775   2.140  15.770  1.00  0.00     0.031 A 
ENDBRANCH   1  12
BRANCH   2  19
HETATM   19  C7  UNL     1     -27.206   2.113  18.329  1.00  0.00     0.041 C 
BRANCH  19  20
HETATM   20  C8  UNL     1     -27.600   3.530  18.559  1.00  0.00     0.007 C 
BRANCH  20  21
HETATM   21  C9  UNL     1     -26.638   4.166  19.537  1.00  0.00     0.026 C 
BRANCH  21  22
HETATM   22  C10 UNL     1     -25.683   5.046  18.810  1.00  0.00     0.164 C 
BRANCH  22  23
HETATM   23  O1  UNL     1     -24.433   4.407  18.854  1.00  0.00    -0.401 OA
ATOM     24  H1  UNL     1     -23.781   5.070  18.654  1.00  0.00     0.209 HD
ENDBRANCH  22  23
ENDBRANCH  21  22
ENDBRANCH  20  21
ENDBRANCH  19  20
ENDBRANCH   2  19
BRANCH   9  25
HETATM   25  C15 UNL     1     -22.289   2.127  15.939  1.00  0.00     0.164 C 
BRANCH  25  26
HETATM   26  C16 UNL     1     -21.091   1.246  15.792  1.00  0.00     0.160 C 
BRANCH  26  27
HETATM   27  O2  UNL     1     -21.479  -0.048  15.544  1.00  0.00    -0.392 OA
ATOM     28  H2  UNL     1     -22.012  -0.087  14.759  1.00  0.00     0.210 HD
ENDBRANCH  26  27
BRANCH  26  29
HETATM   29  C17 UNL     1     -20.374   1.242  17.148  1.00  0.00     0.197 C 
BRANCH  29  30
HETATM   30  O3  UNL     1     -19.191   0.515  17.071  1.00  0.00    -0.398 OA
ATOM     31  H3  UNL     1     -19.346  -0.396  17.290  1.00  0.00     0.209 HD
ENDBRANCH  29  30
ENDBRANCH  26  29
ENDBRANCH  25  26
ENDBRANCH   9  25
TORSDOF 11
ENDMDL
