MODEL 1
REMARK VINA RESULT: -6.469271495      0.000      0.000
REMARK  9 active torsions:
REMARK  status: ('A' for Active; 'I' for Inactive)
REMARK    1  A    between atoms: C4_9  and  C5_10 
REMARK    2  A    between atoms: C5_10  and  C6_11 
REMARK    3  A    between atoms: C5_10  and  C13_19 
REMARK    4  A    between atoms: C6_11  and  C7_12 
REMARK    5  A    between atoms: C13_19  and  N4_20 
REMARK    6  A    between atoms: N4_20  and  C16_23 
REMARK    7  A    between atoms: C16_23  and  O2_24 
REMARK    8  A    between atoms: C16_23  and  C17_26 
REMARK    9  A    between atoms: C17_26  and  C18_27 
ROOT
HETATM    1  C5  UNL     1     -27.670   0.878  18.023  1.00  0.00     0.017 C 
ENDROOT
BRANCH   1   2
HETATM    2  C4  UNL     1     -27.536   1.465  19.380  1.00  0.00     0.070 A 
HETATM    3  C2  UNL     1     -28.354   2.415  19.937  1.00  0.00     0.037 A 
HETATM    4  C1  UNL     1     -29.272   3.374  19.285  1.00  0.00     0.070 C 
HETATM    5  N1  UNL     1     -28.070   2.499  21.242  1.00  0.00    -0.310 N 
HETATM    6  C3  UNL     1     -27.079   1.628  21.531  1.00  0.00     0.325 A 
ATOM      7  H1  UNL     1     -28.528   3.120  21.910  1.00  0.00     0.170 HD
HETATM    8  O1  UNL     1     -26.552   1.429  22.658  1.00  0.00    -0.247 OA
HETATM    9  N2  UNL     1     -26.722   0.975  20.399  1.00  0.00    -0.306 N 
ATOM     10  H2  UNL     1     -25.997   0.262  20.311  1.00  0.00     0.171 HD
ENDBRANCH   1   2
BRANCH   1  11
HETATM   11  C6  UNL     1     -28.860   0.085  17.844  1.00  0.00     0.026 C 
BRANCH  11  12
HETATM   12  C7  UNL     1     -29.376  -0.900  18.785  1.00  0.00    -0.033 A 
HETATM   13  C8  UNL     1     -28.700  -2.120  19.023  1.00  0.00     0.028 A 
HETATM   14  C9  UNL     1     -29.202  -3.090  19.852  1.00  0.00     0.090 A 
HETATM   15  N3  UNL     1     -30.358  -2.940  20.481  1.00  0.00    -0.371 N 
HETATM   16  C10 UNL     1     -30.929  -3.975  21.327  1.00  0.00     0.154 C 
HETATM   17  C11 UNL     1     -31.061  -1.777  20.295  1.00  0.00     0.090 A 
HETATM   18  C12 UNL     1     -30.567  -0.797  19.469  1.00  0.00     0.028 A 
ENDBRANCH  11  12
ENDBRANCH   1  11
BRANCH   1  19
HETATM   19  C13 UNL     1     -26.403   0.729  17.341  1.00  0.00     0.218 C 
BRANCH  19  20
HETATM   20  N4  UNL     1     -26.023   1.605  16.274  1.00  0.00    -0.028 N 
HETATM   21  C14 UNL     1     -26.365   0.869  15.031  1.00  0.00     0.281 C 
HETATM   22  C15 UNL     1     -26.659   2.908  16.261  1.00  0.00     0.281 C 
BRANCH  20  23
HETATM   23  C16 UNL     1     -24.633   1.873  16.179  1.00  0.00     0.333 C 
BRANCH  23  24
HETATM   24  O2  UNL     1     -24.230   2.969  17.008  1.00  0.00    -0.369 OA
ATOM     25  H2  UNL     1     -23.754   3.634  16.524  1.00  0.00     0.212 HD
ENDBRANCH  23  24
BRANCH  23  26
HETATM   26  C17 UNL     1     -23.918   1.949  14.891  1.00  0.00     0.120 C 
BRANCH  26  27
HETATM   27  C18 UNL     1     -22.490   1.536  15.244  1.00  0.00     0.029 A 
HETATM   28  C19 UNL     1     -21.726   0.634  14.557  1.00  0.00     0.114 A 
HETATM   29  N5  UNL     1     -20.530   0.509  15.159  1.00  0.00    -0.360 N 
HETATM   30  C20 UNL     1     -20.565   1.335  16.218  1.00  0.00     0.180 A 
ATOM     31  H5  UNL     1     -19.756  -0.090  14.871  1.00  0.00     0.166 HD
HETATM   32  N6  UNL     1     -21.779   1.980  16.282  1.00  0.00    -0.354 N 
ATOM     33  H6  UNL     1     -22.075   2.660  16.982  1.00  0.00     0.166 HD
ENDBRANCH  26  27
ENDBRANCH  23  26
ENDBRANCH  20  23
ENDBRANCH  19  20
ENDBRANCH   1  19
TORSDOF 9
ENDMDL
MODEL 2
REMARK VINA RESULT: -6.357547233      2.833      8.110
REMARK  9 active torsions:
REMARK  status: ('A' for Active; 'I' for Inactive)
REMARK    1  A    between atoms: C4_9  and  C5_10 
REMARK    2  A    between atoms: C5_10  and  C6_11 
REMARK    3  A    between atoms: C5_10  and  C13_19 
REMARK    4  A    between atoms: C6_11  and  C7_12 
REMARK    5  A    between atoms: C13_19  and  N4_20 
REMARK    6  A    between atoms: N4_20  and  C16_23 
REMARK    7  A    between atoms: C16_23  and  O2_24 
REMARK    8  A    between atoms: C16_23  and  C17_26 
REMARK    9  A    between atoms: C17_26  and  C18_27 
ROOT
HETATM    1  C5  UNL     1     -29.028   0.547  17.039  1.00  0.00     0.017 C 
ENDROOT
BRANCH   1   2
HETATM    2  C4  UNL     1     -30.019  -0.008  16.084  1.00  0.00     0.070 A 
HETATM    3  C2  UNL     1     -31.254  -0.515  16.400  1.00  0.00     0.037 A 
HETATM    4  C1  UNL     1     -31.769  -1.018  17.692  1.00  0.00     0.070 C 
HETATM    5  N1  UNL     1     -31.944  -0.678  15.264  1.00  0.00    -0.310 N 
HETATM    6  C3  UNL     1     -31.170  -0.295  14.225  1.00  0.00     0.325 A 
ATOM      7  H1  UNL     1     -32.897  -1.034  15.195  1.00  0.00     0.170 HD
HETATM    8  O1  UNL     1     -31.484  -0.306  13.005  1.00  0.00    -0.247 OA
HETATM    9  N2  UNL     1     -29.971   0.122  14.697  1.00  0.00    -0.306 N 
ATOM     10  H2  UNL     1     -29.185   0.464  14.145  1.00  0.00     0.171 HD
ENDBRANCH   1   2
BRANCH   1  11
HETATM   11  C6  UNL     1     -28.299   1.683  16.531  1.00  0.00     0.026 C 
BRANCH  11  12
HETATM   12  C7  UNL     1     -26.985   1.640  15.903  1.00  0.00    -0.033 A 
HETATM   13  C8  UNL     1     -25.800   1.798  16.658  1.00  0.00     0.028 A 
HETATM   14  C9  UNL     1     -24.557   1.829  16.079  1.00  0.00     0.090 A 
HETATM   15  N3  UNL     1     -24.394   1.713  14.770  1.00  0.00    -0.371 N 
HETATM   16  C10 UNL     1     -23.090   1.789  14.133  1.00  0.00     0.154 C 
HETATM   17  C11 UNL     1     -25.506   1.553  13.981  1.00  0.00     0.090 A 
HETATM   18  C12 UNL     1     -26.755   1.517  14.550  1.00  0.00     0.028 A 
ENDBRANCH  11  12
ENDBRANCH   1  11
BRANCH   1  19
HETATM   19  C13 UNL     1     -28.580  -0.417  18.018  1.00  0.00     0.218 C 
BRANCH  19  20
HETATM   20  N4  UNL     1     -28.675  -0.153  19.423  1.00  0.00    -0.028 N 
HETATM   21  C14 UNL     1     -27.311   0.269  19.828  1.00  0.00     0.281 C 
HETATM   22  C15 UNL     1     -29.638   0.857  19.818  1.00  0.00     0.281 C 
BRANCH  20  23
HETATM   23  C16 UNL     1     -28.972  -1.281  20.230  1.00  0.00     0.333 C 
BRANCH  23  24
HETATM   24  O2  UNL     1     -28.417  -1.173  21.546  1.00  0.00    -0.369 OA
ATOM     25  H2  UNL     1     -27.701  -1.781  21.689  1.00  0.00     0.212 HD
ENDBRANCH  23  24
BRANCH  23  26
HETATM   26  C17 UNL     1     -28.825  -2.670  19.753  1.00  0.00     0.120 C 
BRANCH  26  27
HETATM   27  C18 UNL     1     -29.823  -3.453  20.605  1.00  0.00     0.029 A 
HETATM   28  C19 UNL     1     -31.113  -3.085  20.866  1.00  0.00     0.114 A 
HETATM   29  N5  UNL     1     -31.690  -4.004  21.659  1.00  0.00    -0.360 N 
HETATM   30  C20 UNL     1     -30.750  -4.937  21.883  1.00  0.00     0.180 A 
ATOM     31  H5  UNL     1     -32.646  -3.996  22.016  1.00  0.00     0.166 HD
HETATM   32  N6  UNL     1     -29.583  -4.606  21.233  1.00  0.00    -0.354 N 
ATOM     33  H6  UNL     1     -28.711  -5.135  21.232  1.00  0.00     0.166 HD
ENDBRANCH  26  27
ENDBRANCH  23  26
ENDBRANCH  20  23
ENDBRANCH  19  20
ENDBRANCH   1  19
TORSDOF 9
ENDMDL
MODEL 3
REMARK VINA RESULT: -6.269088724      2.713      4.249
REMARK  9 active torsions:
REMARK  status: ('A' for Active; 'I' for Inactive)
REMARK    1  A    between atoms: C4_9  and  C5_10 
REMARK    2  A    between atoms: C5_10  and  C6_11 
REMARK    3  A    between atoms: C5_10  and  C13_19 
REMARK    4  A    between atoms: C6_11  and  C7_12 
REMARK    5  A    between atoms: C13_19  and  N4_20 
REMARK    6  A    between atoms: N4_20  and  C16_23 
REMARK    7  A    between atoms: C16_23  and  O2_24 
REMARK    8  A    between atoms: C16_23  and  C17_26 
REMARK    9  A    between atoms: C17_26  and  C18_27 
ROOT
HETATM    1  C5  UNL     1     -28.215   1.062  16.644  1.00  0.00     0.017 C 
ENDROOT
BRANCH   1   2
HETATM    2  C4  UNL     1     -28.041   1.059  18.118  1.00  0.00     0.070 A 
HETATM    3  C2  UNL     1     -28.010  -0.048  18.929  1.00  0.00     0.037 A 
HETATM    4  C1  UNL     1     -28.520  -1.415  18.684  1.00  0.00     0.070 C 
HETATM    5  N1  UNL     1     -27.587   0.331  20.141  1.00  0.00    -0.310 N 
HETATM    6  C3  UNL     1     -27.354   1.662  20.125  1.00  0.00     0.325 A 
ATOM      7  H1  UNL     1     -27.461  -0.284  20.944  1.00  0.00     0.170 HD
HETATM    8  O1  UNL     1     -26.943   2.368  21.084  1.00  0.00    -0.247 OA
HETATM    9  N2  UNL     1     -27.628   2.144  18.889  1.00  0.00    -0.306 N 
ATOM     10  H2  UNL     1     -27.549   3.114  18.583  1.00  0.00     0.171 HD
ENDBRANCH   1   2
BRANCH   1  11
HETATM   11  C6  UNL     1     -29.589   0.975  16.218  1.00  0.00     0.026 C 
BRANCH  11  12
HETATM   12  C7  UNL     1     -30.052   0.957  14.836  1.00  0.00    -0.033 A 
HETATM   13  C8  UNL     1     -30.345  -0.257  14.171  1.00  0.00     0.028 A 
HETATM   14  C9  UNL     1     -30.716  -0.303  12.852  1.00  0.00     0.090 A 
HETATM   15  N3  UNL     1     -30.822   0.795  12.119  1.00  0.00    -0.371 N 
HETATM   16  C10 UNL     1     -31.170   0.764  10.708  1.00  0.00     0.154 C 
HETATM   17  C11 UNL     1     -30.556   2.006  12.707  1.00  0.00     0.090 A 
HETATM   18  C12 UNL     1     -30.185   2.064  14.028  1.00  0.00     0.028 A 
ENDBRANCH  11  12
ENDBRANCH   1  11
BRANCH   1  19
HETATM   19  C13 UNL     1     -27.043   0.602  15.933  1.00  0.00     0.218 C 
BRANCH  19  20
HETATM   20  N4  UNL     1     -26.308   1.472  15.065  1.00  0.00    -0.028 N 
HETATM   21  C14 UNL     1     -26.542   0.941  13.699  1.00  0.00     0.281 C 
HETATM   22  C15 UNL     1     -26.671   2.876  15.113  1.00  0.00     0.281 C 
BRANCH  20  23
HETATM   23  C16 UNL     1     -24.900   1.449  15.239  1.00  0.00     0.333 C 
BRANCH  23  24
HETATM   24  O2  UNL     1     -24.493   2.028  16.484  1.00  0.00    -0.369 OA
ATOM     25  H2  UNL     1     -25.078   1.801  17.198  1.00  0.00     0.212 HD
ENDBRANCH  23  24
BRANCH  23  26
HETATM   26  C17 UNL     1     -23.956   1.859  14.181  1.00  0.00     0.120 C 
BRANCH  26  27
HETATM   27  C18 UNL     1     -22.590   1.767  14.860  1.00  0.00     0.029 A 
HETATM   28  C19 UNL     1     -21.736   0.702  14.795  1.00  0.00     0.114 A 
HETATM   29  N5  UNL     1     -20.635   0.965  15.522  1.00  0.00    -0.360 N 
HETATM   30  C20 UNL     1     -20.819   2.194  16.033  1.00  0.00     0.180 A 
ATOM     31  H5  UNL     1     -19.827   0.358  15.657  1.00  0.00     0.166 HD
HETATM   32  N6  UNL     1     -22.032   2.704  15.630  1.00  0.00    -0.354 N 
ATOM     33  H6  UNL     1     -22.424   3.614  15.869  1.00  0.00     0.166 HD
ENDBRANCH  26  27
ENDBRANCH  23  26
ENDBRANCH  20  23
ENDBRANCH  19  20
ENDBRANCH   1  19
TORSDOF 9
ENDMDL
MODEL 4
REMARK VINA RESULT: -6.261337416      3.953      5.547
REMARK  9 active torsions:
REMARK  status: ('A' for Active; 'I' for Inactive)
REMARK    1  A    between atoms: C4_9  and  C5_10 
REMARK    2  A    between atoms: C5_10  and  C6_11 
REMARK    3  A    between atoms: C5_10  and  C13_19 
REMARK    4  A    between atoms: C6_11  and  C7_12 
REMARK    5  A    between atoms: C13_19  and  N4_20 
REMARK    6  A    between atoms: N4_20  and  C16_23 
REMARK    7  A    between atoms: C16_23  and  O2_24 
REMARK    8  A    between atoms: C16_23  and  C17_26 
REMARK    9  A    between atoms: C17_26  and  C18_27 
ROOT
HETATM    1  C5  UNL     1     -27.128   1.083  15.087  1.00  0.00     0.017 C 
ENDROOT
BRANCH   1   2
HETATM    2  C4  UNL     1     -25.784   1.591  15.455  1.00  0.00     0.070 A 
HETATM    3  C2  UNL     1     -25.456   2.254  16.611  1.00  0.00     0.037 A 
HETATM    4  C1  UNL     1     -26.323   2.982  17.563  1.00  0.00     0.070 C 
HETATM    5  N1  UNL     1     -24.121   2.322  16.691  1.00  0.00    -0.310 N 
HETATM    6  C3  UNL     1     -23.588   1.723  15.605  1.00  0.00     0.325 A 
ATOM      7  H1  UNL     1     -23.594   2.756  17.450  1.00  0.00     0.170 HD
HETATM    8  O1  UNL     1     -22.363   1.593  15.339  1.00  0.00    -0.247 OA
HETATM    9  N2  UNL     1     -24.589   1.264  14.817  1.00  0.00    -0.306 N 
ATOM     10  H2  UNL     1     -24.488   0.772  13.929  1.00  0.00     0.171 HD
ENDBRANCH   1   2
BRANCH   1  11
HETATM   11  C6  UNL     1     -27.766   0.311  16.124  1.00  0.00     0.026 C 
BRANCH  11  12
HETATM   12  C7  UNL     1     -29.195   0.279  16.405  1.00  0.00    -0.033 A 
HETATM   13  C8  UNL     1     -29.694   0.449  17.719  1.00  0.00     0.028 A 
HETATM   14  C9  UNL     1     -31.029   0.355  18.016  1.00  0.00     0.090 A 
HETATM   15  N3  UNL     1     -31.935   0.095  17.085  1.00  0.00    -0.371 N 
HETATM   16  C10 UNL     1     -33.349  -0.053  17.388  1.00  0.00     0.154 C 
HETATM   17  C11 UNL     1     -31.516  -0.075  15.790  1.00  0.00     0.090 A 
HETATM   18  C12 UNL     1     -30.181   0.019  15.480  1.00  0.00     0.028 A 
ENDBRANCH  11  12
ENDBRANCH   1  11
BRANCH   1  19
HETATM   19  C13 UNL     1     -27.318   0.960  13.659  1.00  0.00     0.218 C 
BRANCH  19  20
HETATM   20  N4  UNL     1     -27.918   2.011  12.894  1.00  0.00    -0.028 N 
HETATM   21  C14 UNL     1     -29.101   1.388  12.246  1.00  0.00     0.281 C 
HETATM   22  C15 UNL     1     -28.330   3.186  13.637  1.00  0.00     0.281 C 
BRANCH  20  23
HETATM   23  C16 UNL     1     -27.127   2.509  11.827  1.00  0.00     0.333 C 
BRANCH  23  24
HETATM   24  O2  UNL     1     -25.732   2.536  12.147  1.00  0.00    -0.369 OA
ATOM     25  H2  UNL     1     -25.393   3.421  12.220  1.00  0.00     0.212 HD
ENDBRANCH  23  24
BRANCH  23  26
HETATM   26  C17 UNL     1     -27.476   3.728  11.071  1.00  0.00     0.120 C 
BRANCH  26  27
HETATM   27  C18 UNL     1     -26.460   3.750   9.930  1.00  0.00     0.029 A 
HETATM   28  C19 UNL     1     -26.528   3.008   8.785  1.00  0.00     0.114 A 
HETATM   29  N5  UNL     1     -25.460   3.274   8.014  1.00  0.00    -0.360 N 
HETATM   30  C20 UNL     1     -24.736   4.180   8.691  1.00  0.00     0.180 A 
ATOM     31  H5  UNL     1     -25.243   2.870   7.102  1.00  0.00     0.166 HD
HETATM   32  N6  UNL     1     -25.347   4.485   9.886  1.00  0.00    -0.354 N 
ATOM     33  H6  UNL     1     -25.016   5.140  10.593  1.00  0.00     0.166 HD
ENDBRANCH  26  27
ENDBRANCH  23  26
ENDBRANCH  20  23
ENDBRANCH  19  20
ENDBRANCH   1  19
TORSDOF 9
ENDMDL
MODEL 5
REMARK VINA RESULT: -6.256323931      2.872      4.351
REMARK  9 active torsions:
REMARK  status: ('A' for Active; 'I' for Inactive)
REMARK    1  A    between atoms: C4_9  and  C5_10 
REMARK    2  A    between atoms: C5_10  and  C6_11 
REMARK    3  A    between atoms: C5_10  and  C13_19 
REMARK    4  A    between atoms: C6_11  and  C7_12 
REMARK    5  A    between atoms: C13_19  and  N4_20 
REMARK    6  A    between atoms: N4_20  and  C16_23 
REMARK    7  A    between atoms: C16_23  and  O2_24 
REMARK    8  A    between atoms: C16_23  and  C17_26 
REMARK    9  A    between atoms: C17_26  and  C18_27 
ROOT
HETATM    1  C5  UNL     1     -28.172   0.776  16.590  1.00  0.00     0.017 C 
ENDROOT
BRANCH   1   2
HETATM    2  C4  UNL     1     -28.067   0.227  17.965  1.00  0.00     0.070 A 
HETATM    3  C2  UNL     1     -27.839   0.946  19.110  1.00  0.00     0.037 A 
HETATM    4  C1  UNL     1     -27.255   2.295  19.281  1.00  0.00     0.070 C 
HETATM    5  N1  UNL     1     -28.063   0.146  20.160  1.00  0.00    -0.310 N 
HETATM    6  C3  UNL     1     -28.422  -1.075  19.709  1.00  0.00     0.325 A 
ATOM      7  H1  UNL     1     -27.977   0.416  21.140  1.00  0.00     0.170 HD
HETATM    8  O1  UNL     1     -28.712  -2.084  20.407  1.00  0.00    -0.247 OA
HETATM    9  N2  UNL     1     -28.430  -1.061  18.355  1.00  0.00    -0.306 N 
ATOM     10  H2  UNL     1     -28.658  -1.842  17.739  1.00  0.00     0.171 HD
ENDBRANCH   1   2
BRANCH   1  11
HETATM   11  C6  UNL     1     -29.528   0.988  16.148  1.00  0.00     0.026 C 
BRANCH  11  12
HETATM   12  C7  UNL     1     -29.982   0.988  14.763  1.00  0.00    -0.033 A 
HETATM   13  C8  UNL     1     -30.273  -0.217  14.081  1.00  0.00     0.028 A 
HETATM   14  C9  UNL     1     -30.636  -0.245  12.759  1.00  0.00     0.090 A 
HETATM   15  N3  UNL     1     -30.733   0.863  12.039  1.00  0.00    -0.371 N 
HETATM   16  C10 UNL     1     -31.072   0.851  10.626  1.00  0.00     0.154 C 
HETATM   17  C11 UNL     1     -30.468   2.065  12.643  1.00  0.00     0.090 A 
HETATM   18  C12 UNL     1     -30.106   2.106  13.968  1.00  0.00     0.028 A 
ENDBRANCH  11  12
ENDBRANCH   1  11
BRANCH   1  19
HETATM   19  C13 UNL     1     -27.017   0.484  15.771  1.00  0.00     0.218 C 
BRANCH  19  20
HETATM   20  N4  UNL     1     -26.253   1.530  15.160  1.00  0.00    -0.028 N 
HETATM   21  C14 UNL     1     -26.457   1.353  13.700  1.00  0.00     0.281 C 
HETATM   22  C15 UNL     1     -26.605   2.884  15.542  1.00  0.00     0.281 C 
BRANCH  20  23
HETATM   23  C16 UNL     1     -24.850   1.445  15.354  1.00  0.00     0.333 C 
BRANCH  23  24
HETATM   24  O2  UNL     1     -24.452   1.873  16.662  1.00  0.00    -0.369 OA
ATOM     25  H2  UNL     1     -23.630   2.349  16.653  1.00  0.00     0.212 HD
ENDBRANCH  23  24
BRANCH  23  26
HETATM   26  C17 UNL     1     -23.873   1.938  14.364  1.00  0.00     0.120 C 
BRANCH  26  27
HETATM   27  C18 UNL     1     -22.532   1.815  15.085  1.00  0.00     0.029 A 
HETATM   28  C19 UNL     1     -21.675   0.753  15.002  1.00  0.00     0.114 A 
HETATM   29  N5  UNL     1     -20.601   0.982  15.778  1.00  0.00    -0.360 N 
HETATM   30  C20 UNL     1     -20.805   2.186  16.338  1.00  0.00     0.180 A 
ATOM     31  H5  UNL     1     -19.798   0.369  15.914  1.00  0.00     0.166 HD
HETATM   32  N6  UNL     1     -22.003   2.715  15.916  1.00  0.00    -0.354 N 
ATOM     33  H6  UNL     1     -22.404   3.613  16.183  1.00  0.00     0.166 HD
ENDBRANCH  26  27
ENDBRANCH  23  26
ENDBRANCH  20  23
ENDBRANCH  19  20
ENDBRANCH   1  19
TORSDOF 9
ENDMDL
