MODEL 1
REMARK VINA RESULT: -7.016063501      0.000      0.000
REMARK  8 active torsions:
REMARK  status: ('A' for Active; 'I' for Inactive)
REMARK    1  A    between atoms: C3_3  and  C4_4 
REMARK    2  A    between atoms: N1_8  and  C8_9 
REMARK    3  A    between atoms: C8_9  and  C9_10 
REMARK    4  A    between atoms: C9_10  and  C10_11 
REMARK    5  A    between atoms: C10_11  and  O1_12 
REMARK    6  A    between atoms: O1_12  and  C11_13 
REMARK    7  A    between atoms: C11_13  and  C12_14 
REMARK    8  A    between atoms: C12_14  and  N2_15 
ROOT
HETATM    1  C1  UNL     1     -29.509  -3.531  20.183  1.00  0.00     0.112 C 
HETATM    2  C2  UNL     1     -30.033  -2.573  19.199  1.00  0.00    -0.105 C 
HETATM    3  C3  UNL     1     -30.461  -1.799  18.380  1.00  0.00    -0.066 C 
ENDROOT
BRANCH   3   4
HETATM    4  C4  UNL     1     -30.970  -0.873  17.385  1.00  0.00     0.033 A 
HETATM    5  C5  UNL     1     -32.330  -0.722  17.185  1.00  0.00     0.023 A 
HETATM    6  C6  UNL     1     -32.747   0.177  16.222  1.00  0.00     0.019 A 
HETATM    7  C7  UNL     1     -31.831   0.904  15.478  1.00  0.00     0.090 A 
HETATM    8  N1  UNL     1     -30.507   0.749  15.679  1.00  0.00    -0.365 N 
HETATM    9  C21 UNL     1     -30.125  -0.120  16.611  1.00  0.00     0.111 A 
BRANCH   8  10
HETATM   10  C8  UNL     1     -29.620   1.522  14.885  1.00  0.00     0.130 C 
BRANCH  10  11
HETATM   11  C9  UNL     1     -28.171   1.224  15.033  1.00  0.00     0.046 C 
BRANCH  11  12
HETATM   12  C10 UNL     1     -27.762   0.430  13.767  1.00  0.00     0.169 C 
BRANCH  12  13
HETATM   13  O1  UNL     1     -26.684   1.022  13.159  1.00  0.00    -0.389 OA
BRANCH  13  14
HETATM   14  C11 UNL     1     -26.021   1.850  14.028  1.00  0.00     0.187 C 
BRANCH  14  15
HETATM   15  C12 UNL     1     -24.891   2.552  13.326  1.00  0.00     0.154 C 
BRANCH  15  16
HETATM   16  N2  UNL     1     -23.658   1.984  13.911  1.00  0.00    -0.363 N 
HETATM   17  C13 UNL     1     -22.895   1.198  13.135  1.00  0.00     0.092 A 
HETATM   18  C14 UNL     1     -21.737   0.639  13.613  1.00  0.00     0.048 A 
HETATM   19  C15 UNL     1     -21.380   0.912  14.925  1.00  0.00     0.063 A 
HETATM   20  N3  UNL     1     -20.242   0.365  15.400  1.00  0.00    -0.191 N 
HETATM   21  C19 UNL     1     -22.172   1.723  15.717  1.00  0.00     0.023 A 
HETATM   22  C16 UNL     1     -19.888   0.623  16.668  1.00  0.00     0.678 A 
ATOM     23  H3  UNL     1     -19.664  -0.232  14.808  1.00  0.00     0.184 HD
HETATM   24  N4  UNL     1     -18.788   0.085  17.103  1.00  0.00    -0.234 N 
HETATM   25  N5  UNL     1     -20.619   1.402  17.483  1.00  0.00    -0.197 N 
ATOM     26  H42 UNL     1     -18.233  -0.507  16.486  1.00  0.00     0.174 HD
ATOM     27  H41 UNL     1     -18.519   0.281  18.067  1.00  0.00     0.174 HD
HETATM   28  C17 UNL     1     -20.172   1.640  18.853  1.00  0.00     0.174 C 
HETATM   29  C18 UNL     1     -21.754   1.949  17.009  1.00  0.00     0.123 A 
HETATM   30  C20 UNL     1     -23.322   2.256  15.184  1.00  0.00     0.105 A 
ENDBRANCH  15  16
ENDBRANCH  14  15
ENDBRANCH  13  14
ENDBRANCH  12  13
ENDBRANCH  11  12
ENDBRANCH  10  11
ENDBRANCH   8  10
ENDBRANCH   3   4
TORSDOF 8
ENDMDL
MODEL 2
REMARK VINA RESULT: -6.967205483      2.367      4.585
REMARK  8 active torsions:
REMARK  status: ('A' for Active; 'I' for Inactive)
REMARK    1  A    between atoms: C3_3  and  C4_4 
REMARK    2  A    between atoms: N1_8  and  C8_9 
REMARK    3  A    between atoms: C8_9  and  C9_10 
REMARK    4  A    between atoms: C9_10  and  C10_11 
REMARK    5  A    between atoms: C10_11  and  O1_12 
REMARK    6  A    between atoms: O1_12  and  C11_13 
REMARK    7  A    between atoms: C11_13  and  C12_14 
REMARK    8  A    between atoms: C12_14  and  N2_15 
ROOT
HETATM    1  C1  UNL     1     -26.896   0.824  23.161  1.00  0.00     0.112 C 
HETATM    2  C2  UNL     1     -27.768   0.178  22.170  1.00  0.00    -0.105 C 
HETATM    3  C3  UNL     1     -28.484  -0.338  21.347  1.00  0.00    -0.066 C 
ENDROOT
BRANCH   3   4
HETATM    4  C4  UNL     1     -29.348  -0.947  20.353  1.00  0.00     0.033 A 
HETATM    5  C5  UNL     1     -29.033  -2.171  19.794  1.00  0.00     0.023 A 
HETATM    6  C6  UNL     1     -29.900  -2.695  18.853  1.00  0.00     0.019 A 
HETATM    7  C7  UNL     1     -31.048  -2.014  18.480  1.00  0.00     0.090 A 
HETATM    8  N1  UNL     1     -31.346  -0.820  19.031  1.00  0.00    -0.365 N 
HETATM    9  C21 UNL     1     -30.500  -0.333  19.935  1.00  0.00     0.111 A 
BRANCH   8  10
HETATM   10  C8  UNL     1     -32.536  -0.173  18.608  1.00  0.00     0.130 C 
BRANCH  10  11
HETATM   11  C9  UNL     1     -32.728  -0.038  17.139  1.00  0.00     0.046 C 
BRANCH  11  12
HETATM   12  C10 UNL     1     -31.954   1.236  16.718  1.00  0.00     0.169 C 
BRANCH  12  13
HETATM   13  O1  UNL     1     -31.277   1.018  15.545  1.00  0.00    -0.389 OA
BRANCH  13  14
HETATM   14  C11 UNL     1     -30.163   0.245  15.754  1.00  0.00     0.187 C 
BRANCH  14  15
HETATM   15  C12 UNL     1     -29.169   0.979  16.612  1.00  0.00     0.154 C 
BRANCH  15  16
HETATM   16  N2  UNL     1     -27.954   1.101  15.780  1.00  0.00    -0.363 N 
HETATM   17  C13 UNL     1     -28.070   0.898  14.458  1.00  0.00     0.092 A 
HETATM   18  C14 UNL     1     -26.984   0.997  13.626  1.00  0.00     0.048 A 
HETATM   19  C15 UNL     1     -25.761   1.314  14.196  1.00  0.00     0.063 A 
HETATM   20  N3  UNL     1     -24.689   1.412  13.382  1.00  0.00    -0.191 N 
HETATM   21  C19 UNL     1     -25.648   1.522  15.558  1.00  0.00     0.023 A 
HETATM   22  C16 UNL     1     -23.499   1.719  13.923  1.00  0.00     0.678 A 
ATOM     23  H3  UNL     1     -24.780   1.257  12.378  1.00  0.00     0.184 HD
HETATM   24  N4  UNL     1     -22.482   1.808  13.120  1.00  0.00    -0.234 N 
HETATM   25  N5  UNL     1     -23.333   1.931  15.240  1.00  0.00    -0.197 N 
ATOM     26  H42 UNL     1     -22.607   1.648  12.121  1.00  0.00     0.174 HD
ATOM     27  H41 UNL     1     -21.578   2.042  13.532  1.00  0.00     0.174 HD
HETATM   28  C17 UNL     1     -22.009   2.261  15.759  1.00  0.00     0.174 C 
HETATM   29  C18 UNL     1     -24.402   1.833  16.051  1.00  0.00     0.123 A 
HETATM   30  C20 UNL     1     -26.773   1.410  16.343  1.00  0.00     0.105 A 
ENDBRANCH  15  16
ENDBRANCH  14  15
ENDBRANCH  13  14
ENDBRANCH  12  13
ENDBRANCH  11  12
ENDBRANCH  10  11
ENDBRANCH   8  10
ENDBRANCH   3   4
TORSDOF 8
ENDMDL
MODEL 3
REMARK VINA RESULT: -6.960381629      2.445      3.832
REMARK  8 active torsions:
REMARK  status: ('A' for Active; 'I' for Inactive)
REMARK    1  A    between atoms: C3_3  and  C4_4 
REMARK    2  A    between atoms: N1_8  and  C8_9 
REMARK    3  A    between atoms: C8_9  and  C9_10 
REMARK    4  A    between atoms: C9_10  and  C10_11 
REMARK    5  A    between atoms: C10_11  and  O1_12 
REMARK    6  A    between atoms: O1_12  and  C11_13 
REMARK    7  A    between atoms: C11_13  and  C12_14 
REMARK    8  A    between atoms: C12_14  and  N2_15 
ROOT
HETATM    1  C1  UNL     1     -26.904   0.835  23.306  1.00  0.00     0.112 C 
HETATM    2  C2  UNL     1     -27.717   0.211  22.253  1.00  0.00    -0.105 C 
HETATM    3  C3  UNL     1     -28.375  -0.294  21.377  1.00  0.00    -0.066 C 
ENDROOT
BRANCH   3   4
HETATM    4  C4  UNL     1     -29.163  -0.893  20.315  1.00  0.00     0.033 A 
HETATM    5  C5  UNL     1     -29.225  -2.265  20.165  1.00  0.00     0.023 A 
HETATM    6  C6  UNL     1     -29.994  -2.770  19.133  1.00  0.00     0.019 A 
HETATM    7  C7  UNL     1     -30.681  -1.926  18.275  1.00  0.00     0.090 A 
HETATM    8  N1  UNL     1     -30.614  -0.589  18.429  1.00  0.00    -0.365 N 
HETATM    9  C21 UNL     1     -29.869  -0.122  19.427  1.00  0.00     0.111 A 
BRANCH   8  10
HETATM   10  C8  UNL     1     -31.339   0.222  17.518  1.00  0.00     0.130 C 
BRANCH  10  11
HETATM   11  C9  UNL     1     -31.295  -0.189  16.089  1.00  0.00     0.046 C 
BRANCH  11  12
HETATM   12  C10 UNL     1     -30.069   0.528  15.471  1.00  0.00     0.169 C 
BRANCH  12  13
HETATM   13  O1  UNL     1     -30.157   1.882  15.669  1.00  0.00    -0.389 OA
BRANCH  13  14
HETATM   14  C11 UNL     1     -28.954   2.496  15.428  1.00  0.00     0.187 C 
BRANCH  14  15
HETATM   15  C12 UNL     1     -28.022   1.560  14.709  1.00  0.00     0.154 C 
BRANCH  15  16
HETATM   16  N2  UNL     1     -26.704   1.759  15.348  1.00  0.00    -0.363 N 
HETATM   17  C13 UNL     1     -26.671   2.325  16.564  1.00  0.00     0.092 A 
HETATM   18  C14 UNL     1     -25.482   2.539  17.215  1.00  0.00     0.048 A 
HETATM   19  C15 UNL     1     -24.315   2.151  16.574  1.00  0.00     0.063 A 
HETATM   20  N3  UNL     1     -23.143   2.359  17.210  1.00  0.00    -0.191 N 
HETATM   21  C19 UNL     1     -24.358   1.569  15.321  1.00  0.00     0.023 A 
HETATM   22  C16 UNL     1     -22.008   1.987  16.599  1.00  0.00     0.678 A 
ATOM     23  H3  UNL     1     -23.121   2.789  18.135  1.00  0.00     0.184 HD
HETATM   24  N4  UNL     1     -20.892   2.197  17.230  1.00  0.00    -0.234 N 
HETATM   25  N5  UNL     1     -21.991   1.418  15.382  1.00  0.00    -0.197 N 
ATOM     26  H42 UNL     1     -20.904   2.629  18.154  1.00  0.00     0.174 HD
ATOM     27  H41 UNL     1     -20.029   1.914  16.766  1.00  0.00     0.174 HD
HETATM   28  C17 UNL     1     -20.717   1.038  14.777  1.00  0.00     0.174 C 
HETATM   29  C18 UNL     1     -23.159   1.210  14.748  1.00  0.00     0.123 A 
HETATM   30  C20 UNL     1     -25.579   1.379  14.717  1.00  0.00     0.105 A 
ENDBRANCH  15  16
ENDBRANCH  14  15
ENDBRANCH  13  14
ENDBRANCH  12  13
ENDBRANCH  11  12
ENDBRANCH  10  11
ENDBRANCH   8  10
ENDBRANCH   3   4
TORSDOF 8
ENDMDL
MODEL 4
REMARK VINA RESULT: -6.743269854      2.007      2.396
REMARK  8 active torsions:
REMARK  status: ('A' for Active; 'I' for Inactive)
REMARK    1  A    between atoms: C3_3  and  C4_4 
REMARK    2  A    between atoms: N1_8  and  C8_9 
REMARK    3  A    between atoms: C8_9  and  C9_10 
REMARK    4  A    between atoms: C9_10  and  C10_11 
REMARK    5  A    between atoms: C10_11  and  O1_12 
REMARK    6  A    between atoms: O1_12  and  C11_13 
REMARK    7  A    between atoms: C11_13  and  C12_14 
REMARK    8  A    between atoms: C12_14  and  N2_15 
ROOT
HETATM    1  C1  UNL     1     -26.560   0.670  23.348  1.00  0.00     0.112 C 
HETATM    2  C2  UNL     1     -27.250   0.396  22.079  1.00  0.00    -0.105 C 
HETATM    3  C3  UNL     1     -27.825   0.160  21.045  1.00  0.00    -0.066 C 
ENDROOT
BRANCH   3   4
HETATM    4  C4  UNL     1     -28.519  -0.137  19.806  1.00  0.00     0.033 A 
HETATM    5  C5  UNL     1     -29.290  -1.277  19.679  1.00  0.00     0.023 A 
HETATM    6  C6  UNL     1     -29.925  -1.499  18.471  1.00  0.00     0.019 A 
HETATM    7  C7  UNL     1     -29.793  -0.606  17.420  1.00  0.00     0.090 A 
HETATM    8  N1  UNL     1     -29.039   0.503  17.553  1.00  0.00    -0.365 N 
HETATM    9  C21 UNL     1     -28.436   0.700  18.722  1.00  0.00     0.111 A 
BRANCH   8  10
HETATM   10  C8  UNL     1     -28.943   1.378  16.439  1.00  0.00     0.130 C 
BRANCH  10  11
HETATM   11  C9  UNL     1     -28.886   0.736  15.099  1.00  0.00     0.046 C 
BRANCH  11  12
HETATM   12  C10 UNL     1     -28.469   1.849  14.105  1.00  0.00     0.169 C 
BRANCH  12  13
HETATM   13  O1  UNL     1     -27.405   1.435  13.343  1.00  0.00    -0.389 OA
BRANCH  13  14
HETATM   14  C11 UNL     1     -26.248   1.417  14.079  1.00  0.00     0.187 C 
BRANCH  14  15
HETATM   15  C12 UNL     1     -25.203   2.286  13.436  1.00  0.00     0.154 C 
BRANCH  15  16
HETATM   16  N2  UNL     1     -23.914   1.813  13.982  1.00  0.00    -0.363 N 
HETATM   17  C13 UNL     1     -23.102   1.116  13.172  1.00  0.00     0.092 A 
HETATM   18  C14 UNL     1     -21.891   0.647  13.612  1.00  0.00     0.048 A 
HETATM   19  C15 UNL     1     -21.532   0.917  14.924  1.00  0.00     0.063 A 
HETATM   20  N3  UNL     1     -20.341   0.458  15.363  1.00  0.00    -0.191 N 
HETATM   21  C19 UNL     1     -22.373   1.636  15.753  1.00  0.00     0.023 A 
HETATM   22  C16 UNL     1     -19.984   0.714  16.632  1.00  0.00     0.678 A 
ATOM     23  H3  UNL     1     -19.726  -0.071  14.745  1.00  0.00     0.184 HD
HETATM   24  N4  UNL     1     -18.833   0.262  17.031  1.00  0.00    -0.234 N 
HETATM   25  N5  UNL     1     -20.762   1.407  17.480  1.00  0.00    -0.197 N 
ATOM     26  H42 UNL     1     -18.242  -0.263  16.388  1.00  0.00     0.174 HD
ATOM     27  H41 UNL     1     -18.562   0.457  17.995  1.00  0.00     0.174 HD
HETATM   28  C17 UNL     1     -20.309   1.648  18.847  1.00  0.00     0.174 C 
HETATM   29  C18 UNL     1     -21.950   1.864  17.042  1.00  0.00     0.123 A 
HETATM   30  C20 UNL     1     -23.576   2.081  15.255  1.00  0.00     0.105 A 
ENDBRANCH  15  16
ENDBRANCH  14  15
ENDBRANCH  13  14
ENDBRANCH  12  13
ENDBRANCH  11  12
ENDBRANCH  10  11
ENDBRANCH   8  10
ENDBRANCH   3   4
TORSDOF 8
ENDMDL
MODEL 5
REMARK VINA RESULT: -6.628749865      2.478      3.611
REMARK  8 active torsions:
REMARK  status: ('A' for Active; 'I' for Inactive)
REMARK    1  A    between atoms: C3_3  and  C4_4 
REMARK    2  A    between atoms: N1_8  and  C8_9 
REMARK    3  A    between atoms: C8_9  and  C9_10 
REMARK    4  A    between atoms: C9_10  and  C10_11 
REMARK    5  A    between atoms: C10_11  and  O1_12 
REMARK    6  A    between atoms: O1_12  and  C11_13 
REMARK    7  A    between atoms: C11_13  and  C12_14 
REMARK    8  A    between atoms: C12_14  and  N2_15 
ROOT
HETATM    1  C1  UNL     1     -29.503  -3.529  20.166  1.00  0.00     0.112 C 
HETATM    2  C2  UNL     1     -29.258  -2.101  19.922  1.00  0.00    -0.105 C 
HETATM    3  C3  UNL     1     -29.052  -0.926  19.737  1.00  0.00    -0.066 C 
ENDROOT
BRANCH   3   4
HETATM    4  C4  UNL     1     -28.805   0.488  19.528  1.00  0.00     0.033 A 
HETATM    5  C5  UNL     1     -27.854   1.160  20.271  1.00  0.00     0.023 A 
HETATM    6  C6  UNL     1     -27.669   2.507  20.021  1.00  0.00     0.019 A 
HETATM    7  C7  UNL     1     -28.415   3.164  19.055  1.00  0.00     0.090 A 
HETATM    8  N1  UNL     1     -29.341   2.500  18.336  1.00  0.00    -0.365 N 
HETATM    9  C21 UNL     1     -29.505   1.205  18.591  1.00  0.00     0.111 A 
BRANCH   8  10
HETATM   10  C8  UNL     1     -30.073   3.229  17.362  1.00  0.00     0.130 C 
BRANCH  10  11
HETATM   11  C9  UNL     1     -30.922   2.430  16.439  1.00  0.00     0.046 C 
BRANCH  11  12
HETATM   12  C10 UNL     1     -30.243   2.508  15.050  1.00  0.00     0.169 C 
BRANCH  12  13
HETATM   13  O1  UNL     1     -30.040   1.248  14.545  1.00  0.00    -0.389 OA
BRANCH  13  14
HETATM   14  C11 UNL     1     -28.763   0.815  14.796  1.00  0.00     0.187 C 
BRANCH  14  15
HETATM   15  C12 UNL     1     -27.782   1.536  13.914  1.00  0.00     0.154 C 
BRANCH  15  16
HETATM   16  N2  UNL     1     -26.566   1.699  14.738  1.00  0.00    -0.363 N 
HETATM   17  C13 UNL     1     -26.707   2.172  15.986  1.00  0.00     0.092 A 
HETATM   18  C14 UNL     1     -25.622   2.347  16.806  1.00  0.00     0.048 A 
HETATM   19  C15 UNL     1     -24.372   2.019  16.303  1.00  0.00     0.063 A 
HETATM   20  N3  UNL     1     -23.301   2.189  17.106  1.00  0.00    -0.191 N 
HETATM   21  C19 UNL     1     -24.234   1.532  15.017  1.00  0.00     0.023 A 
HETATM   22  C16 UNL     1     -22.086   1.874  16.629  1.00  0.00     0.678 A 
ATOM     23  H3  UNL     1     -23.412   2.548  18.054  1.00  0.00     0.184 HD
HETATM   24  N4  UNL     1     -21.070   2.047  17.420  1.00  0.00    -0.234 N 
HETATM   25  N5  UNL     1     -21.894   1.398  15.387  1.00  0.00    -0.197 N 
ATOM     26  H42 UNL     1     -21.215   2.408  18.362  1.00  0.00     0.174 HD
ATOM     27  H41 UNL     1     -20.147   1.807  17.057  1.00  0.00     0.174 HD
HETATM   28  C17 UNL     1     -20.543   1.077  14.934  1.00  0.00     0.174 C 
HETATM   29  C18 UNL     1     -22.962   1.228  14.586  1.00  0.00     0.123 A 
HETATM   30  C20 UNL     1     -25.359   1.377  14.240  1.00  0.00     0.105 A 
ENDBRANCH  15  16
ENDBRANCH  14  15
ENDBRANCH  13  14
ENDBRANCH  12  13
ENDBRANCH  11  12
ENDBRANCH  10  11
ENDBRANCH   8  10
ENDBRANCH   3   4
TORSDOF 8
ENDMDL
