MODEL 1
REMARK VINA RESULT: -7.193337619      0.000      0.000
REMARK  9 active torsions:
REMARK  status: ('A' for Active; 'I' for Inactive)
REMARK    1  A    between atoms: N1_6  and  C6_7 
REMARK    2  A    between atoms: N2_11  and  C10_12 
REMARK    3  A    between atoms: C10_12  and  C11_13 
REMARK    4  A    between atoms: C11_13  and  C12_14 
REMARK    5  A    between atoms: C12_14  and  C13_15 
REMARK    6  A    between atoms: C13_15  and  O1_16 
REMARK    7  A    between atoms: N5_23  and  C17_24 
REMARK    8  A    between atoms: C17_24  and  C18_25 
REMARK    9  A    between atoms: N6_29  and  N7_30 
ROOT
HETATM    1  C1  UNL     1      32.189   0.838  16.811  1.00  0.00     0.068 C 
HETATM    2  C2  UNL     1      31.107  -0.111  16.413  1.00  0.00     0.012 A 
HETATM    3  C3  UNL     1      30.677  -0.155  15.110  1.00  0.00     0.050 A 
HETATM    4  C4  UNL     1      29.656  -1.032  14.719  1.00  0.00     0.017 A 
HETATM    5  C5  UNL     1      29.192  -0.873  13.293  1.00  0.00     0.068 C 
HETATM    6  N1  UNL     1      29.066  -1.853  15.585  1.00  0.00    -0.298 N 
HETATM    7  C16 UNL     1      29.515  -1.780  16.874  1.00  0.00     0.202 A 
HETATM    8  N4  UNL     1      28.832  -2.581  17.808  1.00  0.00    -0.062 NA
HETATM    9  N5  UNL     1      30.506  -0.939  17.284  1.00  0.00    -0.321 N 
ENDROOT
BRANCH   6  10
HETATM   10  C6  UNL     1      28.121  -2.836  15.237  1.00  0.00     0.129 C 
HETATM   11  C7  UNL     1      26.736  -2.562  14.964  1.00  0.00     0.052 A 
HETATM   12  C8  UNL     1      26.274  -2.885  13.676  1.00  0.00     0.048 A 
HETATM   13  N3  UNL     1      25.836  -2.028  15.755  1.00  0.00    -0.346 N 
HETATM   14  C9  UNL     1      24.983  -2.656  13.289  1.00  0.00     0.094 A 
HETATM   15  N2  UNL     1      24.092  -2.107  14.128  1.00  0.00    -0.353 N 
HETATM   16  C14 UNL     1      24.539  -1.804  15.345  1.00  0.00     0.185 A 
HETATM   17  C15 UNL     1      26.111  -1.630  17.114  1.00  0.00     0.157 C 
BRANCH  15  18
HETATM   18  C10 UNL     1      22.709  -1.857  13.724  1.00  0.00     0.129 C 
BRANCH  18  19
HETATM   19  C11 UNL     1      22.107  -0.825  14.685  1.00  0.00     0.022 C 
BRANCH  19  20
HETATM   20  C12 UNL     1      20.686  -1.256  15.053  1.00  0.00     0.028 C 
BRANCH  20  21
HETATM   21  C13 UNL     1      20.496  -1.210  16.548  1.00  0.00     0.164 C 
BRANCH  21  22
HETATM   22  O1  UNL     1      19.188  -0.800  16.881  1.00  0.00    -0.401 OA
ATOM     23  H1  UNL     1      19.107   0.146  16.842  1.00  0.00     0.209 HD
ENDBRANCH  21  22
ENDBRANCH  20  21
ENDBRANCH  19  20
ENDBRANCH  18  19
ENDBRANCH  15  18
ENDBRANCH   6  10
BRANCH   9  24
HETATM   24  C17 UNL     1      30.895  -0.898  18.667  1.00  0.00     0.171 C 
BRANCH  24  25
HETATM   25  C18 UNL     1      30.596   0.338  19.403  1.00  0.00    -0.022 A 
HETATM   26  C19 UNL     1      29.420   1.020  19.299  1.00  0.00     0.012 A 
HETATM   27  C20 UNL     1      29.221   2.214  20.010  1.00  0.00     0.020 A 
HETATM   28  C21 UNL     1      30.223   2.705  20.823  1.00  0.00     0.115 A 
HETATM   29  N6  UNL     1      31.379   2.013  20.912  1.00  0.00    -0.285 N 
HETATM   30  C22 UNL     1      31.580   0.878  20.241  1.00  0.00     0.123 A 
BRANCH  29  31
HETATM   31  N7  UNL     1      32.375   2.541  21.747  1.00  0.00    -0.339 N 
ATOM     32  H72 UNL     1      32.944   1.928  22.333  1.00  0.00     0.177 HD
ATOM     33  H71 UNL     1      32.501   3.553  21.738  1.00  0.00     0.177 HD
ENDBRANCH  29  31
ENDBRANCH  24  25
ENDBRANCH   9  24
TORSDOF 9
ENDMDL
MODEL 2
REMARK VINA RESULT: -7.062206902      1.364      1.460
REMARK  9 active torsions:
REMARK  status: ('A' for Active; 'I' for Inactive)
REMARK    1  A    between atoms: N1_6  and  C6_7 
REMARK    2  A    between atoms: N2_11  and  C10_12 
REMARK    3  A    between atoms: C10_12  and  C11_13 
REMARK    4  A    between atoms: C11_13  and  C12_14 
REMARK    5  A    between atoms: C12_14  and  C13_15 
REMARK    6  A    between atoms: C13_15  and  O1_16 
REMARK    7  A    between atoms: N5_23  and  C17_24 
REMARK    8  A    between atoms: C17_24  and  C18_25 
REMARK    9  A    between atoms: N6_29  and  N7_30 
ROOT
HETATM    1  C1  UNL     1      32.105   0.611  17.155  1.00  0.00     0.068 C 
HETATM    2  C2  UNL     1      31.023  -0.291  16.660  1.00  0.00     0.012 A 
HETATM    3  C3  UNL     1      30.495  -0.106  15.406  1.00  0.00     0.050 A 
HETATM    4  C4  UNL     1      29.472  -0.937  14.928  1.00  0.00     0.017 A 
HETATM    5  C5  UNL     1      28.894  -0.531  13.595  1.00  0.00     0.068 C 
HETATM    6  N1  UNL     1      28.975  -1.931  15.659  1.00  0.00    -0.298 N 
HETATM    7  C16 UNL     1      29.521  -2.085  16.903  1.00  0.00     0.202 A 
HETATM    8  N4  UNL     1      28.936  -3.077  17.712  1.00  0.00    -0.062 NA
HETATM    9  N5  UNL     1      30.516  -1.294  17.396  1.00  0.00    -0.321 N 
ENDROOT
BRANCH   6  10
HETATM   10  C6  UNL     1      28.035  -2.871  15.197  1.00  0.00     0.129 C 
HETATM   11  C7  UNL     1      26.652  -2.569  14.942  1.00  0.00     0.052 A 
HETATM   12  C8  UNL     1      26.203  -2.750  13.622  1.00  0.00     0.048 A 
HETATM   13  N3  UNL     1      25.744  -2.125  15.778  1.00  0.00    -0.346 N 
HETATM   14  C9  UNL     1      24.916  -2.480  13.250  1.00  0.00     0.094 A 
HETATM   15  N2  UNL     1      24.015  -2.026  14.136  1.00  0.00    -0.353 N 
HETATM   16  C14 UNL     1      24.451  -1.858  15.383  1.00  0.00     0.185 A 
HETATM   17  C15 UNL     1      26.005  -1.878  17.175  1.00  0.00     0.157 C 
BRANCH  15  18
HETATM   18  C10 UNL     1      22.637  -1.735  13.748  1.00  0.00     0.129 C 
BRANCH  18  19
HETATM   19  C11 UNL     1      22.053  -0.742  14.762  1.00  0.00     0.022 C 
BRANCH  19  20
HETATM   20  C12 UNL     1      20.621  -1.161  15.101  1.00  0.00     0.028 C 
BRANCH  20  21
HETATM   21  C13 UNL     1      20.430  -1.202  16.596  1.00  0.00     0.164 C 
BRANCH  21  22
HETATM   22  O1  UNL     1      19.120  -0.815  16.951  1.00  0.00    -0.401 OA
ATOM     23  H1  UNL     1      18.521  -1.551  16.897  1.00  0.00     0.209 HD
ENDBRANCH  21  22
ENDBRANCH  20  21
ENDBRANCH  19  20
ENDBRANCH  18  19
ENDBRANCH  15  18
ENDBRANCH   6  10
BRANCH   9  24
HETATM   24  C17 UNL     1      31.010  -1.499  18.730  1.00  0.00     0.171 C 
BRANCH  24  25
HETATM   25  C18 UNL     1      30.268  -0.848  19.819  1.00  0.00    -0.022 A 
HETATM   26  C19 UNL     1      29.634   0.352  19.696  1.00  0.00     0.012 A 
HETATM   27  C20 UNL     1      28.973   0.926  20.793  1.00  0.00     0.020 A 
HETATM   28  C21 UNL     1      28.962   0.273  22.008  1.00  0.00     0.115 A 
HETATM   29  N6  UNL     1      29.596  -0.915  22.108  1.00  0.00    -0.285 N 
HETATM   30  C22 UNL     1      30.229  -1.471  21.073  1.00  0.00     0.123 A 
BRANCH  29  31
HETATM   31  N7  UNL     1      29.567  -1.552  23.358  1.00  0.00    -0.339 N 
ATOM     32  H72 UNL     1      29.810  -2.538  23.447  1.00  0.00     0.177 HD
ATOM     33  H71 UNL     1      29.295  -0.985  24.161  1.00  0.00     0.177 HD
ENDBRANCH  29  31
ENDBRANCH  24  25
ENDBRANCH   9  24
TORSDOF 9
ENDMDL
MODEL 3
REMARK VINA RESULT: -6.708831607      3.702      8.641
REMARK  9 active torsions:
REMARK  status: ('A' for Active; 'I' for Inactive)
REMARK    1  A    between atoms: N1_6  and  C6_7 
REMARK    2  A    between atoms: N2_11  and  C10_12 
REMARK    3  A    between atoms: C10_12  and  C11_13 
REMARK    4  A    between atoms: C11_13  and  C12_14 
REMARK    5  A    between atoms: C12_14  and  C13_15 
REMARK    6  A    between atoms: C13_15  and  O1_16 
REMARK    7  A    between atoms: N5_23  and  C17_24 
REMARK    8  A    between atoms: C17_24  and  C18_25 
REMARK    9  A    between atoms: N6_29  and  N7_30 
ROOT
HETATM    1  C1  UNL     1      22.720  -2.034  12.873  1.00  0.00     0.068 C 
HETATM    2  C2  UNL     1      23.781  -1.930  13.919  1.00  0.00     0.012 A 
HETATM    3  C3  UNL     1      25.005  -1.393  13.605  1.00  0.00     0.050 A 
HETATM    4  C4  UNL     1      26.016  -1.296  14.571  1.00  0.00     0.017 A 
HETATM    5  C5  UNL     1      27.349  -0.817  14.050  1.00  0.00     0.068 C 
HETATM    6  N1  UNL     1      25.835  -1.713  15.821  1.00  0.00    -0.298 N 
HETATM    7  C16 UNL     1      24.607  -2.246  16.099  1.00  0.00     0.202 A 
HETATM    8  N4  UNL     1      24.443  -2.769  17.394  1.00  0.00    -0.062 NA
HETATM    9  N5  UNL     1      23.604  -2.353  15.182  1.00  0.00    -0.321 N 
ENDROOT
BRANCH   6  10
HETATM   10  C6  UNL     1      26.763  -1.538  16.864  1.00  0.00     0.129 C 
HETATM   11  C7  UNL     1      28.179  -1.751  16.728  1.00  0.00     0.052 A 
HETATM   12  C8  UNL     1      29.007  -0.637  16.957  1.00  0.00     0.048 A 
HETATM   13  N3  UNL     1      28.813  -2.851  16.397  1.00  0.00    -0.346 N 
HETATM   14  C9  UNL     1      30.367  -0.708  16.840  1.00  0.00     0.094 A 
HETATM   15  N2  UNL     1      30.978  -1.853  16.499  1.00  0.00    -0.353 N 
HETATM   16  C14 UNL     1      30.185  -2.901  16.284  1.00  0.00     0.185 A 
HETATM   17  C15 UNL     1      28.144  -4.100  16.125  1.00  0.00     0.157 C 
BRANCH  15  18
HETATM   18  C10 UNL     1      32.432  -1.939  16.372  1.00  0.00     0.129 C 
BRANCH  18  19
HETATM   19  C11 UNL     1      32.950  -0.585  15.870  1.00  0.00     0.022 C 
BRANCH  19  20
HETATM   20  C12 UNL     1      33.200  -0.676  14.363  1.00  0.00     0.028 C 
BRANCH  20  21
HETATM   21  C13 UNL     1      32.213   0.186  13.618  1.00  0.00     0.164 C 
BRANCH  21  22
HETATM   22  O1  UNL     1      32.854   1.297  13.028  1.00  0.00    -0.401 OA
ATOM     23  H1  UNL     1      33.498   1.672  13.617  1.00  0.00     0.209 HD
ENDBRANCH  21  22
ENDBRANCH  20  21
ENDBRANCH  19  20
ENDBRANCH  18  19
ENDBRANCH  15  18
ENDBRANCH   6  10
BRANCH   9  24
HETATM   24  C17 UNL     1      22.353  -2.959  15.545  1.00  0.00     0.171 C 
BRANCH  24  25
HETATM   25  C18 UNL     1      21.353  -2.089  16.180  1.00  0.00    -0.022 A 
HETATM   26  C19 UNL     1      20.716  -1.069  15.538  1.00  0.00     0.012 A 
HETATM   27  C20 UNL     1      19.797  -0.258  16.222  1.00  0.00     0.020 A 
HETATM   28  C21 UNL     1      19.532  -0.492  17.556  1.00  0.00     0.115 A 
HETATM   29  N6  UNL     1      20.174  -1.508  18.172  1.00  0.00    -0.285 N 
HETATM   30  C22 UNL     1      21.051  -2.285  17.533  1.00  0.00     0.123 A 
BRANCH  29  31
HETATM   31  N7  UNL     1      19.882  -1.718  19.528  1.00  0.00    -0.339 N 
ATOM     32  H72 UNL     1      19.021  -1.356  19.939  1.00  0.00     0.177 HD
ATOM     33  H71 UNL     1      20.564  -2.245  20.073  1.00  0.00     0.177 HD
ENDBRANCH  29  31
ENDBRANCH  24  25
ENDBRANCH   9  24
TORSDOF 9
ENDMDL
MODEL 4
REMARK VINA RESULT: -6.616306537      3.194      5.231
REMARK  9 active torsions:
REMARK  status: ('A' for Active; 'I' for Inactive)
REMARK    1  A    between atoms: N1_6  and  C6_7 
REMARK    2  A    between atoms: N2_11  and  C10_12 
REMARK    3  A    between atoms: C10_12  and  C11_13 
REMARK    4  A    between atoms: C11_13  and  C12_14 
REMARK    5  A    between atoms: C12_14  and  C13_15 
REMARK    6  A    between atoms: C13_15  and  O1_16 
REMARK    7  A    between atoms: N5_23  and  C17_24 
REMARK    8  A    between atoms: C17_24  and  C18_25 
REMARK    9  A    between atoms: N6_29  and  N7_30 
ROOT
HETATM    1  C1  UNL     1      32.660  -4.171  14.900  1.00  0.00     0.068 C 
HETATM    2  C2  UNL     1      31.406  -3.453  15.275  1.00  0.00     0.012 A 
HETATM    3  C3  UNL     1      30.360  -4.143  15.836  1.00  0.00     0.050 A 
HETATM    4  C4  UNL     1      29.171  -3.488  16.185  1.00  0.00     0.017 A 
HETATM    5  C5  UNL     1      28.062  -4.393  16.658  1.00  0.00     0.068 C 
HETATM    6  N1  UNL     1      29.008  -2.182  15.993  1.00  0.00    -0.298 N 
HETATM    7  C16 UNL     1      30.067  -1.525  15.430  1.00  0.00     0.202 A 
HETATM    8  N4  UNL     1      29.863  -0.163  15.144  1.00  0.00    -0.062 NA
HETATM    9  N5  UNL     1      31.235  -2.134  15.080  1.00  0.00    -0.321 N 
ENDROOT
BRANCH   6  10
HETATM   10  C6  UNL     1      27.890  -1.444  16.428  1.00  0.00     0.129 C 
HETATM   11  C7  UNL     1      26.547  -1.669  15.966  1.00  0.00     0.052 A 
HETATM   12  C8  UNL     1      25.603  -2.042  16.939  1.00  0.00     0.048 A 
HETATM   13  N3  UNL     1      26.078  -1.591  14.744  1.00  0.00    -0.346 N 
HETATM   14  C9  UNL     1      24.299  -2.301  16.623  1.00  0.00     0.094 A 
HETATM   15  N2  UNL     1      23.857  -2.211  15.359  1.00  0.00    -0.353 N 
HETATM   16  C14 UNL     1      24.759  -1.858  14.445  1.00  0.00     0.185 A 
HETATM   17  C15 UNL     1      26.885  -1.223  13.606  1.00  0.00     0.157 C 
BRANCH  15  18
HETATM   18  C10 UNL     1      22.465  -2.486  15.011  1.00  0.00     0.129 C 
BRANCH  18  19
HETATM   19  C11 UNL     1      21.640  -2.498  16.304  1.00  0.00     0.022 C 
BRANCH  19  20
HETATM   20  C12 UNL     1      20.663  -1.320  16.282  1.00  0.00     0.028 C 
BRANCH  20  21
HETATM   21  C13 UNL     1      19.938  -1.218  17.600  1.00  0.00     0.164 C 
BRANCH  21  22
HETATM   22  O1  UNL     1      19.576  -2.495  18.079  1.00  0.00    -0.401 OA
ATOM     23  H1  UNL     1      20.083  -2.728  18.848  1.00  0.00     0.209 HD
ENDBRANCH  21  22
ENDBRANCH  20  21
ENDBRANCH  19  20
ENDBRANCH  18  19
ENDBRANCH  15  18
ENDBRANCH   6  10
BRANCH   9  24
HETATM   24  C17 UNL     1      32.288  -1.378  14.459  1.00  0.00     0.171 C 
BRANCH  24  25
HETATM   25  C18 UNL     1      32.155  -1.116  13.019  1.00  0.00    -0.022 A 
HETATM   26  C19 UNL     1      31.496  -1.939  12.154  1.00  0.00     0.012 A 
HETATM   27  C20 UNL     1      31.441  -1.638  10.784  1.00  0.00     0.020 A 
HETATM   28  C21 UNL     1      32.056  -0.499  10.305  1.00  0.00     0.115 A 
HETATM   29  N6  UNL     1      32.702   0.301  11.179  1.00  0.00    -0.285 N 
HETATM   30  C22 UNL     1      32.763   0.025  12.484  1.00  0.00     0.123 A 
BRANCH  29  31
HETATM   31  N7  UNL     1      33.317   1.450  10.658  1.00  0.00    -0.339 N 
ATOM     32  H72 UNL     1      34.302   1.439  10.391  1.00  0.00     0.177 HD
ATOM     33  H71 UNL     1      32.738   2.284  10.561  1.00  0.00     0.177 HD
ENDBRANCH  29  31
ENDBRANCH  24  25
ENDBRANCH   9  24
TORSDOF 9
ENDMDL
MODEL 5
REMARK VINA RESULT: -6.532861160      3.725      8.764
REMARK  9 active torsions:
REMARK  status: ('A' for Active; 'I' for Inactive)
REMARK    1  A    between atoms: N1_6  and  C6_7 
REMARK    2  A    between atoms: N2_11  and  C10_12 
REMARK    3  A    between atoms: C10_12  and  C11_13 
REMARK    4  A    between atoms: C11_13  and  C12_14 
REMARK    5  A    between atoms: C12_14  and  C13_15 
REMARK    6  A    between atoms: C13_15  and  O1_16 
REMARK    7  A    between atoms: N5_23  and  C17_24 
REMARK    8  A    between atoms: C17_24  and  C18_25 
REMARK    9  A    between atoms: N6_29  and  N7_30 
ROOT
HETATM    1  C1  UNL     1      22.923  -2.267  12.804  1.00  0.00     0.068 C 
HETATM    2  C2  UNL     1      23.948  -2.064  13.870  1.00  0.00     0.012 A 
HETATM    3  C3  UNL     1      25.171  -1.525  13.555  1.00  0.00     0.050 A 
HETATM    4  C4  UNL     1      26.149  -1.336  14.540  1.00  0.00     0.017 A 
HETATM    5  C5  UNL     1      27.488  -0.869  14.027  1.00  0.00     0.068 C 
HETATM    6  N1  UNL     1      25.937  -1.664  15.812  1.00  0.00    -0.298 N 
HETATM    7  C16 UNL     1      24.711  -2.201  16.091  1.00  0.00     0.202 A 
HETATM    8  N4  UNL     1      24.517  -2.632  17.417  1.00  0.00    -0.062 NA
HETATM    9  N5  UNL     1      23.739  -2.397  15.155  1.00  0.00    -0.321 N 
ENDROOT
BRANCH   6  10
HETATM   10  C6  UNL     1      26.828  -1.393  16.867  1.00  0.00     0.129 C 
HETATM   11  C7  UNL     1      28.198  -1.829  16.897  1.00  0.00     0.052 A 
HETATM   12  C8  UNL     1      29.177  -0.821  16.951  1.00  0.00     0.048 A 
HETATM   13  N3  UNL     1      28.669  -3.053  16.862  1.00  0.00    -0.346 N 
HETATM   14  C9  UNL     1      30.513  -1.107  16.964  1.00  0.00     0.094 A 
HETATM   15  N2  UNL     1      30.955  -2.374  16.927  1.00  0.00    -0.353 N 
HETATM   16  C14 UNL     1      30.020  -3.321  16.876  1.00  0.00     0.185 A 
HETATM   17  C15 UNL     1      27.828  -4.224  16.808  1.00  0.00     0.157 C 
BRANCH  15  18
HETATM   18  C10 UNL     1      32.382  -2.690  16.942  1.00  0.00     0.129 C 
BRANCH  18  19
HETATM   19  C11 UNL     1      33.098  -1.719  15.994  1.00  0.00     0.022 C 
BRANCH  19  20
HETATM   20  C12 UNL     1      34.398  -1.249  16.653  1.00  0.00     0.028 C 
BRANCH  20  21
HETATM   21  C13 UNL     1      34.094  -0.313  17.795  1.00  0.00     0.164 C 
BRANCH  21  22
HETATM   22  O1  UNL     1      33.385   0.821  17.346  1.00  0.00    -0.401 OA
ATOM     23  H1  UNL     1      33.513   1.558  17.932  1.00  0.00     0.209 HD
ENDBRANCH  21  22
ENDBRANCH  20  21
ENDBRANCH  19  20
ENDBRANCH  18  19
ENDBRANCH  15  18
ENDBRANCH   6  10
BRANCH   9  24
HETATM   24  C17 UNL     1      22.489  -3.001  15.525  1.00  0.00     0.171 C 
BRANCH  24  25
HETATM   25  C18 UNL     1      21.471  -2.117  16.108  1.00  0.00    -0.022 A 
HETATM   26  C19 UNL     1      20.869  -1.099  15.429  1.00  0.00     0.012 A 
HETATM   27  C20 UNL     1      19.929  -0.274  16.066  1.00  0.00     0.020 A 
HETATM   28  C21 UNL     1      19.607  -0.492  17.390  1.00  0.00     0.115 A 
HETATM   29  N6  UNL     1      20.215  -1.505  18.043  1.00  0.00    -0.285 N 
HETATM   30  C22 UNL     1      21.112  -2.296  17.449  1.00  0.00     0.123 A 
BRANCH  29  31
HETATM   31  N7  UNL     1      19.866  -1.698  19.388  1.00  0.00    -0.339 N 
ATOM     32  H72 UNL     1      19.328  -0.994  19.894  1.00  0.00     0.177 HD
ATOM     33  H71 UNL     1      20.172  -2.567  19.827  1.00  0.00     0.177 HD
ENDBRANCH  29  31
ENDBRANCH  24  25
ENDBRANCH   9  24
TORSDOF 9
ENDMDL
