MODEL 1
REMARK VINA RESULT: -7.021869087      0.000      0.000
REMARK  10 active torsions:
REMARK  status: ('A' for Active; 'I' for Inactive)
REMARK    1  A    between atoms: C2_2  and  C3_3 
REMARK    2  A    between atoms: N1_6  and  C6_7 
REMARK    3  A    between atoms: C6_7  and  C7_8 
REMARK    4  A    between atoms: C8_9  and  C9_10 
REMARK    5  A    between atoms: C11_12  and  C12_13 
REMARK    6  A    between atoms: C12_13  and  C13_14 
REMARK    7  A    between atoms: C13_14  and  N2_15 
REMARK    8  A    between atoms: C17_21  and  N4_22 
REMARK       I    between atoms: N4_22  and  C18_24 
REMARK    9  A    between atoms: C21_32  and  C22_33 
REMARK   10  A    between atoms: C23_34  and  N8_35 
ROOT
HETATM    1  C7  UNL     1      27.346  -2.397  15.549  1.00  0.00     0.075 A 
HETATM    2  C8  UNL     1      27.896  -2.575  14.321  1.00  0.00    -0.006 A 
HETATM    3  C11 UNL     1      27.193  -2.404  13.110  1.00  0.00     0.036 A 
HETATM    4  N3  UNL     1      25.908  -2.038  13.162  1.00  0.00    -0.194 N 
ATOM      5  H3  UNL     1      25.370  -1.903  12.306  1.00  0.00     0.184 HD
HETATM    6  C17 UNL     1      25.346  -1.854  14.355  1.00  0.00     0.687 A 
HETATM    7  N7  UNL     1      26.019  -2.021  15.520  1.00  0.00    -0.185 N 
HETATM    8  C19 UNL     1      25.307  -1.844  16.749  1.00  0.00     0.175 C 
ENDROOT
BRANCH   1   9
HETATM    9  C6  UNL     1      27.922  -2.627  16.835  1.00  0.00     0.126 C 
BRANCH   9  10
HETATM   10  N1  UNL     1      28.388  -1.638  17.735  1.00  0.00    -0.339 N 
HETATM   11  C5  UNL     1      29.176  -0.604  17.395  1.00  0.00     0.096 A 
HETATM   12  C4  UNL     1      29.499   0.400  18.272  1.00  0.00     0.026 A 
HETATM   13  C3  UNL     1      29.032   0.406  19.567  1.00  0.00    -0.037 A 
HETATM   14  C21 UNL     1      28.227  -0.641  19.932  1.00  0.00     0.041 A 
HETATM   15  C20 UNL     1      27.944  -1.608  19.007  1.00  0.00     0.117 A 
BRANCH  13  16
HETATM   16  C2  UNL     1      29.365   1.476  20.536  1.00  0.00     0.036 C 
HETATM   17  C1  UNL     1      29.416   2.839  19.884  1.00  0.00     0.010 C 
ENDBRANCH  13  16
BRANCH  14  18
HETATM   18  C22 UNL     1      27.680  -0.738  21.281  1.00  0.00    -0.042 C 
HETATM   19  C23 UNL     1      27.209  -0.808  22.388  1.00  0.00     0.009 C 
BRANCH  19  20
HETATM   20  N8  UNL     1      26.648  -0.873  23.665  1.00  0.00    -0.359 N 
ATOM     21  H82 UNL     1      26.920  -1.489  22.898  1.00  0.00     0.166 HD
ATOM     22  H81 UNL     1      26.240  -0.904  24.599  1.00  0.00     0.166 HD
ENDBRANCH  19  20
ENDBRANCH  14  18
ENDBRANCH   9  10
ENDBRANCH   1   9
BRANCH   2  23
HETATM   23  C9  UNL     1      29.333  -2.864  14.145  1.00  0.00     0.038 C 
HETATM   24  C10 UNL     1      30.121  -1.544  14.093  1.00  0.00     0.010 C 
ENDBRANCH   2  23
BRANCH   3  25
HETATM   25  C12 UNL     1      27.760  -2.675  11.778  1.00  0.00     0.086 C 
BRANCH  25  26
HETATM   26  C13 UNL     1      26.896  -3.553  10.911  1.00  0.00     0.242 C 
BRANCH  26  27
HETATM   27  N2  UNL     1      27.492  -3.630   9.594  1.00  0.00    -0.078 N 
HETATM   28  C14 UNL     1      27.547  -5.020   9.135  1.00  0.00     0.271 C 
HETATM   29  C15 UNL     1      26.671  -2.929   8.594  1.00  0.00     0.271 C 
HETATM   30  C16 UNL     1      28.811  -3.077   9.518  1.00  0.00     0.271 C 
ENDBRANCH  26  27
ENDBRANCH  25  26
ENDBRANCH   3  25
BRANCH   6  31
HETATM   31  N4  UNL     1      24.095  -1.488  14.380  1.00  0.00    -0.163 N 
HETATM   32  C18 UNL     1      23.069  -2.310  13.908  1.00  0.00     0.200 C 
HETATM   33  N5  UNL     1      22.745  -2.452  12.666  1.00  0.00    -0.373 N 
HETATM   34  N6  UNL     1      22.315  -3.049  14.882  1.00  0.00    -0.063 NA
ATOM     35  H52 UNL     1      23.281  -1.928  11.975  1.00  0.00     0.158 HD
ATOM     36  H51 UNL     1      21.996  -3.053  12.321  1.00  0.00     0.158 HD
ATOM     37  H4  UNL     1      23.857  -0.571  14.757  1.00  0.00     0.187 HD
ENDBRANCH   6  31
TORSDOF 10
ENDMDL
MODEL 2
REMARK VINA RESULT: -6.902324622      1.627      2.775
REMARK  10 active torsions:
REMARK  status: ('A' for Active; 'I' for Inactive)
REMARK    1  A    between atoms: C2_2  and  C3_3 
REMARK    2  A    between atoms: N1_6  and  C6_7 
REMARK    3  A    between atoms: C6_7  and  C7_8 
REMARK    4  A    between atoms: C8_9  and  C9_10 
REMARK    5  A    between atoms: C11_12  and  C12_13 
REMARK    6  A    between atoms: C12_13  and  C13_14 
REMARK    7  A    between atoms: C13_14  and  N2_15 
REMARK    8  A    between atoms: C17_21  and  N4_22 
REMARK       I    between atoms: N4_22  and  C18_24 
REMARK    9  A    between atoms: C21_32  and  C22_33 
REMARK   10  A    between atoms: C23_34  and  N8_35 
ROOT
HETATM    1  C7  UNL     1      26.859  -2.436  15.455  1.00  0.00     0.075 A 
HETATM    2  C8  UNL     1      27.401  -2.540  14.214  1.00  0.00    -0.006 A 
HETATM    3  C11 UNL     1      26.645  -2.565  13.023  1.00  0.00     0.036 A 
HETATM    4  N3  UNL     1      25.314  -2.474  13.107  1.00  0.00    -0.194 N 
ATOM      5  H3  UNL     1      24.738  -2.485  12.266  1.00  0.00     0.184 HD
HETATM    6  C17 UNL     1      24.758  -2.368  14.312  1.00  0.00     0.687 A 
HETATM    7  N7  UNL     1      25.482  -2.348  15.459  1.00  0.00    -0.185 N 
HETATM    8  C19 UNL     1      24.782  -2.278  16.705  1.00  0.00     0.175 C 
ENDROOT
BRANCH   1   9
HETATM    9  C6  UNL     1      27.504  -2.494  16.727  1.00  0.00     0.126 C 
BRANCH   9  10
HETATM   10  N1  UNL     1      28.069  -1.402  17.431  1.00  0.00    -0.339 N 
HETATM   11  C5  UNL     1      27.445  -0.710  18.398  1.00  0.00     0.096 A 
HETATM   12  C4  UNL     1      28.074   0.258  19.140  1.00  0.00     0.026 A 
HETATM   13  C3  UNL     1      29.396   0.580  18.932  1.00  0.00    -0.037 A 
HETATM   14  C21 UNL     1      30.049  -0.116  17.949  1.00  0.00     0.041 A 
HETATM   15  C20 UNL     1      29.361  -1.068  17.248  1.00  0.00     0.117 A 
BRANCH  13  16
HETATM   16  C2  UNL     1      30.102   1.620  19.717  1.00  0.00     0.036 C 
HETATM   17  C1  UNL     1      29.418   2.966  19.624  1.00  0.00     0.010 C 
ENDBRANCH  13  16
BRANCH  14  18
HETATM   18  C22 UNL     1      31.451   0.148  17.641  1.00  0.00    -0.042 C 
HETATM   19  C23 UNL     1      32.615   0.353  17.405  1.00  0.00     0.009 C 
BRANCH  19  20
HETATM   20  N8  UNL     1      33.968   0.585  17.153  1.00  0.00    -0.359 N 
ATOM     21  H82 UNL     1      33.371   0.068  17.798  1.00  0.00     0.166 HD
ATOM     22  H81 UNL     1      34.953   0.764  16.956  1.00  0.00     0.166 HD
ENDBRANCH  19  20
ENDBRANCH  14  18
ENDBRANCH   9  10
ENDBRANCH   1   9
BRANCH   2  23
HETATM   23  C9  UNL     1      28.861  -2.529  13.999  1.00  0.00     0.038 C 
HETATM   24  C10 UNL     1      29.339  -1.083  13.784  1.00  0.00     0.010 C 
ENDBRANCH   2  23
BRANCH   3  25
HETATM   25  C12 UNL     1      27.222  -2.760  11.681  1.00  0.00     0.086 C 
BRANCH  25  26
HETATM   26  C13 UNL     1      27.267  -4.199  11.238  1.00  0.00     0.242 C 
BRANCH  26  27
HETATM   27  N2  UNL     1      26.608  -4.305   9.954  1.00  0.00    -0.078 N 
HETATM   28  C14 UNL     1      27.149  -5.432   9.190  1.00  0.00     0.271 C 
HETATM   29  C15 UNL     1      25.175  -4.603  10.111  1.00  0.00     0.271 C 
HETATM   30  C16 UNL     1      26.705  -3.126   9.148  1.00  0.00     0.271 C 
ENDBRANCH  26  27
ENDBRANCH  25  26
ENDBRANCH   3  25
BRANCH   6  31
HETATM   31  N4  UNL     1      23.459  -2.270  14.369  1.00  0.00    -0.163 N 
HETATM   32  C18 UNL     1      22.742  -1.398  13.547  1.00  0.00     0.200 C 
HETATM   33  N5  UNL     1      22.598  -0.131  13.756  1.00  0.00    -0.373 N 
HETATM   34  N6  UNL     1      22.112  -1.956  12.382  1.00  0.00    -0.063 NA
ATOM     35  H52 UNL     1      23.046   0.265  14.583  1.00  0.00     0.158 HD
ATOM     36  H51 UNL     1      22.075   0.506  13.156  1.00  0.00     0.158 HD
ATOM     37  H4  UNL     1      22.949  -2.850  15.035  1.00  0.00     0.187 HD
ENDBRANCH   6  31
TORSDOF 10
ENDMDL
MODEL 3
REMARK VINA RESULT: -6.797069942      2.494      4.019
REMARK  10 active torsions:
REMARK  status: ('A' for Active; 'I' for Inactive)
REMARK    1  A    between atoms: C2_2  and  C3_3 
REMARK    2  A    between atoms: N1_6  and  C6_7 
REMARK    3  A    between atoms: C6_7  and  C7_8 
REMARK    4  A    between atoms: C8_9  and  C9_10 
REMARK    5  A    between atoms: C11_12  and  C12_13 
REMARK    6  A    between atoms: C12_13  and  C13_14 
REMARK    7  A    between atoms: C13_14  and  N2_15 
REMARK    8  A    between atoms: C17_21  and  N4_22 
REMARK       I    between atoms: N4_22  and  C18_24 
REMARK    9  A    between atoms: C21_32  and  C22_33 
REMARK   10  A    between atoms: C23_34  and  N8_35 
ROOT
HETATM    1  C7  UNL     1      29.356  -1.906  16.435  1.00  0.00     0.075 A 
HETATM    2  C8  UNL     1      30.019  -1.066  15.599  1.00  0.00    -0.006 A 
HETATM    3  C11 UNL     1      29.632  -0.815  14.266  1.00  0.00     0.036 A 
HETATM    4  N3  UNL     1      28.546  -1.430  13.787  1.00  0.00    -0.194 N 
ATOM      5  H3  UNL     1      28.237  -1.269  12.828  1.00  0.00     0.184 HD
HETATM    6  C17 UNL     1      27.877  -2.256  14.588  1.00  0.00     0.687 A 
HETATM    7  N7  UNL     1      28.249  -2.502  15.869  1.00  0.00    -0.185 N 
HETATM    8  C19 UNL     1      27.487  -3.445  16.629  1.00  0.00     0.175 C 
ENDROOT
BRANCH   1   9
HETATM    9  C6  UNL     1      29.698  -2.310  17.761  1.00  0.00     0.126 C 
BRANCH   9  10
HETATM   10  N1  UNL     1      29.158  -1.789  18.962  1.00  0.00    -0.339 N 
HETATM   11  C5  UNL     1      28.586  -2.526  19.928  1.00  0.00     0.096 A 
HETATM   12  C4  UNL     1      28.191  -1.995  21.130  1.00  0.00     0.026 A 
HETATM   13  C3  UNL     1      28.357  -0.658  21.417  1.00  0.00    -0.037 A 
HETATM   14  C21 UNL     1      28.939   0.110  20.443  1.00  0.00     0.041 A 
HETATM   15  C20 UNL     1      29.310  -0.485  19.269  1.00  0.00     0.117 A 
BRANCH  13  16
HETATM   16  C2  UNL     1      27.940  -0.056  22.705  1.00  0.00     0.036 C 
HETATM   17  C1  UNL     1      26.704  -0.719  23.270  1.00  0.00     0.010 C 
ENDBRANCH  13  16
BRANCH  14  18
HETATM   18  C22 UNL     1      29.159   1.539  20.640  1.00  0.00    -0.042 C 
HETATM   19  C23 UNL     1      29.340   2.722  20.779  1.00  0.00     0.009 C 
BRANCH  19  20
HETATM   20  N8  UNL     1      29.557   4.094  20.920  1.00  0.00    -0.359 N 
ATOM     21  H82 UNL     1      29.157   3.430  20.257  1.00  0.00     0.166 HD
ATOM     22  H81 UNL     1      29.723   5.094  21.037  1.00  0.00     0.166 HD
ENDBRANCH  19  20
ENDBRANCH  14  18
ENDBRANCH   9  10
ENDBRANCH   1   9
BRANCH   2  23
HETATM   23  C9  UNL     1      31.158  -0.248  16.059  1.00  0.00     0.038 C 
HETATM   24  C10 UNL     1      32.445  -1.089  16.016  1.00  0.00     0.010 C 
ENDBRANCH   2  23
BRANCH   3  25
HETATM   25  C12 UNL     1      30.393   0.031  13.329  1.00  0.00     0.086 C 
BRANCH  25  26
HETATM   26  C13 UNL     1      30.951  -0.715  12.145  1.00  0.00     0.242 C 
BRANCH  26  27
HETATM   27  N2  UNL     1      32.347  -0.364  11.997  1.00  0.00    -0.078 N 
HETATM   28  C14 UNL     1      33.202  -1.509  12.320  1.00  0.00     0.271 C 
HETATM   29  C15 UNL     1      32.669  -0.029  10.600  1.00  0.00     0.271 C 
HETATM   30  C16 UNL     1      32.759   0.747  12.801  1.00  0.00     0.271 C 
ENDBRANCH  26  27
ENDBRANCH  25  26
ENDBRANCH   3  25
BRANCH   6  31
HETATM   31  N4  UNL     1      26.816  -2.837  14.102  1.00  0.00    -0.163 N 
HETATM   32  C18 UNL     1      25.992  -2.214  13.162  1.00  0.00     0.200 C 
HETATM   33  N5  UNL     1      25.084  -1.338  13.437  1.00  0.00    -0.373 N 
HETATM   34  N6  UNL     1      26.166  -2.582  11.784  1.00  0.00    -0.063 NA
ATOM     35  H52 UNL     1      24.960  -1.076  14.415  1.00  0.00     0.158 HD
ATOM     36  H51 UNL     1      24.481  -0.883  12.750  1.00  0.00     0.158 HD
ATOM     37  H4  UNL     1      26.579  -3.777  14.419  1.00  0.00     0.187 HD
ENDBRANCH   6  31
TORSDOF 10
ENDMDL
MODEL 4
REMARK VINA RESULT: -6.725376871      1.917      2.513
REMARK  10 active torsions:
REMARK  status: ('A' for Active; 'I' for Inactive)
REMARK    1  A    between atoms: C2_2  and  C3_3 
REMARK    2  A    between atoms: N1_6  and  C6_7 
REMARK    3  A    between atoms: C6_7  and  C7_8 
REMARK    4  A    between atoms: C8_9  and  C9_10 
REMARK    5  A    between atoms: C11_12  and  C12_13 
REMARK    6  A    between atoms: C12_13  and  C13_14 
REMARK    7  A    between atoms: C13_14  and  N2_15 
REMARK    8  A    between atoms: C17_21  and  N4_22 
REMARK       I    between atoms: N4_22  and  C18_24 
REMARK    9  A    between atoms: C21_32  and  C22_33 
REMARK   10  A    between atoms: C23_34  and  N8_35 
ROOT
HETATM    1  C7  UNL     1      27.439  -2.637  15.065  1.00  0.00     0.075 A 
HETATM    2  C8  UNL     1      27.719  -2.882  13.759  1.00  0.00    -0.006 A 
HETATM    3  C11 UNL     1      26.804  -2.679  12.705  1.00  0.00     0.036 A 
HETATM    4  N3  UNL     1      25.586  -2.210  12.996  1.00  0.00    -0.194 N 
ATOM      5  H3  UNL     1      24.901  -2.049  12.259  1.00  0.00     0.184 HD
HETATM    6  C17 UNL     1      25.287  -1.959  14.269  1.00  0.00     0.687 A 
HETATM    7  N7  UNL     1      26.165  -2.157  15.284  1.00  0.00    -0.185 N 
HETATM    8  C19 UNL     1      25.726  -1.900  16.622  1.00  0.00     0.175 C 
ENDROOT
BRANCH   1   9
HETATM    9  C6  UNL     1      28.240  -2.888  16.220  1.00  0.00     0.126 C 
BRANCH   9  10
HETATM   10  N1  UNL     1      29.354  -2.127  16.649  1.00  0.00    -0.339 N 
HETATM   11  C5  UNL     1      30.629  -2.374  16.305  1.00  0.00     0.096 A 
HETATM   12  C4  UNL     1      31.663  -1.536  16.641  1.00  0.00     0.026 A 
HETATM   13  C3  UNL     1      31.451  -0.381  17.359  1.00  0.00    -0.037 A 
HETATM   14  C21 UNL     1      30.156  -0.112  17.719  1.00  0.00     0.041 A 
HETATM   15  C20 UNL     1      29.174  -0.990  17.350  1.00  0.00     0.117 A 
BRANCH  13  16
HETATM   16  C2  UNL     1      32.546   0.542  17.737  1.00  0.00     0.036 C 
HETATM   17  C1  UNL     1      33.897  -0.137  17.715  1.00  0.00     0.010 C 
ENDBRANCH  13  16
BRANCH  14  18
HETATM   18  C22 UNL     1      29.818   1.083  18.486  1.00  0.00    -0.042 C 
HETATM   19  C23 UNL     1      29.553   2.082  19.105  1.00  0.00     0.009 C 
BRANCH  19  20
HETATM   20  N8  UNL     1      29.266   3.249  19.815  1.00  0.00    -0.359 N 
ATOM     21  H82 UNL     1      29.985   2.528  19.753  1.00  0.00     0.166 HD
ATOM     22  H81 UNL     1      29.042   4.103  20.326  1.00  0.00     0.166 HD
ENDBRANCH  19  20
ENDBRANCH  14  18
ENDBRANCH   9  10
ENDBRANCH   1   9
BRANCH   2  23
HETATM   23  C9  UNL     1      29.067  -3.288  13.315  1.00  0.00     0.038 C 
HETATM   24  C10 UNL     1      29.877  -2.042  12.920  1.00  0.00     0.010 C 
ENDBRANCH   2  23
BRANCH   3  25
HETATM   25  C12 UNL     1      27.074  -3.019  11.297  1.00  0.00     0.086 C 
BRANCH  25  26
HETATM   26  C13 UNL     1      26.217  -4.137  10.763  1.00  0.00     0.242 C 
BRANCH  26  27
HETATM   27  N2  UNL     1      26.376  -4.192   9.325  1.00  0.00    -0.078 N 
HETATM   28  C14 UNL     1      27.470  -5.097   8.964  1.00  0.00     0.271 C 
HETATM   29  C15 UNL     1      25.183  -4.758   8.676  1.00  0.00     0.271 C 
HETATM   30  C16 UNL     1      26.624  -2.920   8.716  1.00  0.00     0.271 C 
ENDBRANCH  26  27
ENDBRANCH  25  26
ENDBRANCH   3  25
BRANCH   6  31
HETATM   31  N4  UNL     1      24.097  -1.493  14.527  1.00  0.00    -0.163 N 
HETATM   32  C18 UNL     1      22.936  -2.144  14.104  1.00  0.00     0.200 C 
HETATM   33  N5  UNL     1      22.436  -2.072  12.916  1.00  0.00    -0.373 N 
HETATM   34  N6  UNL     1      22.243  -2.952  15.070  1.00  0.00    -0.063 NA
ATOM     35  H52 UNL     1      22.928  -1.498  12.230  1.00  0.00     0.158 HD
ATOM     36  H51 UNL     1      21.588  -2.547  12.607  1.00  0.00     0.158 HD
ATOM     37  H4  UNL     1      24.011  -0.625  15.056  1.00  0.00     0.187 HD
ENDBRANCH   6  31
TORSDOF 10
ENDMDL
MODEL 5
REMARK VINA RESULT: -6.694761940      2.392      3.606
REMARK  10 active torsions:
REMARK  status: ('A' for Active; 'I' for Inactive)
REMARK    1  A    between atoms: C2_2  and  C3_3 
REMARK    2  A    between atoms: N1_6  and  C6_7 
REMARK    3  A    between atoms: C6_7  and  C7_8 
REMARK    4  A    between atoms: C8_9  and  C9_10 
REMARK    5  A    between atoms: C11_12  and  C12_13 
REMARK    6  A    between atoms: C12_13  and  C13_14 
REMARK    7  A    between atoms: C13_14  and  N2_15 
REMARK    8  A    between atoms: C17_21  and  N4_22 
REMARK       I    between atoms: N4_22  and  C18_24 
REMARK    9  A    between atoms: C21_32  and  C22_33 
REMARK   10  A    between atoms: C23_34  and  N8_35 
ROOT
HETATM    1  C7  UNL     1      29.939  -1.189  16.195  1.00  0.00     0.075 A 
HETATM    2  C8  UNL     1      30.563  -0.664  15.109  1.00  0.00    -0.006 A 
HETATM    3  C11 UNL     1      30.078  -0.779  13.789  1.00  0.00     0.036 A 
HETATM    4  N3  UNL     1      28.932  -1.437  13.583  1.00  0.00    -0.194 N 
ATOM      5  H3  UNL     1      28.550  -1.536  12.643  1.00  0.00     0.184 HD
HETATM    6  C17 UNL     1      28.299  -1.958  14.633  1.00  0.00     0.687 A 
HETATM    7  N7  UNL     1      28.766  -1.852  15.901  1.00  0.00    -0.185 N 
HETATM    8  C19 UNL     1      28.033  -2.490  16.952  1.00  0.00     0.175 C 
ENDROOT
BRANCH   1   9
HETATM    9  C6  UNL     1      30.374  -1.220  17.554  1.00  0.00     0.126 C 
BRANCH   9  10
HETATM   10  N1  UNL     1      30.222  -0.183  18.507  1.00  0.00    -0.339 N 
HETATM   11  C5  UNL     1      30.584   1.096  18.312  1.00  0.00     0.096 A 
HETATM   12  C4  UNL     1      30.302   2.092  19.213  1.00  0.00     0.026 A 
HETATM   13  C3  UNL     1      29.625   1.834  20.384  1.00  0.00    -0.037 A 
HETATM   14  C21 UNL     1      29.248   0.535  20.600  1.00  0.00     0.041 A 
HETATM   15  C20 UNL     1      29.560  -0.407  19.660  1.00  0.00     0.117 A 
BRANCH  13  16
HETATM   16  C2  UNL     1      29.308   2.889  21.375  1.00  0.00     0.036 C 
HETATM   17  C1  UNL     1      30.350   3.984  21.397  1.00  0.00     0.010 C 
ENDBRANCH  13  16
BRANCH  14  18
HETATM   18  C22 UNL     1      28.530   0.150  21.811  1.00  0.00    -0.042 C 
HETATM   19  C23 UNL     1      27.920  -0.153  22.806  1.00  0.00     0.009 C 
BRANCH  19  20
HETATM   20  N8  UNL     1      27.205  -0.482  23.958  1.00  0.00    -0.359 N 
ATOM     21  H82 UNL     1      27.106   0.074  23.109  1.00  0.00     0.166 HD
ATOM     22  H81 UNL     1      26.695  -0.732  24.805  1.00  0.00     0.166 HD
ENDBRANCH  19  20
ENDBRANCH  14  18
ENDBRANCH   9  10
ENDBRANCH   1   9
BRANCH   2  23
HETATM   23  C9  UNL     1      31.769   0.178  15.234  1.00  0.00     0.038 C 
HETATM   24  C10 UNL     1      33.016  -0.718  15.315  1.00  0.00     0.010 C 
ENDBRANCH   2  23
BRANCH   3  25
HETATM   25  C12 UNL     1      30.790  -0.283  12.599  1.00  0.00     0.086 C 
BRANCH  25  26
HETATM   26  C13 UNL     1      31.456  -1.365  11.789  1.00  0.00     0.242 C 
BRANCH  26  27
HETATM   27  N2  UNL     1      32.711  -0.853  11.280  1.00  0.00    -0.078 N 
HETATM   28  C14 UNL     1      33.819  -1.730  11.668  1.00  0.00     0.271 C 
HETATM   29  C15 UNL     1      32.728  -0.845   9.809  1.00  0.00     0.271 C 
HETATM   30  C16 UNL     1      33.016   0.478  11.712  1.00  0.00     0.271 C 
ENDBRANCH  26  27
ENDBRANCH  25  26
ENDBRANCH   3  25
BRANCH   6  31
HETATM   31  N4  UNL     1      27.179  -2.586  14.408  1.00  0.00    -0.163 N 
HETATM   32  C18 UNL     1      26.117  -1.991  13.724  1.00  0.00     0.200 C 
HETATM   33  N5  UNL     1      25.266  -1.170  14.245  1.00  0.00    -0.373 N 
HETATM   34  N6  UNL     1      25.957  -2.322  12.335  1.00  0.00    -0.063 NA
ATOM     35  H52 UNL     1      25.379  -0.934  15.231  1.00  0.00     0.158 HD
ATOM     36  H51 UNL     1      24.490  -0.735  13.745  1.00  0.00     0.158 HD
ATOM     37  H4  UNL     1      27.074  -3.543  14.744  1.00  0.00     0.187 HD
ENDBRANCH   6  31
TORSDOF 10
ENDMDL
