MODEL 1
REMARK VINA RESULT: -7.124983316      0.000      0.000
REMARK  11 active torsions:
REMARK  status: ('A' for Active; 'I' for Inactive)
REMARK    1  A    between atoms: C3_3  and  C4_4 
REMARK    2  A    between atoms: C4_4  and  C5_5 
REMARK    3  A    between atoms: C6_6  and  C7_7 
REMARK    4  A    between atoms: C7_7  and  N1_8 
REMARK    5  A    between atoms: N3_11  and  C9_12 
REMARK    6  A    between atoms: C11_14  and  C12_15 
REMARK    7  A    between atoms: C12_15  and  C13_16 
REMARK    8  A    between atoms: C14_17  and  C15_18 
REMARK    9  A    between atoms: C15_18  and  N4_19 
REMARK   10  A    between atoms: N4_19  and  C16_21 
REMARK   11  A    between atoms: N5_22  and  N6_24 
ROOT
HETATM    1  C1  UNL     1     -28.641  -0.799  21.602  1.00  0.00     0.012 C 
HETATM    2  C2  UNL     1     -29.001  -1.902  21.286  1.00  0.00    -0.117 C 
HETATM    3  C3  UNL     1     -29.441  -3.248  20.923  1.00  0.00     0.105 C 
ENDROOT
BRANCH   3   4
HETATM    4  C4  UNL     1     -29.375  -3.358  19.410  1.00  0.00     0.106 C 
BRANCH   4   5
HETATM    5  C5  UNL     1     -29.941  -2.154  18.777  1.00  0.00    -0.100 C 
HETATM    6  C6  UNL     1     -30.374  -1.169  18.267  1.00  0.00    -0.061 C 
BRANCH   6   7
HETATM    7  C7  UNL     1     -30.874   0.043  17.648  1.00  0.00     0.164 C 
BRANCH   7   8
HETATM    8  N1  UNL     1     -29.946   0.723  16.803  1.00  0.00    -0.287 N 
HETATM    9  C8  UNL     1     -28.961   1.511  17.286  1.00  0.00     0.202 A 
HETATM   10  N2  UNL     1     -28.860   1.638  18.694  1.00  0.00    -0.062 NA
HETATM   11  N3  UNL     1     -28.077   2.177  16.530  1.00  0.00    -0.323 N 
HETATM   12  C11 UNL     1     -28.148   2.075  15.192  1.00  0.00     0.037 A 
HETATM   13  C17 UNL     1     -29.130   1.287  14.633  1.00  0.00     0.015 A 
HETATM   14  C18 UNL     1     -29.262   1.126  13.271  1.00  0.00     0.016 A 
HETATM   15  C22 UNL     1     -30.033   0.608  15.470  1.00  0.00     0.054 A 
HETATM   16  C19 UNL     1     -30.245   0.327  12.724  1.00  0.00     0.001 A 
HETATM   17  C20 UNL     1     -31.147  -0.352  13.526  1.00  0.00     0.002 A 
HETATM   18  C21 UNL     1     -31.021  -0.197  14.893  1.00  0.00     0.031 A 
BRANCH  11  19
HETATM   19  C9  UNL     1     -27.044   2.996  17.190  1.00  0.00     0.127 C 
HETATM   20  C10 UNL     1     -27.518   4.409  17.442  1.00  0.00     0.027 C 
ENDBRANCH  11  19
BRANCH  12  21
HETATM   21  C12 UNL     1     -27.214   2.794  14.315  1.00  0.00     0.152 C 
BRANCH  21  22
HETATM   22  C13 UNL     1     -25.858   2.251  14.414  1.00  0.00    -0.099 C 
HETATM   23  C14 UNL     1     -24.732   1.826  14.501  1.00  0.00    -0.087 C 
BRANCH  23  24
HETATM   24  C15 UNL     1     -23.336   1.333  14.611  1.00  0.00     0.214 C 
BRANCH  24  25
HETATM   25  N4  UNL     1     -22.561   2.316  15.314  1.00  0.00    -0.375 N 
ATOM     26  H4  UNL     1     -21.839   2.843  14.823  1.00  0.00     0.161 HD
BRANCH  25  27
HETATM   27  C16 UNL     1     -22.800   2.554  16.683  1.00  0.00     0.195 C 
HETATM   28  N5  UNL     1     -21.828   2.576  17.535  1.00  0.00    -0.283 N 
ATOM     29  H5  UNL     1     -22.031   2.750  18.520  1.00  0.00     0.189 HD
BRANCH  28  30
HETATM   30  N6  UNL     1     -20.529   2.369  17.143  1.00  0.00    -0.248 N 
HETATM   31  N7  UNL     1     -19.626   2.201  18.003  1.00  0.00    -0.331 N 
ATOM     32  H72 UNL     1     -19.877   2.221  18.992  1.00  0.00     0.178 HD
ATOM     33  H71 UNL     1     -18.660   2.047  17.711  1.00  0.00     0.178 HD
ATOM     34  H6  UNL     1     -20.294   2.352  16.150  1.00  0.00     0.207 HD
ENDBRANCH  28  30
ENDBRANCH  25  27
ENDBRANCH  24  25
ENDBRANCH  23  24
ENDBRANCH  21  22
ENDBRANCH  12  21
ENDBRANCH   7   8
ENDBRANCH   6   7
ENDBRANCH   4   5
ENDBRANCH   3   4
TORSDOF 11
ENDMDL
MODEL 2
REMARK VINA RESULT: -7.062179485      1.084      3.176
REMARK  11 active torsions:
REMARK  status: ('A' for Active; 'I' for Inactive)
REMARK    1  A    between atoms: C3_3  and  C4_4 
REMARK    2  A    between atoms: C4_4  and  C5_5 
REMARK    3  A    between atoms: C6_6  and  C7_7 
REMARK    4  A    between atoms: C7_7  and  N1_8 
REMARK    5  A    between atoms: N3_11  and  C9_12 
REMARK    6  A    between atoms: C11_14  and  C12_15 
REMARK    7  A    between atoms: C12_15  and  C13_16 
REMARK    8  A    between atoms: C14_17  and  C15_18 
REMARK    9  A    between atoms: C15_18  and  N4_19 
REMARK   10  A    between atoms: N4_19  and  C16_21 
REMARK   11  A    between atoms: N5_22  and  N6_24 
ROOT
HETATM    1  C1  UNL     1     -30.531  -5.333  21.752  1.00  0.00     0.012 C 
HETATM    2  C2  UNL     1     -29.998  -4.330  21.358  1.00  0.00    -0.117 C 
HETATM    3  C3  UNL     1     -29.348  -3.104  20.900  1.00  0.00     0.105 C 
ENDROOT
BRANCH   3   4
HETATM    4  C4  UNL     1     -29.244  -3.179  19.387  1.00  0.00     0.106 C 
BRANCH   4   5
HETATM    5  C5  UNL     1     -29.679  -1.913  18.773  1.00  0.00    -0.100 C 
HETATM    6  C6  UNL     1     -30.044  -0.883  18.299  1.00  0.00    -0.061 C 
BRANCH   6   7
HETATM    7  C7  UNL     1     -30.505   0.376  17.748  1.00  0.00     0.164 C 
BRANCH   7   8
HETATM    8  N1  UNL     1     -29.610   1.004  16.832  1.00  0.00    -0.287 N 
HETATM    9  C8  UNL     1     -29.625   0.748  15.505  1.00  0.00     0.202 A 
HETATM   10  N2  UNL     1     -30.590  -0.177  15.032  1.00  0.00    -0.062 NA
HETATM   11  N3  UNL     1     -28.796   1.303  14.610  1.00  0.00    -0.323 N 
HETATM   12  C11 UNL     1     -27.871   2.184  15.031  1.00  0.00     0.037 A 
HETATM   13  C17 UNL     1     -27.802   2.491  16.372  1.00  0.00     0.015 A 
HETATM   14  C18 UNL     1     -26.887   3.390  16.877  1.00  0.00     0.016 A 
HETATM   15  C22 UNL     1     -28.694   1.881  17.270  1.00  0.00     0.054 A 
HETATM   16  C19 UNL     1     -26.833   3.694  18.222  1.00  0.00     0.001 A 
HETATM   17  C20 UNL     1     -27.700   3.107  19.127  1.00  0.00     0.002 A 
HETATM   18  C21 UNL     1     -28.621   2.206  18.629  1.00  0.00     0.031 A 
BRANCH  11  19
HETATM   19  C9  UNL     1     -28.928   0.940  13.189  1.00  0.00     0.127 C 
HETATM   20  C10 UNL     1     -29.785   1.927  12.430  1.00  0.00     0.027 C 
ENDBRANCH  11  19
BRANCH  12  21
HETATM   21  C12 UNL     1     -26.928   2.813  14.096  1.00  0.00     0.152 C 
BRANCH  21  22
HETATM   22  C13 UNL     1     -25.600   2.202  14.181  1.00  0.00    -0.099 C 
HETATM   23  C14 UNL     1     -24.496   1.722  14.250  1.00  0.00    -0.087 C 
BRANCH  23  24
HETATM   24  C15 UNL     1     -23.125   1.159  14.331  1.00  0.00     0.214 C 
BRANCH  24  25
HETATM   25  N4  UNL     1     -22.333   2.013  15.172  1.00  0.00    -0.375 N 
ATOM     26  H4  UNL     1     -21.485   2.445  14.805  1.00  0.00     0.161 HD
BRANCH  25  27
HETATM   27  C16 UNL     1     -22.728   2.252  16.504  1.00  0.00     0.195 C 
HETATM   28  N5  UNL     1     -21.853   2.493  17.426  1.00  0.00    -0.283 N 
ATOM     29  H5  UNL     1     -22.169   2.663  18.381  1.00  0.00     0.189 HD
BRANCH  28  30
HETATM   30  N6  UNL     1     -20.510   2.525  17.146  1.00  0.00    -0.248 N 
HETATM   31  N7  UNL     1     -19.673   2.155  18.009  1.00  0.00    -0.331 N 
ATOM     32  H72 UNL     1     -20.011   1.833  18.917  1.00  0.00     0.178 HD
ATOM     33  H71 UNL     1     -18.675   2.179  17.801  1.00  0.00     0.178 HD
ATOM     34  H6  UNL     1     -20.189   2.850  16.233  1.00  0.00     0.207 HD
ENDBRANCH  28  30
ENDBRANCH  25  27
ENDBRANCH  24  25
ENDBRANCH  23  24
ENDBRANCH  21  22
ENDBRANCH  12  21
ENDBRANCH   7   8
ENDBRANCH   6   7
ENDBRANCH   4   5
ENDBRANCH   3   4
TORSDOF 11
ENDMDL
MODEL 3
REMARK VINA RESULT: -6.442776644      1.886      5.015
REMARK  11 active torsions:
REMARK  status: ('A' for Active; 'I' for Inactive)
REMARK    1  A    between atoms: C3_3  and  C4_4 
REMARK    2  A    between atoms: C4_4  and  C5_5 
REMARK    3  A    between atoms: C6_6  and  C7_7 
REMARK    4  A    between atoms: C7_7  and  N1_8 
REMARK    5  A    between atoms: N3_11  and  C9_12 
REMARK    6  A    between atoms: C11_14  and  C12_15 
REMARK    7  A    between atoms: C12_15  and  C13_16 
REMARK    8  A    between atoms: C14_17  and  C15_18 
REMARK    9  A    between atoms: C15_18  and  N4_19 
REMARK   10  A    between atoms: N4_19  and  C16_21 
REMARK   11  A    between atoms: N5_22  and  N6_24 
ROOT
HETATM    1  C1  UNL     1     -34.992   0.635  10.939  1.00  0.00     0.012 C 
HETATM    2  C2  UNL     1     -33.830   0.364  11.085  1.00  0.00    -0.117 C 
HETATM    3  C3  UNL     1     -32.412   0.048  11.246  1.00  0.00     0.105 C 
ENDROOT
BRANCH   3   4
HETATM    4  C4  UNL     1     -32.291  -0.943  12.390  1.00  0.00     0.106 C 
BRANCH   4   5
HETATM    5  C5  UNL     1     -32.176  -0.237  13.678  1.00  0.00    -0.100 C 
HETATM    6  C6  UNL     1     -32.100   0.315  14.730  1.00  0.00    -0.061 C 
BRANCH   6   7
HETATM    7  C7  UNL     1     -32.029   0.969  16.022  1.00  0.00     0.164 C 
BRANCH   7   8
HETATM    8  N1  UNL     1     -30.710   1.221  16.505  1.00  0.00    -0.287 N 
HETATM    9  C8  UNL     1     -30.002   2.317  16.155  1.00  0.00     0.202 A 
HETATM   10  N2  UNL     1     -30.626   3.244  15.283  1.00  0.00    -0.062 NA
HETATM   11  N3  UNL     1     -28.758   2.589  16.574  1.00  0.00    -0.323 N 
HETATM   12  C11 UNL     1     -28.142   1.728  17.402  1.00  0.00     0.037 A 
HETATM   13  C17 UNL     1     -28.808   0.589  17.799  1.00  0.00     0.015 A 
HETATM   14  C18 UNL     1     -28.245  -0.336  18.652  1.00  0.00     0.016 A 
HETATM   15  C22 UNL     1     -30.112   0.350  17.332  1.00  0.00     0.054 A 
HETATM   16  C19 UNL     1     -28.926  -1.469  19.048  1.00  0.00     0.001 A 
HETATM   17  C20 UNL     1     -30.211  -1.727  18.603  1.00  0.00     0.002 A 
HETATM   18  C21 UNL     1     -30.783  -0.805  17.748  1.00  0.00     0.031 A 
BRANCH  11  19
HETATM   19  C9  UNL     1     -28.104   3.829  16.121  1.00  0.00     0.127 C 
HETATM   20  C10 UNL     1     -28.309   4.965  17.095  1.00  0.00     0.027 C 
ENDBRANCH  11  19
BRANCH  12  21
HETATM   21  C12 UNL     1     -26.773   1.968  17.881  1.00  0.00     0.152 C 
BRANCH  21  22
HETATM   22  C13 UNL     1     -25.793   1.813  16.805  1.00  0.00    -0.099 C 
HETATM   23  C14 UNL     1     -24.977   1.709  15.923  1.00  0.00    -0.087 C 
BRANCH  23  24
HETATM   24  C15 UNL     1     -23.965   1.611  14.841  1.00  0.00     0.214 C 
BRANCH  24  25
HETATM   25  N4  UNL     1     -22.671   1.449  15.442  1.00  0.00    -0.375 N 
ATOM     26  H4  UNL     1     -22.430   1.974  16.282  1.00  0.00     0.161 HD
BRANCH  25  27
HETATM   27  C16 UNL     1     -21.735   0.564  14.870  1.00  0.00     0.195 C 
HETATM   28  N5  UNL     1     -20.550   0.431  15.371  1.00  0.00    -0.283 N 
ATOM     29  H5  UNL     1     -19.894  -0.217  14.936  1.00  0.00     0.189 HD
BRANCH  28  30
HETATM   30  N6  UNL     1     -20.158   1.144  16.476  1.00  0.00    -0.248 N 
HETATM   31  N7  UNL     1     -19.142   0.792  17.130  1.00  0.00    -0.331 N 
ATOM     32  H72 UNL     1     -18.619  -0.028  16.824  1.00  0.00     0.178 HD
ATOM     33  H71 UNL     1     -18.851   1.323  17.952  1.00  0.00     0.178 HD
ATOM     34  H6  UNL     1     -20.692   1.962  16.769  1.00  0.00     0.207 HD
ENDBRANCH  28  30
ENDBRANCH  25  27
ENDBRANCH  24  25
ENDBRANCH  23  24
ENDBRANCH  21  22
ENDBRANCH  12  21
ENDBRANCH   7   8
ENDBRANCH   6   7
ENDBRANCH   4   5
ENDBRANCH   3   4
TORSDOF 11
ENDMDL
MODEL 4
REMARK VINA RESULT: -6.367258503      1.568      3.435
REMARK  11 active torsions:
REMARK  status: ('A' for Active; 'I' for Inactive)
REMARK    1  A    between atoms: C3_3  and  C4_4 
REMARK    2  A    between atoms: C4_4  and  C5_5 
REMARK    3  A    between atoms: C6_6  and  C7_7 
REMARK    4  A    between atoms: C7_7  and  N1_8 
REMARK    5  A    between atoms: N3_11  and  C9_12 
REMARK    6  A    between atoms: C11_14  and  C12_15 
REMARK    7  A    between atoms: C12_15  and  C13_16 
REMARK    8  A    between atoms: C14_17  and  C15_18 
REMARK    9  A    between atoms: C15_18  and  N4_19 
REMARK   10  A    between atoms: N4_19  and  C16_21 
REMARK   11  A    between atoms: N5_22  and  N6_24 
ROOT
HETATM    1  C1  UNL     1     -28.668  -0.723  21.647  1.00  0.00     0.012 C 
HETATM    2  C2  UNL     1     -29.008  -1.821  21.296  1.00  0.00    -0.117 C 
HETATM    3  C3  UNL     1     -29.425  -3.162  20.892  1.00  0.00     0.105 C 
ENDROOT
BRANCH   3   4
HETATM    4  C4  UNL     1     -29.400  -3.210  19.374  1.00  0.00     0.106 C 
BRANCH   4   5
HETATM    5  C5  UNL     1     -30.222  -2.127  18.807  1.00  0.00    -0.100 C 
HETATM    6  C6  UNL     1     -30.875  -1.235  18.364  1.00  0.00    -0.061 C 
BRANCH   6   7
HETATM    7  C7  UNL     1     -31.656  -0.129  17.845  1.00  0.00     0.164 C 
BRANCH   7   8
HETATM    8  N1  UNL     1     -30.931   0.808  17.050  1.00  0.00    -0.287 N 
HETATM    9  C8  UNL     1     -31.081   0.898  15.710  1.00  0.00     0.202 A 
HETATM   10  N2  UNL     1     -32.015   0.023  15.099  1.00  0.00    -0.062 NA
HETATM   11  N3  UNL     1     -30.414   1.753  14.923  1.00  0.00    -0.323 N 
HETATM   12  C11 UNL     1     -29.523   2.595  15.474  1.00  0.00     0.037 A 
HETATM   13  C17 UNL     1     -29.321   2.555  16.837  1.00  0.00     0.015 A 
HETATM   14  C18 UNL     1     -28.431   3.392  17.476  1.00  0.00     0.016 A 
HETATM   15  C22 UNL     1     -30.047   1.640  17.619  1.00  0.00     0.054 A 
HETATM   16  C19 UNL     1     -28.244   3.347  18.842  1.00  0.00     0.001 A 
HETATM   17  C20 UNL     1     -28.946   2.455  19.635  1.00  0.00     0.002 A 
HETATM   18  C21 UNL     1     -29.840   1.614  19.002  1.00  0.00     0.031 A 
BRANCH  11  19
HETATM   19  C9  UNL     1     -30.683   1.752  13.474  1.00  0.00     0.127 C 
HETATM   20  C10 UNL     1     -29.857   0.718  12.746  1.00  0.00     0.027 C 
ENDBRANCH  11  19
BRANCH  12  21
HETATM   21  C12 UNL     1     -28.753   3.543  14.658  1.00  0.00     0.152 C 
BRANCH  21  22
HETATM   22  C13 UNL     1     -27.446   2.997  14.290  1.00  0.00    -0.099 C 
HETATM   23  C14 UNL     1     -26.360   2.554  14.008  1.00  0.00    -0.087 C 
BRANCH  23  24
HETATM   24  C15 UNL     1     -25.011   2.021  13.689  1.00  0.00     0.214 C 
BRANCH  24  25
HETATM   25  N4  UNL     1     -24.465   1.427  14.877  1.00  0.00    -0.375 N 
ATOM     26  H4  UNL     1     -24.907   0.604  15.285  1.00  0.00     0.161 HD
BRANCH  25  27
HETATM   27  C16 UNL     1     -23.316   1.982  15.478  1.00  0.00     0.195 C 
HETATM   28  N5  UNL     1     -23.401   2.672  16.569  1.00  0.00    -0.283 N 
ATOM     29  H5  UNL     1     -22.553   3.061  16.980  1.00  0.00     0.189 HD
BRANCH  28  30
HETATM   30  N6  UNL     1     -24.609   2.889  17.184  1.00  0.00    -0.248 N 
HETATM   31  N7  UNL     1     -24.720   3.781  18.065  1.00  0.00    -0.331 N 
ATOM     32  H72 UNL     1     -23.899   4.334  18.312  1.00  0.00     0.178 HD
ATOM     33  H71 UNL     1     -25.617   3.942  18.522  1.00  0.00     0.178 HD
ATOM     34  H6  UNL     1     -25.419   2.327  16.926  1.00  0.00     0.207 HD
ENDBRANCH  28  30
ENDBRANCH  25  27
ENDBRANCH  24  25
ENDBRANCH  23  24
ENDBRANCH  21  22
ENDBRANCH  12  21
ENDBRANCH   7   8
ENDBRANCH   6   7
ENDBRANCH   4   5
ENDBRANCH   3   4
TORSDOF 11
ENDMDL
MODEL 5
REMARK VINA RESULT: -6.175261411      3.185      7.672
REMARK  11 active torsions:
REMARK  status: ('A' for Active; 'I' for Inactive)
REMARK    1  A    between atoms: C3_3  and  C4_4 
REMARK    2  A    between atoms: C4_4  and  C5_5 
REMARK    3  A    between atoms: C6_6  and  C7_7 
REMARK    4  A    between atoms: C7_7  and  N1_8 
REMARK    5  A    between atoms: N3_11  and  C9_12 
REMARK    6  A    between atoms: C11_14  and  C12_15 
REMARK    7  A    between atoms: C12_15  and  C13_16 
REMARK    8  A    between atoms: C14_17  and  C15_18 
REMARK    9  A    between atoms: C15_18  and  N4_19 
REMARK   10  A    between atoms: N4_19  and  C16_21 
REMARK   11  A    between atoms: N5_22  and  N6_24 
ROOT
HETATM    1  C1  UNL     1     -20.372   1.489  17.499  1.00  0.00     0.012 C 
HETATM    2  C2  UNL     1     -20.977   1.787  16.504  1.00  0.00    -0.117 C 
HETATM    3  C3  UNL     1     -21.701   2.169  15.294  1.00  0.00     0.105 C 
ENDROOT
BRANCH   3   4
HETATM    4  C4  UNL     1     -22.651   1.034  14.953  1.00  0.00     0.106 C 
BRANCH   4   5
HETATM    5  C5  UNL     1     -24.020   1.544  14.759  1.00  0.00    -0.100 C 
HETATM    6  C6  UNL     1     -25.133   1.947  14.627  1.00  0.00    -0.061 C 
BRANCH   6   7
HETATM    7  C7  UNL     1     -26.495   2.425  14.494  1.00  0.00     0.164 C 
BRANCH   7   8
HETATM    8  N1  UNL     1     -27.410   1.937  15.474  1.00  0.00    -0.287 N 
HETATM    9  C8  UNL     1     -27.254   2.167  16.796  1.00  0.00     0.202 A 
HETATM   10  N2  UNL     1     -26.135   2.940  17.195  1.00  0.00    -0.062 NA
HETATM   11  N3  UNL     1     -28.081   1.719  17.751  1.00  0.00    -0.323 N 
HETATM   12  C11 UNL     1     -29.151   0.985  17.402  1.00  0.00     0.037 A 
HETATM   13  C17 UNL     1     -29.369   0.713  16.069  1.00  0.00     0.015 A 
HETATM   14  C18 UNL     1     -30.448  -0.026  15.633  1.00  0.00     0.016 A 
HETATM   15  C22 UNL     1     -28.472   1.206  15.105  1.00  0.00     0.054 A 
HETATM   16  C19 UNL     1     -30.659  -0.284  14.294  1.00  0.00     0.001 A 
HETATM   17  C20 UNL     1     -29.791   0.190  13.326  1.00  0.00     0.002 A 
HETATM   18  C21 UNL     1     -28.708   0.932  13.754  1.00  0.00     0.031 A 
BRANCH  11  19
HETATM   19  C9  UNL     1     -27.797   2.053  19.158  1.00  0.00     0.127 C 
HETATM   20  C10 UNL     1     -28.494   3.322  19.590  1.00  0.00     0.027 C 
ENDBRANCH  11  19
BRANCH  12  21
HETATM   21  C12 UNL     1     -30.082   0.456  18.409  1.00  0.00     0.152 C 
BRANCH  21  22
HETATM   22  C13 UNL     1     -29.732  -0.911  18.798  1.00  0.00    -0.099 C 
HETATM   23  C14 UNL     1     -29.467  -2.045  19.111  1.00  0.00    -0.087 C 
BRANCH  23  24
HETATM   24  C15 UNL     1     -29.170  -3.450  19.490  1.00  0.00     0.214 C 
BRANCH  24  25
HETATM   25  N4  UNL     1     -29.908  -3.765  20.681  1.00  0.00    -0.375 N 
ATOM     26  H4  UNL     1     -30.557  -3.083  21.074  1.00  0.00     0.161 HD
BRANCH  25  27
HETATM   27  C16 UNL     1     -29.736  -5.017  21.305  1.00  0.00     0.195 C 
HETATM   28  N5  UNL     1     -30.705  -5.579  21.952  1.00  0.00    -0.283 N 
ATOM     29  H5  UNL     1     -30.551  -6.485  22.394  1.00  0.00     0.189 HD
BRANCH  28  30
HETATM   30  N6  UNL     1     -31.936  -4.981  22.056  1.00  0.00    -0.248 N 
HETATM   31  N7  UNL     1     -32.768  -5.386  22.909  1.00  0.00    -0.331 N 
ATOM     32  H72 UNL     1     -32.510  -6.162  23.518  1.00  0.00     0.178 HD
ATOM     33  H71 UNL     1     -33.683  -4.941  22.985  1.00  0.00     0.178 HD
ATOM     34  H6  UNL     1     -32.178  -4.205  21.439  1.00  0.00     0.207 HD
ENDBRANCH  28  30
ENDBRANCH  25  27
ENDBRANCH  24  25
ENDBRANCH  23  24
ENDBRANCH  21  22
ENDBRANCH  12  21
ENDBRANCH   7   8
ENDBRANCH   6   7
ENDBRANCH   4   5
ENDBRANCH   3   4
TORSDOF 11
ENDMDL
