MODEL 1
REMARK VINA RESULT: -7.587622853      0.000      0.000
REMARK  9 active torsions:
REMARK  status: ('A' for Active; 'I' for Inactive)
REMARK    1  A    between atoms: N1_6  and  C6_7 
REMARK    2  A    between atoms: C6_7  and  C7_8 
REMARK    3  A    between atoms: C10_11  and  C11_12 
REMARK    4  A    between atoms: C11_12  and  C12_13 
REMARK    5  A    between atoms: C12_13  and  N2_14 
REMARK    6  A    between atoms: C16_19  and  N4_20 
REMARK    7  A    between atoms: C18_27  and  C19_28 
REMARK    8  A    between atoms: C19_28  and  C20_29 
REMARK    9  A    between atoms: C20_29  and  N7_30 
ROOT
HETATM    1  C7  UNL     1     -29.852   0.116  16.706  1.00  0.00    -0.017 A 
HETATM    2  C8  UNL     1     -28.511   0.421  17.069  1.00  0.00     0.013 A 
HETATM    3  C9  UNL     1     -27.583   0.736  16.118  1.00  0.00     0.026 A 
HETATM    4  C10 UNL     1     -27.975   0.756  14.784  1.00  0.00     0.013 A 
HETATM    5  N6  UNL     1     -29.227   0.469  14.442  1.00  0.00    -0.357 N 
HETATM    6  C17 UNL     1     -29.616   0.536  13.053  1.00  0.00     0.156 C 
HETATM    7  C18 UNL     1     -30.173   0.146  15.379  1.00  0.00     0.021 A 
ENDROOT
BRANCH   4   8
HETATM    8  C11 UNL     1     -26.879   1.115  13.832  1.00  0.00     0.079 C 
BRANCH   8   9
HETATM    9  C12 UNL     1     -26.102   2.252  14.346  1.00  0.00     0.154 C 
BRANCH   9  10
HETATM   10  N2  UNL     1     -24.784   2.016  14.800  1.00  0.00    -0.287 N 
HETATM   11  C13 UNL     1     -23.877   1.318  14.092  1.00  0.00     0.128 A 
HETATM   12  C14 UNL     1     -22.629   1.146  14.605  1.00  0.00     0.127 A 
HETATM   13  N3  UNL     1     -22.272   1.658  15.808  1.00  0.00    -0.196 N 
HETATM   14  C15 UNL     1     -20.930   1.456  16.325  1.00  0.00     0.175 C 
HETATM   15  C16 UNL     1     -23.199   2.348  16.489  1.00  0.00     0.692 A 
HETATM   16  N5  UNL     1     -24.439   2.517  15.975  1.00  0.00    -0.130 N 
ATOM     17  H5  UNL     1     -25.129   3.045  16.509  1.00  0.00     0.206 HD
BRANCH  15  18
HETATM   18  N4  UNL     1     -22.861   2.837  17.635  1.00  0.00    -0.233 N 
ATOM     19  H42 UNL     1     -21.901   3.112  17.843  1.00  0.00     0.174 HD
ATOM     20  H41 UNL     1     -23.590   2.941  18.340  1.00  0.00     0.174 HD
ENDBRANCH  15  18
ENDBRANCH   9  10
ENDBRANCH   8   9
ENDBRANCH   4   8
BRANCH   7  21
HETATM   21  C19 UNL     1     -31.481  -0.318  14.923  1.00  0.00     0.085 C 
BRANCH  21  22
HETATM   22  C20 UNL     1     -32.600   0.691  15.032  1.00  0.00     0.235 C 
BRANCH  22  23
HETATM   23  N7  UNL     1     -33.884   0.226  15.369  1.00  0.00    -0.079 N 
ATOM     24  H73 UNL     1     -34.496   1.026  15.530  1.00  0.00     0.274 HD
ATOM     25  H72 UNL     1     -34.316  -0.187  14.543  1.00  0.00     0.274 HD
ATOM     26  H71 UNL     1     -33.972  -0.424  16.151  1.00  0.00     0.274 HD
ENDBRANCH  22  23
ENDBRANCH  21  22
ENDBRANCH   7  21
BRANCH   1  27
HETATM   27  C6  UNL     1     -30.741  -0.031  17.855  1.00  0.00     0.168 C 
BRANCH  27  28
HETATM   28  N1  UNL     1     -30.176  -0.854  18.941  1.00  0.00    -0.362 N 
HETATM   29  C5  UNL     1     -30.251  -2.194  18.814  1.00  0.00     0.090 A 
HETATM   30  C4  UNL     1     -29.750  -2.983  19.816  1.00  0.00     0.018 A 
HETATM   31  C3  UNL     1     -29.173  -2.469  20.946  1.00  0.00     0.009 A 
HETATM   32  C2  UNL     1     -29.101  -1.100  21.069  1.00  0.00    -0.046 A 
HETATM   33  C1  UNL     1     -28.488  -0.455  22.271  1.00  0.00     0.049 C 
HETATM   34  C21 UNL     1     -29.622  -0.351  20.030  1.00  0.00     0.097 A 
ENDBRANCH  27  28
ENDBRANCH   1  27
TORSDOF 9
ENDMDL
MODEL 2
REMARK VINA RESULT: -7.555392905      0.798      1.342
REMARK  9 active torsions:
REMARK  status: ('A' for Active; 'I' for Inactive)
REMARK    1  A    between atoms: N1_6  and  C6_7 
REMARK    2  A    between atoms: C6_7  and  C7_8 
REMARK    3  A    between atoms: C10_11  and  C11_12 
REMARK    4  A    between atoms: C11_12  and  C12_13 
REMARK    5  A    between atoms: C12_13  and  N2_14 
REMARK    6  A    between atoms: C16_19  and  N4_20 
REMARK    7  A    between atoms: C18_27  and  C19_28 
REMARK    8  A    between atoms: C19_28  and  C20_29 
REMARK    9  A    between atoms: C20_29  and  N7_30 
ROOT
HETATM    1  C7  UNL     1     -29.955   0.055  16.696  1.00  0.00    -0.017 A 
HETATM    2  C8  UNL     1     -28.609   0.364  17.041  1.00  0.00     0.013 A 
HETATM    3  C9  UNL     1     -27.700   0.697  16.078  1.00  0.00     0.026 A 
HETATM    4  C10 UNL     1     -28.115   0.732  14.751  1.00  0.00     0.013 A 
HETATM    5  N6  UNL     1     -29.371   0.442  14.427  1.00  0.00    -0.357 N 
HETATM    6  C17 UNL     1     -29.784   0.524  13.045  1.00  0.00     0.156 C 
HETATM    7  C18 UNL     1     -30.298   0.101  15.376  1.00  0.00     0.021 A 
ENDROOT
BRANCH   4   8
HETATM    8  C11 UNL     1     -27.038   1.110  13.785  1.00  0.00     0.079 C 
BRANCH   8   9
HETATM    9  C12 UNL     1     -26.245   2.232  14.311  1.00  0.00     0.154 C 
BRANCH   9  10
HETATM   10  N2  UNL     1     -24.876   2.017  14.586  1.00  0.00    -0.287 N 
HETATM   11  C13 UNL     1     -24.374   1.976  15.834  1.00  0.00     0.128 A 
HETATM   12  C14 UNL     1     -23.043   1.758  16.005  1.00  0.00     0.127 A 
HETATM   13  N3  UNL     1     -22.205   1.579  14.954  1.00  0.00    -0.196 N 
HETATM   14  C15 UNL     1     -20.788   1.348  15.172  1.00  0.00     0.175 C 
HETATM   15  C16 UNL     1     -22.736   1.626  13.722  1.00  0.00     0.692 A 
HETATM   16  N5  UNL     1     -24.061   1.844  13.558  1.00  0.00    -0.130 N 
ATOM     17  H5  UNL     1     -24.444   1.875  12.613  1.00  0.00     0.206 HD
BRANCH  15  18
HETATM   18  N4  UNL     1     -21.940   1.456  12.720  1.00  0.00    -0.233 N 
ATOM     19  H42 UNL     1     -21.149   2.075  12.546  1.00  0.00     0.174 HD
ATOM     20  H41 UNL     1     -22.127   0.672  12.094  1.00  0.00     0.174 HD
ENDBRANCH  15  18
ENDBRANCH   9  10
ENDBRANCH   8   9
ENDBRANCH   4   8
BRANCH   7  21
HETATM   21  C19 UNL     1     -31.611  -0.366  14.936  1.00  0.00     0.085 C 
BRANCH  21  22
HETATM   22  C20 UNL     1     -32.727   0.646  15.044  1.00  0.00     0.235 C 
BRANCH  22  23
HETATM   23  N7  UNL     1     -33.955   0.226  15.589  1.00  0.00    -0.079 N 
ATOM     24  H73 UNL     1     -34.600   1.016  15.602  1.00  0.00     0.274 HD
ATOM     25  H72 UNL     1     -34.419  -0.394  14.925  1.00  0.00     0.274 HD
ATOM     26  H71 UNL     1     -33.949  -0.215  16.508  1.00  0.00     0.274 HD
ENDBRANCH  22  23
ENDBRANCH  21  22
ENDBRANCH   7  21
BRANCH   1  27
HETATM   27  C6  UNL     1     -30.823  -0.112  17.858  1.00  0.00     0.168 C 
BRANCH  27  28
HETATM   28  N1  UNL     1     -30.225  -0.927  18.934  1.00  0.00    -0.362 N 
HETATM   29  C5  UNL     1     -30.262  -2.268  18.796  1.00  0.00     0.090 A 
HETATM   30  C4  UNL     1     -29.731  -3.051  19.786  1.00  0.00     0.018 A 
HETATM   31  C3  UNL     1     -29.160  -2.529  20.916  1.00  0.00     0.009 A 
HETATM   32  C2  UNL     1     -29.126  -1.160  21.051  1.00  0.00    -0.046 A 
HETATM   33  C1  UNL     1     -28.522  -0.508  22.253  1.00  0.00     0.049 C 
HETATM   34  C21 UNL     1     -29.677  -0.418  20.022  1.00  0.00     0.097 A 
ENDBRANCH  27  28
ENDBRANCH   1  27
TORSDOF 9
ENDMDL
MODEL 3
REMARK VINA RESULT: -7.549310776      1.122      1.667
REMARK  9 active torsions:
REMARK  status: ('A' for Active; 'I' for Inactive)
REMARK    1  A    between atoms: N1_6  and  C6_7 
REMARK    2  A    between atoms: C6_7  and  C7_8 
REMARK    3  A    between atoms: C10_11  and  C11_12 
REMARK    4  A    between atoms: C11_12  and  C12_13 
REMARK    5  A    between atoms: C12_13  and  N2_14 
REMARK    6  A    between atoms: C16_19  and  N4_20 
REMARK    7  A    between atoms: C18_27  and  C19_28 
REMARK    8  A    between atoms: C19_28  and  C20_29 
REMARK    9  A    between atoms: C20_29  and  N7_30 
ROOT
HETATM    1  C7  UNL     1     -28.941   1.211  16.956  1.00  0.00    -0.017 A 
HETATM    2  C8  UNL     1     -27.537   1.218  17.190  1.00  0.00     0.013 A 
HETATM    3  C9  UNL     1     -26.654   1.199  16.148  1.00  0.00     0.026 A 
HETATM    4  C10 UNL     1     -27.155   1.173  14.850  1.00  0.00     0.013 A 
HETATM    5  N6  UNL     1     -28.465   1.164  14.629  1.00  0.00    -0.357 N 
HETATM    6  C17 UNL     1     -28.956   1.177  13.271  1.00  0.00     0.156 C 
HETATM    7  C18 UNL     1     -29.368   1.179  15.660  1.00  0.00     0.021 A 
ENDROOT
BRANCH   4   8
HETATM    8  C11 UNL     1     -26.099   1.154  13.791  1.00  0.00     0.079 C 
BRANCH   8   9
HETATM    9  C12 UNL     1     -25.122   2.229  14.018  1.00  0.00     0.154 C 
BRANCH   9  10
HETATM   10  N2  UNL     1     -23.878   1.896  14.601  1.00  0.00    -0.287 N 
HETATM   11  C13 UNL     1     -22.994   1.064  14.020  1.00  0.00     0.128 A 
HETATM   12  C14 UNL     1     -21.817   0.805  14.651  1.00  0.00     0.127 A 
HETATM   13  N3  UNL     1     -21.509   1.361  15.848  1.00  0.00    -0.196 N 
HETATM   14  C15 UNL     1     -20.242   1.062  16.494  1.00  0.00     0.175 C 
HETATM   15  C16 UNL     1     -22.411   2.185  16.401  1.00  0.00     0.692 A 
HETATM   16  N5  UNL     1     -23.580   2.439  15.769  1.00  0.00    -0.130 N 
ATOM     17  H5  UNL     1     -24.252   3.070  16.207  1.00  0.00     0.206 HD
BRANCH  15  18
HETATM   18  N4  UNL     1     -22.118   2.715  17.541  1.00  0.00    -0.233 N 
ATOM     19  H42 UNL     1     -21.567   2.221  18.242  1.00  0.00     0.174 HD
ATOM     20  H41 UNL     1     -22.460   3.658  17.727  1.00  0.00     0.174 HD
ENDBRANCH  15  18
ENDBRANCH   9  10
ENDBRANCH   8   9
ENDBRANCH   4   8
BRANCH   7  21
HETATM   21  C19 UNL     1     -30.785   1.000  15.352  1.00  0.00     0.085 C 
BRANCH  21  22
HETATM   22  C20 UNL     1     -31.286  -0.423  15.414  1.00  0.00     0.235 C 
BRANCH  22  23
HETATM   23  N7  UNL     1     -32.137  -0.783  16.475  1.00  0.00    -0.079 N 
ATOM     24  H73 UNL     1     -32.975  -0.204  16.440  1.00  0.00     0.274 HD
ATOM     25  H72 UNL     1     -32.529  -1.706  16.289  1.00  0.00     0.274 HD
ATOM     26  H71 UNL     1     -31.760  -0.766  17.422  1.00  0.00     0.274 HD
ENDBRANCH  22  23
ENDBRANCH  21  22
ENDBRANCH   7  21
BRANCH   1  27
HETATM   27  C6  UNL     1     -29.728   1.405  18.170  1.00  0.00     0.168 C 
BRANCH  27  28
HETATM   28  N1  UNL     1     -29.520   0.355  19.186  1.00  0.00    -0.362 N 
HETATM   29  C5  UNL     1     -29.298   0.750  20.456  1.00  0.00     0.090 A 
HETATM   30  C4  UNL     1     -29.084  -0.201  21.418  1.00  0.00     0.018 A 
HETATM   31  C3  UNL     1     -29.088  -1.543  21.146  1.00  0.00     0.009 A 
HETATM   32  C2  UNL     1     -29.315  -1.939  19.848  1.00  0.00    -0.046 A 
HETATM   33  C1  UNL     1     -29.334  -3.384  19.464  1.00  0.00     0.049 C 
HETATM   34  C21 UNL     1     -29.523  -0.938  18.917  1.00  0.00     0.097 A 
ENDBRANCH  27  28
ENDBRANCH   1  27
TORSDOF 9
ENDMDL
MODEL 4
REMARK VINA RESULT: -7.485336254      1.579      2.588
REMARK  9 active torsions:
REMARK  status: ('A' for Active; 'I' for Inactive)
REMARK    1  A    between atoms: N1_6  and  C6_7 
REMARK    2  A    between atoms: C6_7  and  C7_8 
REMARK    3  A    between atoms: C10_11  and  C11_12 
REMARK    4  A    between atoms: C11_12  and  C12_13 
REMARK    5  A    between atoms: C12_13  and  N2_14 
REMARK    6  A    between atoms: C16_19  and  N4_20 
REMARK    7  A    between atoms: C18_27  and  C19_28 
REMARK    8  A    between atoms: C19_28  and  C20_29 
REMARK    9  A    between atoms: C20_29  and  N7_30 
ROOT
HETATM    1  C7  UNL     1     -28.036   1.604  16.925  1.00  0.00    -0.017 A 
HETATM    2  C8  UNL     1     -26.657   1.546  17.270  1.00  0.00     0.013 A 
HETATM    3  C9  UNL     1     -25.696   1.472  16.302  1.00  0.00     0.026 A 
HETATM    4  C10 UNL     1     -26.093   1.454  14.968  1.00  0.00     0.013 A 
HETATM    5  N6  UNL     1     -27.381   1.505  14.644  1.00  0.00    -0.357 N 
HETATM    6  C17 UNL     1     -27.762   1.525  13.252  1.00  0.00     0.156 C 
HETATM    7  C18 UNL     1     -28.361   1.576  15.600  1.00  0.00     0.021 A 
ENDROOT
BRANCH   4   8
HETATM    8  C11 UNL     1     -24.959   1.372  13.997  1.00  0.00     0.079 C 
BRANCH   8   9
HETATM    9  C12 UNL     1     -23.959   2.411  14.283  1.00  0.00     0.154 C 
BRANCH   9  10
HETATM   10  N2  UNL     1     -22.839   2.067  15.072  1.00  0.00    -0.287 N 
HETATM   11  C13 UNL     1     -22.345   2.865  16.036  1.00  0.00     0.128 A 
HETATM   12  C14 UNL     1     -21.265   2.450  16.750  1.00  0.00     0.127 A 
HETATM   13  N3  UNL     1     -20.672   1.253  16.520  1.00  0.00    -0.196 N 
HETATM   14  C15 UNL     1     -19.520   0.839  17.303  1.00  0.00     0.175 C 
HETATM   15  C16 UNL     1     -21.187   0.480  15.552  1.00  0.00     0.692 A 
HETATM   16  N5  UNL     1     -22.261   0.898  14.844  1.00  0.00    -0.130 N 
ATOM     17  H5  UNL     1     -22.637   0.295  14.113  1.00  0.00     0.206 HD
BRANCH  15  18
HETATM   18  N4  UNL     1     -20.623  -0.660  15.332  1.00  0.00    -0.233 N 
ATOM     19  H42 UNL     1     -19.809  -0.972  15.861  1.00  0.00     0.174 HD
ATOM     20  H41 UNL     1     -21.019  -1.252  14.602  1.00  0.00     0.174 HD
ENDBRANCH  15  18
ENDBRANCH   9  10
ENDBRANCH   8   9
ENDBRANCH   4   8
BRANCH   7  21
HETATM   21  C19 UNL     1     -29.756   1.461  15.182  1.00  0.00     0.085 C 
BRANCH  21  22
HETATM   22  C20 UNL     1     -30.317   0.059  15.176  1.00  0.00     0.235 C 
BRANCH  22  23
HETATM   23  N7  UNL     1     -31.442  -0.211  15.975  1.00  0.00    -0.079 N 
ATOM     24  H73 UNL     1     -31.202  -0.048  16.953  1.00  0.00     0.274 HD
ATOM     25  H72 UNL     1     -32.142   0.515  15.822  1.00  0.00     0.274 HD
ATOM     26  H71 UNL     1     -31.887  -1.125  15.889  1.00  0.00     0.274 HD
ENDBRANCH  22  23
ENDBRANCH  21  22
ENDBRANCH   7  21
BRANCH   1  27
HETATM   27  C6  UNL     1     -28.906   1.849  18.072  1.00  0.00     0.168 C 
BRANCH  27  28
HETATM   28  N1  UNL     1     -28.928   0.744  19.049  1.00  0.00    -0.362 N 
HETATM   29  C5  UNL     1     -28.724   1.053  20.346  1.00  0.00     0.090 A 
HETATM   30  C4  UNL     1     -28.721   0.045  21.274  1.00  0.00     0.018 A 
HETATM   31  C3  UNL     1     -28.918  -1.269  20.941  1.00  0.00     0.009 A 
HETATM   32  C2  UNL     1     -29.124  -1.576  19.616  1.00  0.00    -0.046 A 
HETATM   33  C1  UNL     1     -29.345  -2.985  19.166  1.00  0.00     0.049 C 
HETATM   34  C21 UNL     1     -29.116  -0.522  18.721  1.00  0.00     0.097 A 
ENDBRANCH  27  28
ENDBRANCH   1  27
TORSDOF 9
ENDMDL
MODEL 5
REMARK VINA RESULT: -7.374202839      1.720      2.564
REMARK  9 active torsions:
REMARK  status: ('A' for Active; 'I' for Inactive)
REMARK    1  A    between atoms: N1_6  and  C6_7 
REMARK    2  A    between atoms: C6_7  and  C7_8 
REMARK    3  A    between atoms: C10_11  and  C11_12 
REMARK    4  A    between atoms: C11_12  and  C12_13 
REMARK    5  A    between atoms: C12_13  and  N2_14 
REMARK    6  A    between atoms: C16_19  and  N4_20 
REMARK    7  A    between atoms: C18_27  and  C19_28 
REMARK    8  A    between atoms: C19_28  and  C20_29 
REMARK    9  A    between atoms: C20_29  and  N7_30 
ROOT
HETATM    1  C7  UNL     1     -27.759   1.725  16.677  1.00  0.00    -0.017 A 
HETATM    2  C8  UNL     1     -26.389   1.571  17.031  1.00  0.00     0.013 A 
HETATM    3  C9  UNL     1     -25.420   1.517  16.070  1.00  0.00     0.026 A 
HETATM    4  C10 UNL     1     -25.798   1.616  14.735  1.00  0.00     0.013 A 
HETATM    5  N6  UNL     1     -27.077   1.757  14.402  1.00  0.00    -0.357 N 
HETATM    6  C17 UNL     1     -27.437   1.897  13.011  1.00  0.00     0.156 C 
HETATM    7  C18 UNL     1     -28.065   1.810  15.350  1.00  0.00     0.021 A 
ENDROOT
BRANCH   4   8
HETATM    8  C11 UNL     1     -24.656   1.546  13.772  1.00  0.00     0.079 C 
BRANCH   8   9
HETATM    9  C12 UNL     1     -23.626   2.536  14.121  1.00  0.00     0.154 C 
BRANCH   9  10
HETATM   10  N2  UNL     1     -22.574   2.138  14.976  1.00  0.00    -0.287 N 
HETATM   11  C13 UNL     1     -22.086   2.922  15.955  1.00  0.00     0.128 A 
HETATM   12  C14 UNL     1     -21.075   2.454  16.735  1.00  0.00     0.127 A 
HETATM   13  N3  UNL     1     -20.544   1.220  16.555  1.00  0.00    -0.196 N 
HETATM   14  C15 UNL     1     -19.465   0.751  17.406  1.00  0.00     0.175 C 
HETATM   15  C16 UNL     1     -21.051   0.463  15.570  1.00  0.00     0.692 A 
HETATM   16  N5  UNL     1     -22.057   0.933  14.797  1.00  0.00    -0.130 N 
ATOM     17  H5  UNL     1     -22.429   0.341  14.055  1.00  0.00     0.206 HD
BRANCH  15  18
HETATM   18  N4  UNL     1     -20.547  -0.713  15.398  1.00  0.00    -0.233 N 
ATOM     19  H42 UNL     1     -19.732  -1.034  15.919  1.00  0.00     0.174 HD
ATOM     20  H41 UNL     1     -20.993  -1.324  14.713  1.00  0.00     0.174 HD
ENDBRANCH  15  18
ENDBRANCH   9  10
ENDBRANCH   8   9
ENDBRANCH   4   8
BRANCH   7  21
HETATM   21  C19 UNL     1     -29.459   1.798  14.910  1.00  0.00     0.085 C 
BRANCH  21  22
HETATM   22  C20 UNL     1     -30.104   0.434  14.841  1.00  0.00     0.235 C 
BRANCH  22  23
HETATM   23  N7  UNL     1     -30.342  -0.127  13.573  1.00  0.00    -0.079 N 
ATOM     24  H73 UNL     1     -30.895   0.526  13.019  1.00  0.00     0.274 HD
ATOM     25  H72 UNL     1     -29.469  -0.139  13.045  1.00  0.00     0.274 HD
ATOM     26  H71 UNL     1     -30.771  -1.051  13.527  1.00  0.00     0.274 HD
ENDBRANCH  22  23
ENDBRANCH  21  22
ENDBRANCH   7  21
BRANCH   1  27
HETATM   27  C6  UNL     1     -28.632   1.932  17.829  1.00  0.00     0.168 C 
BRANCH  27  28
HETATM   28  N1  UNL     1     -28.727   0.760  18.721  1.00  0.00    -0.362 N 
HETATM   29  C5  UNL     1     -29.083  -0.418  18.169  1.00  0.00     0.090 A 
HETATM   30  C4  UNL     1     -29.196  -1.520  18.975  1.00  0.00     0.018 A 
HETATM   31  C3  UNL     1     -28.962  -1.478  20.324  1.00  0.00     0.009 A 
HETATM   32  C2  UNL     1     -28.600  -0.273  20.880  1.00  0.00    -0.046 A 
HETATM   33  C1  UNL     1     -28.328  -0.138  22.344  1.00  0.00     0.049 C 
HETATM   34  C21 UNL     1     -28.501   0.807  20.022  1.00  0.00     0.097 A 
ENDBRANCH  27  28
ENDBRANCH   1  27
TORSDOF 9
ENDMDL
