MODEL 1
REMARK VINA RESULT: -9.088344447      0.000      0.000
REMARK  2 active torsions:
REMARK  status: ('A' for Active; 'I' for Inactive)
REMARK    1  A    between atoms: C2_5  and  N2_6 
REMARK    2  A    between atoms: C5_14  and  N4_15 
ROOT
HETATM    1  N1  UNL     1      53.287  -2.778  42.673  1.00  0.00    -0.393 N 
ATOM      2  H11 UNL     1      53.896  -2.015  42.967  1.00  0.00     0.156 HD
ATOM      3  H12 UNL     1      52.467  -2.531  42.119  1.00  0.00     0.156 HD
HETATM    4  C1  UNL     1      53.543  -4.010  42.995  1.00  0.00     0.133 A 
HETATM    5  C2  UNL     1      52.715  -5.047  42.596  1.00  0.00     0.180 A 
HETATM    6  C3  UNL     1      52.967  -6.367  42.922  1.00  0.00     0.165 A 
HETATM    7  N3  UNL     1      52.174  -7.374  42.543  1.00  0.00    -0.304 N 
ATOM      8  H3  UNL     1      51.345  -7.160  41.988  1.00  0.00     0.171 HD
HETATM    9  C4  UNL     1      52.420  -8.658  42.863  1.00  0.00     0.281 A 
HETATM   10  O3  UNL     1      51.681  -9.606  42.510  1.00  0.00    -0.265 OA
HETATM   11  C5  UNL     1      53.540  -8.973  43.619  1.00  0.00     0.188 A 
HETATM   12  C6  UNL     1      54.344  -7.920  44.000  1.00  0.00     0.160 A 
HETATM   13  N5  UNL     1      54.066  -6.628  43.659  1.00  0.00    -0.243 N 
HETATM   14  N6  UNL     1      54.851  -5.637  44.037  1.00  0.00    -0.256 N 
ATOM     15  H6  UNL     1      55.672  -5.876  44.593  1.00  0.00     0.191 HD
HETATM   16  C7  UNL     1      54.660  -4.346  43.751  1.00  0.00     0.289 A 
HETATM   17  O6  UNL     1      55.450  -3.428  44.139  1.00  0.00    -0.264 OA
ENDROOT
BRANCH   5  18
HETATM   18  N2  UNL     1      51.571  -4.710  41.818  1.00  0.00    -0.109 N 
HETATM   19  O1  UNL     1      50.432  -4.617  42.285  1.00  0.00    -0.532 OA
HETATM   20  O2  UNL     1      51.752  -4.475  40.472  1.00  0.00    -0.532 OA
ENDBRANCH   5  18
BRANCH  11  21
HETATM   21  N4  UNL     1      53.795 -10.329  43.955  1.00  0.00    -0.108 N 
HETATM   22  O4  UNL     1      54.849 -10.907  43.582  1.00  0.00    -0.532 OA
HETATM   23  O5  UNL     1      52.903 -11.071  44.699  1.00  0.00    -0.532 OA
ENDBRANCH  11  21
TORSDOF 2
ENDMDL
MODEL 2
REMARK VINA RESULT: -9.039512296      2.489      6.598
REMARK  2 active torsions:
REMARK  status: ('A' for Active; 'I' for Inactive)
REMARK    1  A    between atoms: C2_5  and  N2_6 
REMARK    2  A    between atoms: C5_14  and  N4_15 
ROOT
HETATM    1  N1  UNL     1      51.843  -6.850  43.000  1.00  0.00    -0.393 N 
ATOM      2  H11 UNL     1      50.906  -7.104  42.690  1.00  0.00     0.156 HD
ATOM      3  H12 UNL     1      52.405  -7.584  43.432  1.00  0.00     0.156 HD
HETATM    4  C1  UNL     1      52.300  -5.643  42.851  1.00  0.00     0.133 A 
HETATM    5  C2  UNL     1      53.574  -5.298  43.272  1.00  0.00     0.180 A 
HETATM    6  C3  UNL     1      54.086  -4.022  43.124  1.00  0.00     0.165 A 
HETATM    7  N3  UNL     1      55.313  -3.678  43.527  1.00  0.00    -0.304 N 
ATOM      8  H3  UNL     1      55.900  -4.389  43.964  1.00  0.00     0.171 HD
HETATM    9  C4  UNL     1      55.809  -2.435  43.383  1.00  0.00     0.281 A 
HETATM   10  O3  UNL     1      56.959  -2.108  43.758  1.00  0.00    -0.265 OA
HETATM   11  C5  UNL     1      55.029  -1.451  42.793  1.00  0.00     0.188 A 
HETATM   12  C6  UNL     1      53.767  -1.825  42.384  1.00  0.00     0.160 A 
HETATM   13  N5  UNL     1      53.294  -3.096  42.545  1.00  0.00    -0.243 N 
HETATM   14  N6  UNL     1      52.081  -3.430  42.147  1.00  0.00    -0.256 N 
ATOM     15  H6  UNL     1      51.513  -2.701  41.715  1.00  0.00     0.191 HD
HETATM   16  C7  UNL     1      51.535  -4.643  42.263  1.00  0.00     0.289 A 
HETATM   17  O6  UNL     1      50.360  -4.914  41.859  1.00  0.00    -0.264 OA
ENDROOT
BRANCH   5  18
HETATM   18  N2  UNL     1      54.366  -6.318  43.873  1.00  0.00    -0.109 N 
HETATM   19  O1  UNL     1      54.056  -6.893  44.921  1.00  0.00    -0.532 OA
HETATM   20  O2  UNL     1      55.538  -6.680  43.246  1.00  0.00    -0.532 OA
ENDBRANCH   5  18
BRANCH  11  21
HETATM   21  N4  UNL     1      55.556  -0.141  42.644  1.00  0.00    -0.108 N 
HETATM   22  O4  UNL     1      55.521   0.689  43.589  1.00  0.00    -0.532 OA
HETATM   23  O5  UNL     1      56.126   0.280  41.462  1.00  0.00    -0.532 OA
ENDBRANCH  11  21
TORSDOF 2
ENDMDL
MODEL 3
REMARK VINA RESULT: -8.977790934      2.071      5.666
REMARK  2 active torsions:
REMARK  status: ('A' for Active; 'I' for Inactive)
REMARK    1  A    between atoms: C2_5  and  N2_6 
REMARK    2  A    between atoms: C5_14  and  N4_15 
ROOT
HETATM    1  N1  UNL     1      51.577  -7.149  43.165  1.00  0.00    -0.393 N 
ATOM      2  H11 UNL     1      51.603  -8.072  43.596  1.00  0.00     0.156 HD
ATOM      3  H12 UNL     1      50.775  -6.934  42.574  1.00  0.00     0.156 HD
HETATM    4  C1  UNL     1      52.529  -6.286  43.360  1.00  0.00     0.133 A 
HETATM    5  C2  UNL     1      52.494  -5.030  42.774  1.00  0.00     0.180 A 
HETATM    6  C3  UNL     1      53.491  -4.092  42.966  1.00  0.00     0.165 A 
HETATM    7  N3  UNL     1      53.467  -2.879  42.405  1.00  0.00    -0.304 N 
ATOM      8  H3  UNL     1      52.678  -2.633  41.807  1.00  0.00     0.171 HD
HETATM    9  C4  UNL     1      54.440  -1.967  42.593  1.00  0.00     0.281 A 
HETATM   10  O3  UNL     1      54.422  -0.829  42.070  1.00  0.00    -0.265 OA
HETATM   11  C5  UNL     1      55.524  -2.279  43.400  1.00  0.00     0.188 A 
HETATM   12  C6  UNL     1      55.529  -3.534  43.969  1.00  0.00     0.160 A 
HETATM   13  N5  UNL     1      54.527  -4.437  43.759  1.00  0.00    -0.243 N 
HETATM   14  N6  UNL     1      54.555  -5.634  44.314  1.00  0.00    -0.256 N 
ATOM     15  H6  UNL     1      55.356  -5.856  44.906  1.00  0.00     0.191 HD
HETATM   16  C7  UNL     1      53.622  -6.578  44.165  1.00  0.00     0.289 A 
HETATM   17  O6  UNL     1      53.697  -7.717  44.726  1.00  0.00    -0.264 OA
ENDROOT
BRANCH   5  18
HETATM   18  N2  UNL     1      51.373  -4.722  41.950  1.00  0.00    -0.109 N 
HETATM   19  O1  UNL     1      50.223  -4.597  42.381  1.00  0.00    -0.532 OA
HETATM   20  O2  UNL     1      51.591  -4.552  40.600  1.00  0.00    -0.532 OA
ENDBRANCH   5  18
BRANCH  11  21
HETATM   21  N4  UNL     1      56.548  -1.314  43.595  1.00  0.00    -0.108 N 
HETATM   22  O4  UNL     1      57.741  -1.556  43.277  1.00  0.00    -0.532 OA
HETATM   23  O5  UNL     1      56.282  -0.076  44.139  1.00  0.00    -0.532 OA
ENDBRANCH  11  21
TORSDOF 2
ENDMDL
MODEL 4
REMARK VINA RESULT: -8.728723919      2.106      2.450
REMARK  2 active torsions:
REMARK  status: ('A' for Active; 'I' for Inactive)
REMARK    1  A    between atoms: C2_5  and  N2_6 
REMARK    2  A    between atoms: C5_14  and  N4_15 
ROOT
HETATM    1  N1  UNL     1      54.913  -4.836  41.573  1.00  0.00    -0.393 N 
ATOM      2  H11 UNL     1      55.894  -4.653  41.366  1.00  0.00     0.156 HD
ATOM      3  H12 UNL     1      54.271  -4.045  41.518  1.00  0.00     0.156 HD
HETATM    4  C1  UNL     1      54.501  -6.025  41.897  1.00  0.00     0.133 A 
HETATM    5  C2  UNL     1      53.167  -6.273  42.179  1.00  0.00     0.180 A 
HETATM    6  C3  UNL     1      52.701  -7.529  42.523  1.00  0.00     0.165 A 
HETATM    7  N3  UNL     1      51.418  -7.779  42.798  1.00  0.00    -0.304 N 
ATOM      8  H3  UNL     1      50.750  -7.009  42.751  1.00  0.00     0.171 HD
HETATM    9  C4  UNL     1      50.967  -9.003  43.133  1.00  0.00     0.281 A 
HETATM   10  O3  UNL     1      49.764  -9.243  43.391  1.00  0.00    -0.265 OA
HETATM   11  C5  UNL     1      51.856 -10.065  43.204  1.00  0.00     0.188 A 
HETATM   12  C6  UNL     1      53.175  -9.786  42.917  1.00  0.00     0.160 A 
HETATM   13  N5  UNL     1      53.601  -8.533  42.580  1.00  0.00    -0.243 N 
HETATM   14  N6  UNL     1      54.870  -8.291  42.311  1.00  0.00    -0.256 N 
ATOM     15  H6  UNL     1      55.518  -9.076  42.366  1.00  0.00     0.191 HD
HETATM   16  C7  UNL     1      55.376  -7.102  41.973  1.00  0.00     0.289 A 
HETATM   17  O6  UNL     1      56.609  -6.922  41.721  1.00  0.00    -0.264 OA
ENDROOT
BRANCH   5  18
HETATM   18  N2  UNL     1      52.264  -5.175  42.099  1.00  0.00    -0.109 N 
HETATM   19  O1  UNL     1      51.848  -4.562  43.086  1.00  0.00    -0.532 OA
HETATM   20  O2  UNL     1      51.837  -4.779  40.850  1.00  0.00    -0.532 OA
ENDBRANCH   5  18
BRANCH  11  21
HETATM   21  N4  UNL     1      51.376 -11.353  43.559  1.00  0.00    -0.108 N 
HETATM   22  O4  UNL     1      51.808 -11.953  44.579  1.00  0.00    -0.532 OA
HETATM   23  O5  UNL     1      50.421 -12.003  42.808  1.00  0.00    -0.532 OA
ENDBRANCH  11  21
TORSDOF 2
ENDMDL
MODEL 5
REMARK VINA RESULT: -8.471302775      1.737      5.417
REMARK  2 active torsions:
REMARK  status: ('A' for Active; 'I' for Inactive)
REMARK    1  A    between atoms: C2_5  and  N2_6 
REMARK    2  A    between atoms: C5_14  and  N4_15 
ROOT
HETATM    1  N1  UNL     1      52.671 -11.659  43.846  1.00  0.00    -0.393 N 
ATOM      2  H11 UNL     1      53.242 -12.451  44.140  1.00  0.00     0.156 HD
ATOM      3  H12 UNL     1      51.664 -11.807  43.789  1.00  0.00     0.156 HD
HETATM    4  C1  UNL     1      53.207 -10.512  43.552  1.00  0.00     0.133 A 
HETATM    5  C2  UNL     1      52.431  -9.436  43.152  1.00  0.00     0.180 A 
HETATM    6  C3  UNL     1      52.975  -8.204  42.837  1.00  0.00     0.165 A 
HETATM    7  N3  UNL     1      52.236  -7.160  42.448  1.00  0.00    -0.304 N 
ATOM      8  H3  UNL     1      51.225  -7.276  42.381  1.00  0.00     0.171 HD
HETATM    9  C4  UNL     1      52.768  -5.962  42.141  1.00  0.00     0.281 A 
HETATM   10  O3  UNL     1      52.080  -4.980  41.777  1.00  0.00    -0.265 OA
HETATM   11  C5  UNL     1      54.140  -5.780  42.223  1.00  0.00     0.188 A 
HETATM   12  C6  UNL     1      54.884  -6.869  42.626  1.00  0.00     0.160 A 
HETATM   13  N5  UNL     1      54.314  -8.072  42.930  1.00  0.00    -0.243 N 
HETATM   14  N6  UNL     1      55.048  -9.100  43.312  1.00  0.00    -0.256 N 
ATOM     15  H6  UNL     1      56.057  -8.959  43.369  1.00  0.00     0.191 HD
HETATM   16  C7  UNL     1      54.579 -10.310  43.629  1.00  0.00     0.289 A 
HETATM   17  O6  UNL     1      55.331 -11.268  43.994  1.00  0.00    -0.264 OA
ENDROOT
BRANCH   5  18
HETATM   18  N2  UNL     1      51.023  -9.634  43.075  1.00  0.00    -0.109 N 
HETATM   19  O1  UNL     1      50.196  -8.736  43.258  1.00  0.00    -0.532 OA
HETATM   20  O2  UNL     1      50.564 -10.899  42.777  1.00  0.00    -0.532 OA
ENDBRANCH   5  18
BRANCH  11  21
HETATM   21  N4  UNL     1      54.697  -4.515  41.897  1.00  0.00    -0.108 N 
HETATM   22  O4  UNL     1      54.926  -3.654  42.786  1.00  0.00    -0.532 OA
HETATM   23  O5  UNL     1      55.010  -4.175  40.599  1.00  0.00    -0.532 OA
ENDBRANCH  11  21
TORSDOF 2
ENDMDL
