MODEL 1
REMARK VINA RESULT: -7.566467825      0.000      0.000
REMARK  0 active torsions:
REMARK  status: ('A' for Active; 'I' for Inactive)
ROOT
HETATM    1  N1  UNL     1      37.081  -3.923   6.248  1.00  0.00    -0.063 NA
HETATM    2  C1  UNL     1      37.228  -4.767   7.446  1.00  0.00     0.192 C 
HETATM    3  N2  UNL     1      36.787  -4.181   8.459  1.00  0.00    -0.328 N 
ATOM      4  H2  UNL     1      36.440  -3.264   8.178  1.00  0.00     0.165 HD
HETATM    5  C2  UNL     1      36.600  -4.322   9.816  1.00  0.00     0.354 C 
HETATM    6  N3  UNL     1      36.559  -3.003  10.501  1.00  0.00    -0.029 N 
ATOM      7  H31 UNL     1      35.739  -2.402  10.423  1.00  0.00     0.282 HD
ATOM      8  H32 UNL     1      37.139  -2.229  10.176  1.00  0.00     0.282 HD
HETATM    9  C3  UNL     1      36.868  -3.695  11.768  1.00  0.00     0.278 C 
HETATM   10  C4  UNL     1      35.648  -4.233  12.350  1.00  0.00     0.034 C 
HETATM   11  C5  UNL     1      35.380  -5.653  12.482  1.00  0.00     0.086 C 
HETATM   12  N4  UNL     1      36.436  -6.575  12.615  1.00  0.00    -0.376 N 
ATOM     13  H4  UNL     1      37.275  -6.210  13.067  1.00  0.00     0.164 HD
HETATM   14  C6  UNL     1      36.504  -7.813  12.251  1.00  0.00     0.087 C 
HETATM   15  C7  UNL     1      35.545  -8.653  11.597  1.00  0.00     0.020 C 
HETATM   16  C8  UNL     1      35.424  -8.989  10.320  1.00  0.00     0.038 C 
HETATM   17  C9  UNL     1      36.226  -8.622   9.167  1.00  0.00     0.075 A 
HETATM   18  N5  UNL     1      36.645  -7.469   8.740  1.00  0.00    -0.336 N 
ATOM     19  H5  UNL     1      36.380  -6.634   9.262  1.00  0.00     0.168 HD
HETATM   20  C10 UNL     1      37.376  -7.327   7.696  1.00  0.00     0.115 A 
HETATM   21  C11 UNL     1      37.700  -8.534   7.027  1.00  0.00     0.100 A 
HETATM   22  S1  UNL     1      36.924  -9.692   7.974  1.00  0.00    -0.081 SA
HETATM   23  N6  UNL     1      37.832  -6.036   7.287  1.00  0.00    -0.316 N 
ATOM     24  H6  UNL     1      38.731  -6.029   6.807  1.00  0.00     0.170 HD
HETATM   25  S2  UNL     1      37.976  -4.720  10.865  1.00  0.00    -0.079 SA
ENDROOT
TORSDOF 0
ENDMDL
MODEL 2
REMARK VINA RESULT: -7.401000450      1.974      4.847
REMARK  0 active torsions:
REMARK  status: ('A' for Active; 'I' for Inactive)
ROOT
HETATM    1  N1  UNL     1      35.637  -1.235  12.526  1.00  0.00    -0.063 NA
HETATM    2  C1  UNL     1      36.219  -2.265  11.649  1.00  0.00     0.192 C 
HETATM    3  N2  UNL     1      35.827  -3.405  11.982  1.00  0.00    -0.328 N 
ATOM      4  H2  UNL     1      35.201  -3.312  12.782  1.00  0.00     0.165 HD
HETATM    5  C2  UNL     1      35.932  -4.741  11.663  1.00  0.00     0.354 C 
HETATM    6  N3  UNL     1      35.661  -5.606  12.842  1.00  0.00    -0.029 N 
ATOM      7  H31 UNL     1      34.709  -5.736  13.184  1.00  0.00     0.282 HD
ATOM      8  H32 UNL     1      35.943  -5.314  13.778  1.00  0.00     0.282 HD
HETATM    9  C3  UNL     1      36.368  -6.702  12.150  1.00  0.00     0.278 C 
HETATM   10  C4  UNL     1      35.464  -7.373  11.229  1.00  0.00     0.034 C 
HETATM   11  C5  UNL     1      35.617  -7.338   9.786  1.00  0.00     0.086 C 
HETATM   12  N4  UNL     1      36.888  -7.182   9.201  1.00  0.00    -0.376 N 
ATOM     13  H4  UNL     1      37.665  -7.554   9.748  1.00  0.00     0.164 HD
HETATM   14  C6  UNL     1      37.220  -6.639   8.077  1.00  0.00     0.087 C 
HETATM   15  C7  UNL     1      36.421  -6.018   7.061  1.00  0.00     0.020 C 
HETATM   16  C8  UNL     1      36.166  -4.737   6.830  1.00  0.00     0.038 C 
HETATM   17  C9  UNL     1      36.619  -3.545   7.523  1.00  0.00     0.075 A 
HETATM   18  N5  UNL     1      36.628  -3.230   8.783  1.00  0.00    -0.336 N 
ATOM     19  H5  UNL     1      36.247  -3.899   9.451  1.00  0.00     0.168 HD
HETATM   20  C10 UNL     1      37.093  -2.122   9.230  1.00  0.00     0.115 A 
HETATM   21  C11 UNL     1      37.604  -1.247   8.238  1.00  0.00     0.100 A 
HETATM   22  S1  UNL     1      37.352  -2.121   6.820  1.00  0.00    -0.081 SA
HETATM   23  N6  UNL     1      37.103  -1.840  10.631  1.00  0.00    -0.316 N 
ATOM     24  H6  UNL     1      37.865  -1.240  10.944  1.00  0.00     0.170 HD
HETATM   25  S2  UNL     1      37.530  -5.510  11.581  1.00  0.00    -0.079 SA
ENDROOT
TORSDOF 0
ENDMDL
MODEL 3
REMARK VINA RESULT: -7.310040956      2.140      3.382
REMARK  0 active torsions:
REMARK  status: ('A' for Active; 'I' for Inactive)
ROOT
HETATM    1  N1  UNL     1      35.333  -6.203   4.547  1.00  0.00    -0.063 NA
HETATM    2  C1  UNL     1      35.978  -5.793   5.806  1.00  0.00     0.192 C 
HETATM    3  N2  UNL     1      35.776  -4.580   6.034  1.00  0.00    -0.328 N 
ATOM      4  H2  UNL     1      35.210  -4.198   5.276  1.00  0.00     0.165 HD
HETATM    5  C2  UNL     1      36.037  -3.573   6.935  1.00  0.00     0.354 C 
HETATM    6  N3  UNL     1      35.986  -2.235   6.288  1.00  0.00    -0.029 N 
ATOM      7  H31 UNL     1      35.093  -1.813   6.035  1.00  0.00     0.282 HD
ATOM      8  H32 UNL     1      36.301  -2.110   5.325  1.00  0.00     0.282 HD
HETATM    9  C3  UNL     1      36.779  -1.703   7.413  1.00  0.00     0.278 C 
HETATM   10  C4  UNL     1      35.904  -1.389   8.533  1.00  0.00     0.034 C 
HETATM   11  C5  UNL     1      35.933  -2.101   9.797  1.00  0.00     0.086 C 
HETATM   12  N4  UNL     1      37.118  -2.707  10.255  1.00  0.00    -0.376 N 
ATOM     13  H4  UNL     1      37.981  -2.257   9.948  1.00  0.00     0.164 HD
HETATM   14  C6  UNL     1      37.278  -3.748  11.004  1.00  0.00     0.087 C 
HETATM   15  C7  UNL     1      36.321  -4.626  11.610  1.00  0.00     0.020 C 
HETATM   16  C8  UNL     1      35.874  -5.812  11.221  1.00  0.00     0.038 C 
HETATM   17  C9  UNL     1      36.213  -6.614  10.060  1.00  0.00     0.075 A 
HETATM   18  N5  UNL     1      36.282  -6.318   8.797  1.00  0.00    -0.336 N 
ATOM     19  H5  UNL     1      36.052  -5.366   8.510  1.00  0.00     0.168 HD
HETATM   20  C10 UNL     1      36.624  -7.159   7.892  1.00  0.00     0.115 A 
HETATM   21  C11 UNL     1      36.926  -8.459   8.372  1.00  0.00     0.100 A 
HETATM   22  S1  UNL     1      36.683  -8.298  10.031  1.00  0.00    -0.081 SA
HETATM   23  N6  UNL     1      36.709  -6.771   6.520  1.00  0.00    -0.316 N 
ATOM     24  H6  UNL     1      37.404  -7.276   5.972  1.00  0.00     0.170 HD
HETATM   25  S2  UNL     1      37.715  -3.192   7.377  1.00  0.00    -0.079 SA
ENDROOT
TORSDOF 0
ENDMDL
MODEL 4
REMARK VINA RESULT: -7.250543556      1.987      4.826
REMARK  0 active torsions:
REMARK  status: ('A' for Active; 'I' for Inactive)
ROOT
HETATM    1  N1  UNL     1      38.416  -1.445   6.578  1.00  0.00    -0.063 NA
HETATM    2  C1  UNL     1      37.637  -2.471   7.292  1.00  0.00     0.192 C 
HETATM    3  N2  UNL     1      37.920  -3.615   6.874  1.00  0.00    -0.328 N 
ATOM      4  H2  UNL     1      38.624  -3.527   6.141  1.00  0.00     0.165 HD
HETATM    5  C2  UNL     1      37.629  -4.950   7.041  1.00  0.00     0.354 C 
HETATM    6  N3  UNL     1      37.903  -5.727   5.803  1.00  0.00    -0.029 N 
ATOM      7  H31 UNL     1      38.860  -5.944   5.526  1.00  0.00     0.282 HD
ATOM      8  H32 UNL     1      37.746  -5.314   4.883  1.00  0.00     0.282 HD
HETATM    9  C3  UNL     1      37.010  -6.785   6.315  1.00  0.00     0.278 C 
HETATM   10  C4  UNL     1      37.739  -7.650   7.231  1.00  0.00     0.034 C 
HETATM   11  C5  UNL     1      37.457  -7.732   8.653  1.00  0.00     0.086 C 
HETATM   12  N4  UNL     1      36.165  -7.472   9.146  1.00  0.00    -0.376 N 
ATOM     13  H4  UNL     1      35.404  -7.688   8.502  1.00  0.00     0.164 HD
HETATM   14  C6  UNL     1      35.797  -7.000  10.291  1.00  0.00     0.087 C 
HETATM   15  C7  UNL     1      36.566  -6.584  11.427  1.00  0.00     0.020 C 
HETATM   16  C8  UNL     1      36.948  -5.374  11.812  1.00  0.00     0.038 C 
HETATM   17  C9  UNL     1      36.706  -4.074  11.215  1.00  0.00     0.075 A 
HETATM   18  N5  UNL     1      36.851  -3.643   9.998  1.00  0.00    -0.336 N 
ATOM     19  H5  UNL     1      37.211  -4.289   9.296  1.00  0.00     0.168 HD
HETATM   20  C10 UNL     1      36.565  -2.447   9.635  1.00  0.00     0.115 A 
HETATM   21  C11 UNL     1      36.071  -1.612  10.669  1.00  0.00     0.100 A 
HETATM   22  S1  UNL     1      36.084  -2.642  12.003  1.00  0.00    -0.081 SA
HETATM   23  N6  UNL     1      36.718  -2.035   8.275  1.00  0.00    -0.316 N 
ATOM     24  H6  UNL     1      36.065  -1.315   7.967  1.00  0.00     0.170 HD
HETATM   25  S2  UNL     1      35.949  -5.514   6.912  1.00  0.00    -0.079 SA
ENDROOT
TORSDOF 0
ENDMDL
MODEL 5
REMARK VINA RESULT: -7.225707177      2.371      5.101
REMARK  0 active torsions:
REMARK  status: ('A' for Active; 'I' for Inactive)
ROOT
HETATM    1  N1  UNL     1      36.032  -1.412  12.902  1.00  0.00    -0.063 NA
HETATM    2  C1  UNL     1      35.956  -2.228  11.678  1.00  0.00     0.192 C 
HETATM    3  N2  UNL     1      36.423  -1.606  10.699  1.00  0.00    -0.328 N 
ATOM      4  H2  UNL     1      36.735  -0.688  11.018  1.00  0.00     0.165 HD
HETATM    5  C2  UNL     1      36.670  -1.706   9.348  1.00  0.00     0.354 C 
HETATM    6  N3  UNL     1      36.706  -0.369   8.699  1.00  0.00    -0.029 N 
ATOM      7  H31 UNL     1      37.506   0.250   8.826  1.00  0.00     0.282 HD
ATOM      8  H32 UNL     1      36.093   0.382   9.019  1.00  0.00     0.282 HD
HETATM    9  C3  UNL     1      36.467  -1.034   7.404  1.00  0.00     0.278 C 
HETATM   10  C4  UNL     1      37.723  -1.527   6.859  1.00  0.00     0.034 C 
HETATM   11  C5  UNL     1      38.031  -2.937   6.703  1.00  0.00     0.086 C 
HETATM   12  N4  UNL     1      37.006  -3.880   6.503  1.00  0.00    -0.376 N 
ATOM     13  H4  UNL     1      36.177  -3.524   6.026  1.00  0.00     0.164 HD
HETATM   14  C6  UNL     1      36.955  -5.128   6.832  1.00  0.00     0.087 C 
HETATM   15  C7  UNL     1      37.907  -5.962   7.505  1.00  0.00     0.020 C 
HETATM   16  C8  UNL     1      37.984  -6.328   8.777  1.00  0.00     0.038 C 
HETATM   17  C9  UNL     1      37.126  -6.011   9.904  1.00  0.00     0.075 A 
HETATM   18  N5  UNL     1      36.660  -4.880  10.342  1.00  0.00    -0.336 N 
ATOM     19  H5  UNL     1      36.925  -4.026   9.853  1.00  0.00     0.168 HD
HETATM   20  C10 UNL     1      35.884  -4.783  11.358  1.00  0.00     0.115 A 
HETATM   21  C11 UNL     1      35.563  -6.016  11.982  1.00  0.00     0.100 A 
HETATM   22  S1  UNL     1      36.407  -7.129  11.040  1.00  0.00    -0.081 SA
HETATM   23  N6  UNL     1      35.378  -3.515  11.780  1.00  0.00    -0.316 N 
ATOM     24  H6  UNL     1      34.461  -3.543  12.222  1.00  0.00     0.170 HD
HETATM   25  S2  UNL     1      35.348  -2.110   8.233  1.00  0.00    -0.079 SA
ENDROOT
TORSDOF 0
ENDMDL
