MODEL 1
REMARK VINA RESULT: -8.191140326      0.000      0.000
REMARK  11 active torsions:
REMARK  status: ('A' for Active; 'I' for Inactive)
REMARK    1  A    between atoms: C11_11  and  O1_12 
REMARK    2  A    between atoms: C23_26  and  C24_27 
REMARK    3  A    between atoms: C24_27  and  C25_29 
REMARK    4  A    between atoms: C25_29  and  C26_30 
REMARK    5  A    between atoms: C26_30  and  O4_32 
REMARK    6  A    between atoms: O4_32  and  C27_33 
REMARK    7  A    between atoms: C27_33  and  C28_34 
REMARK    8  A    between atoms: C28_34  and  C29_35 
REMARK    9  A    between atoms: C29_35  and  C30_36 
REMARK   10  A    between atoms: C30_36  and  C31_37 
REMARK   11  A    between atoms: C31_37  and  N1_38 
ROOT
HETATM    1  C1  UNL     1      46.371  10.883  -1.116  1.00  0.00     0.015 C 
HETATM    2  C2  UNL     1      45.799  10.535   0.204  1.00  0.00    -0.039 C 
HETATM    3  C3  UNL     1      45.343   9.097   0.310  1.00  0.00     0.010 C 
HETATM    4  C4  UNL     1      46.590   8.216   0.395  1.00  0.00     0.007 C 
HETATM    5  C5  UNL     1      47.362   8.554   1.638  1.00  0.00     0.003 C 
HETATM    6  C6  UNL     1      47.844  10.018   1.587  1.00  0.00    -0.001 C 
HETATM    7  C7  UNL     1      48.945  10.165   0.622  1.00  0.00     0.033 C 
HETATM    8  C8  UNL     1      50.054   9.267   1.049  1.00  0.00    -0.023 C 
HETATM    9  C9  UNL     1      49.809   8.132   1.672  1.00  0.00    -0.072 C 
HETATM   10  C10 UNL     1      50.961   7.286   2.068  1.00  0.00     0.067 C 
HETATM   11  C11 UNL     1      50.753   5.954   1.390  1.00  0.00     0.130 C 
HETATM   12  C12 UNL     1      49.417   5.332   1.617  1.00  0.00    -0.013 C 
HETATM   13  C13 UNL     1      49.468   4.553   2.904  1.00  0.00     0.013 C 
HETATM   14  C14 UNL     1      48.307   3.633   3.118  1.00  0.00     0.021 C 
HETATM   15  C15 UNL     1      48.255   2.637   1.990  1.00  0.00     0.082 C 
HETATM   16 CL1  UNL     1      46.960   1.439   2.200  1.00  0.00    -0.125 Cl
HETATM   17  C16 UNL     1      48.055   3.435   0.713  1.00  0.00     0.021 C 
HETATM   18  C17 UNL     1      49.280   4.265   0.512  1.00  0.00     0.013 C 
HETATM   19  C18 UNL     1      48.238   6.229   1.472  1.00  0.00     0.026 C 
HETATM   20  C19 UNL     1      48.448   7.619   2.013  1.00  0.00    -0.016 C 
HETATM   21  C20 UNL     1      48.390   7.499   3.547  1.00  0.00     0.020 C 
HETATM   22  C21 UNL     1      46.631  10.807   1.407  1.00  0.00    -0.001 C 
HETATM   23  C22 UNL     1      46.687  12.289   1.466  1.00  0.00     0.018 C 
HETATM   24  C23 UNL     1      45.162  12.545   1.430  1.00  0.00     0.057 C 
HETATM   25  C32 UNL     1      44.641  11.516   0.450  1.00  0.00     0.021 C 
ENDROOT
BRANCH  24  26
HETATM   26  C24 UNL     1      44.814  13.921   1.142  1.00  0.00     0.140 C 
HETATM   27  O2  UNL     1      44.916  14.382   0.029  1.00  0.00    -0.297 OA
BRANCH  26  28
HETATM   28  C25 UNL     1      44.318  14.793   2.232  1.00  0.00     0.189 C 
BRANCH  28  29
HETATM   29  C26 UNL     1      44.208  16.203   1.704  1.00  0.00     0.265 C 
HETATM   30  O3  UNL     1      43.314  16.498   0.870  1.00  0.00    -0.265 OA
BRANCH  29  31
HETATM   31  O4  UNL     1      45.073  17.192   2.121  1.00  0.00    -0.321 OA
BRANCH  31  32
HETATM   32  C27 UNL     1      45.615  17.317   3.402  1.00  0.00     0.178 C 
BRANCH  32  33
HETATM   33  C28 UNL     1      47.103  17.534   3.446  1.00  0.00     0.027 C 
BRANCH  33  34
HETATM   34  C29 UNL     1      47.776  16.420   4.250  1.00  0.00     0.004 C 
BRANCH  34  35
HETATM   35  C30 UNL     1      47.389  15.080   3.681  1.00  0.00     0.027 C 
BRANCH  35  36
HETATM   36  C31 UNL     1      46.937  14.171   4.811  1.00  0.00     0.229 C 
BRANCH  36  37
HETATM   37  N1  UNL     1      45.938  14.794   5.641  1.00  0.00    -0.079 N 
ATOM     38  H13 UNL     1      46.362  15.259   6.443  1.00  0.00     0.274 HD
ATOM     39  H12 UNL     1      45.529  15.606   5.180  1.00  0.00     0.274 HD
ATOM     40  H11 UNL     1      45.218  14.134   5.935  1.00  0.00     0.274 HD
ENDBRANCH  36  37
ENDBRANCH  35  36
ENDBRANCH  34  35
ENDBRANCH  33  34
ENDBRANCH  32  33
ENDBRANCH  31  32
ENDBRANCH  29  31
ENDBRANCH  28  29
ENDBRANCH  26  28
ENDBRANCH  24  26
BRANCH  11  41
HETATM   41  O1  UNL     1      50.867   6.175   0.000  1.00  0.00    -0.394 OA
ATOM     42  H1  UNL     1      51.743   6.505  -0.158  1.00  0.00     0.210 HD
ENDBRANCH  11  41
TORSDOF 11
ENDMDL
MODEL 2
REMARK VINA RESULT: -7.720169635      4.507      6.979
REMARK  11 active torsions:
REMARK  status: ('A' for Active; 'I' for Inactive)
REMARK    1  A    between atoms: C11_11  and  O1_12 
REMARK    2  A    between atoms: C23_26  and  C24_27 
REMARK    3  A    between atoms: C24_27  and  C25_29 
REMARK    4  A    between atoms: C25_29  and  C26_30 
REMARK    5  A    between atoms: C26_30  and  O4_32 
REMARK    6  A    between atoms: O4_32  and  C27_33 
REMARK    7  A    between atoms: C27_33  and  C28_34 
REMARK    8  A    between atoms: C28_34  and  C29_35 
REMARK    9  A    between atoms: C29_35  and  C30_36 
REMARK   10  A    between atoms: C30_36  and  C31_37 
REMARK   11  A    between atoms: C31_37  and  N1_38 
ROOT
HETATM    1  C1  UNL     1      47.383   9.584   0.631  1.00  0.00     0.015 C 
HETATM    2  C2  UNL     1      46.915  10.832  -0.013  1.00  0.00    -0.039 C 
HETATM    3  C3  UNL     1      47.192  10.891  -1.499  1.00  0.00     0.010 C 
HETATM    4  C4  UNL     1      46.222   9.934  -2.193  1.00  0.00     0.007 C 
HETATM    5  C5  UNL     1      44.810  10.391  -1.962  1.00  0.00     0.003 C 
HETATM    6  C6  UNL     1      44.478  10.360  -0.456  1.00  0.00    -0.001 C 
HETATM    7  C7  UNL     1      44.317   8.973   0.008  1.00  0.00     0.033 C 
HETATM    8  C8  UNL     1      43.218   8.348  -0.780  1.00  0.00    -0.023 C 
HETATM    9  C9  UNL     1      42.987   8.706  -2.027  1.00  0.00    -0.072 C 
HETATM   10  C10 UNL     1      41.877   8.042  -2.753  1.00  0.00     0.067 C 
HETATM   11  C11 UNL     1      42.499   7.398  -3.968  1.00  0.00     0.130 C 
HETATM   12  C12 UNL     1      43.335   8.306  -4.804  1.00  0.00    -0.013 C 
HETATM   13  C13 UNL     1      42.434   9.023  -5.774  1.00  0.00     0.013 C 
HETATM   14  C14 UNL     1      43.153   9.740  -6.874  1.00  0.00     0.021 C 
HETATM   15  C15 UNL     1      43.961   8.744  -7.663  1.00  0.00     0.082 C 
HETATM   16 CL1  UNL     1      44.784   9.485  -9.052  1.00  0.00    -0.125 Cl
HETATM   17  C16 UNL     1      44.965   8.137  -6.698  1.00  0.00     0.021 C 
HETATM   18  C17 UNL     1      44.191   7.367  -5.679  1.00  0.00     0.013 C 
HETATM   19  C18 UNL     1      44.295   9.179  -4.075  1.00  0.00     0.026 C 
HETATM   20  C19 UNL     1      43.764   9.736  -2.780  1.00  0.00    -0.016 C 
HETATM   21  C20 UNL     1      42.771  10.849  -3.164  1.00  0.00     0.020 C 
HETATM   22  C21 UNL     1      45.487  11.207   0.169  1.00  0.00    -0.001 C 
HETATM   23  C22 UNL     1      45.394  11.540   1.613  1.00  0.00     0.018 C 
HETATM   24  C23 UNL     1      46.540  12.577   1.649  1.00  0.00     0.057 C 
HETATM   25  C32 UNL     1      47.595  11.991   0.735  1.00  0.00     0.021 C 
ENDROOT
BRANCH  24  26
HETATM   26  C24 UNL     1      46.981  12.905   2.989  1.00  0.00     0.140 C 
HETATM   27  O2  UNL     1      47.080  12.062   3.849  1.00  0.00    -0.297 OA
BRANCH  26  28
HETATM   28  C25 UNL     1      47.322  14.307   3.323  1.00  0.00     0.189 C 
BRANCH  28  29
HETATM   29  C26 UNL     1      46.256  14.852   4.244  1.00  0.00     0.265 C 
HETATM   30  O3  UNL     1      46.410  14.801   5.491  1.00  0.00    -0.265 OA
BRANCH  29  31
HETATM   31  O4  UNL     1      45.102  15.416   3.745  1.00  0.00    -0.321 OA
BRANCH  31  32
HETATM   32  C27 UNL     1      45.014  16.634   3.067  1.00  0.00     0.178 C 
BRANCH  32  33
HETATM   33  C28 UNL     1      44.541  16.536   1.641  1.00  0.00     0.027 C 
BRANCH  33  34
HETATM   34  C29 UNL     1      44.378  15.069   1.239  1.00  0.00     0.004 C 
BRANCH  34  35
HETATM   35  C30 UNL     1      44.383  14.951  -0.263  1.00  0.00     0.027 C 
BRANCH  35  36
HETATM   36  C31 UNL     1      43.716  16.178  -0.861  1.00  0.00     0.229 C 
BRANCH  36  37
HETATM   37  N1  UNL     1      42.546  15.839  -1.628  1.00  0.00    -0.079 N 
ATOM     38  H13 UNL     1      42.799  15.443  -2.533  1.00  0.00     0.274 HD
ATOM     39  H12 UNL     1      42.063  15.034  -1.230  1.00  0.00     0.274 HD
ATOM     40  H11 UNL     1      41.914  16.632  -1.736  1.00  0.00     0.274 HD
ENDBRANCH  36  37
ENDBRANCH  35  36
ENDBRANCH  34  35
ENDBRANCH  33  34
ENDBRANCH  32  33
ENDBRANCH  31  32
ENDBRANCH  29  31
ENDBRANCH  28  29
ENDBRANCH  26  28
ENDBRANCH  24  26
BRANCH  11  41
HETATM   41  O1  UNL     1      43.353   6.375  -3.502  1.00  0.00    -0.394 OA
ATOM     42  H1  UNL     1      44.188   6.491  -3.937  1.00  0.00     0.210 HD
ENDBRANCH  11  41
TORSDOF 11
ENDMDL
MODEL 3
REMARK VINA RESULT: -7.643943977      4.343      6.085
REMARK  11 active torsions:
REMARK  status: ('A' for Active; 'I' for Inactive)
REMARK    1  A    between atoms: C11_11  and  O1_12 
REMARK    2  A    between atoms: C23_26  and  C24_27 
REMARK    3  A    between atoms: C24_27  and  C25_29 
REMARK    4  A    between atoms: C25_29  and  C26_30 
REMARK    5  A    between atoms: C26_30  and  O4_32 
REMARK    6  A    between atoms: O4_32  and  C27_33 
REMARK    7  A    between atoms: C27_33  and  C28_34 
REMARK    8  A    between atoms: C28_34  and  C29_35 
REMARK    9  A    between atoms: C29_35  and  C30_36 
REMARK   10  A    between atoms: C30_36  and  C31_37 
REMARK   11  A    between atoms: C31_37  and  N1_38 
ROOT
HETATM    1  C1  UNL     1      46.654  10.988   2.944  1.00  0.00     0.015 C 
HETATM    2  C2  UNL     1      47.125  12.057   2.033  1.00  0.00    -0.039 C 
HETATM    3  C3  UNL     1      48.241  11.621   1.110  1.00  0.00     0.010 C 
HETATM    4  C4  UNL     1      47.636  10.706   0.045  1.00  0.00     0.007 C 
HETATM    5  C5  UNL     1      46.631  11.471  -0.766  1.00  0.00     0.003 C 
HETATM    6  C6  UNL     1      45.472  11.949   0.132  1.00  0.00    -0.001 C 
HETATM    7  C7  UNL     1      44.608  10.817   0.505  1.00  0.00     0.033 C 
HETATM    8  C8  UNL     1      44.078  10.210  -0.748  1.00  0.00    -0.023 C 
HETATM    9  C9  UNL     1      44.784  10.222  -1.860  1.00  0.00    -0.072 C 
HETATM   10  C10 UNL     1      44.197   9.599  -3.071  1.00  0.00     0.067 C 
HETATM   11  C11 UNL     1      45.162   8.519  -3.495  1.00  0.00     0.130 C 
HETATM   12  C12 UNL     1      46.577   8.963  -3.648  1.00  0.00    -0.013 C 
HETATM   13  C13 UNL     1      46.752   9.521  -5.035  1.00  0.00     0.013 C 
HETATM   14  C14 UNL     1      48.178   9.731  -5.443  1.00  0.00     0.021 C 
HETATM   15  C15 UNL     1      48.902   8.412  -5.394  1.00  0.00     0.082 C 
HETATM   16 CL1  UNL     1      50.584   8.540  -5.949  1.00  0.00    -0.125 Cl
HETATM   17  C16 UNL     1      48.841   7.936  -3.952  1.00  0.00     0.021 C 
HETATM   18  C17 UNL     1      47.407   7.663  -3.636  1.00  0.00     0.013 C 
HETATM   19  C18 UNL     1      47.125   9.812  -2.555  1.00  0.00     0.026 C 
HETATM   20  C19 UNL     1      46.147  10.816  -2.003  1.00  0.00    -0.016 C 
HETATM   21  C20 UNL     1      46.036  11.935  -3.056  1.00  0.00     0.020 C 
HETATM   22  C21 UNL     1      46.109  12.733   1.183  1.00  0.00    -0.001 C 
HETATM   23  C22 UNL     1      45.283  13.488   2.159  1.00  0.00     0.018 C 
HETATM   24  C23 UNL     1      46.439  14.252   2.846  1.00  0.00     0.057 C 
HETATM   25  C32 UNL     1      47.555  13.232   2.927  1.00  0.00     0.021 C 
ENDROOT
BRANCH  24  26
HETATM   26  C24 UNL     1      46.060  14.869   4.100  1.00  0.00     0.140 C 
HETATM   27  O2  UNL     1      46.477  14.464   5.159  1.00  0.00    -0.297 OA
BRANCH  26  28
HETATM   28  C25 UNL     1      45.137  16.028   4.093  1.00  0.00     0.189 C 
BRANCH  28  29
HETATM   29  C26 UNL     1      45.643  17.035   3.088  1.00  0.00     0.265 C 
HETATM   30  O3  UNL     1      46.753  17.599   3.261  1.00  0.00    -0.265 OA
BRANCH  29  31
HETATM   31  O4  UNL     1      44.909  17.355   1.967  1.00  0.00    -0.321 OA
BRANCH  31  32
HETATM   32  C27 UNL     1      44.101  16.477   1.240  1.00  0.00     0.178 C 
BRANCH  32  33
HETATM   33  C28 UNL     1      44.425  16.380  -0.226  1.00  0.00     0.027 C 
BRANCH  33  34
HETATM   34  C29 UNL     1      44.024  15.005  -0.765  1.00  0.00     0.004 C 
BRANCH  34  35
HETATM   35  C30 UNL     1      43.485  15.147  -2.164  1.00  0.00     0.027 C 
BRANCH  35  36
HETATM   36  C31 UNL     1      42.552  16.345  -2.220  1.00  0.00     0.229 C 
BRANCH  36  37
HETATM   37  N1  UNL     1      41.213  16.009  -1.807  1.00  0.00    -0.079 N 
ATOM     38  H13 UNL     1      41.179  15.083  -1.382  1.00  0.00     0.274 HD
ATOM     39  H12 UNL     1      40.925  16.566  -1.003  1.00  0.00     0.274 HD
ATOM     40  H11 UNL     1      40.544  16.090  -2.572  1.00  0.00     0.274 HD
ENDBRANCH  36  37
ENDBRANCH  35  36
ENDBRANCH  34  35
ENDBRANCH  33  34
ENDBRANCH  32  33
ENDBRANCH  31  32
ENDBRANCH  29  31
ENDBRANCH  28  29
ENDBRANCH  26  28
ENDBRANCH  24  26
BRANCH  11  41
HETATM   41  O1  UNL     1      45.153   7.535  -2.483  1.00  0.00    -0.394 OA
ATOM     42  H1  UNL     1      45.768   7.817  -1.817  1.00  0.00     0.210 HD
ENDBRANCH  11  41
TORSDOF 11
ENDMDL
MODEL 4
REMARK VINA RESULT: -7.637411745      2.247      3.317
REMARK  11 active torsions:
REMARK  status: ('A' for Active; 'I' for Inactive)
REMARK    1  A    between atoms: C11_11  and  O1_12 
REMARK    2  A    between atoms: C23_26  and  C24_27 
REMARK    3  A    between atoms: C24_27  and  C25_29 
REMARK    4  A    between atoms: C25_29  and  C26_30 
REMARK    5  A    between atoms: C26_30  and  O4_32 
REMARK    6  A    between atoms: O4_32  and  C27_33 
REMARK    7  A    between atoms: C27_33  and  C28_34 
REMARK    8  A    between atoms: C28_34  and  C29_35 
REMARK    9  A    between atoms: C29_35  and  C30_36 
REMARK   10  A    between atoms: C30_36  and  C31_37 
REMARK   11  A    between atoms: C31_37  and  N1_38 
ROOT
HETATM    1  C1  UNL     1      44.540  11.077   0.974  1.00  0.00     0.015 C 
HETATM    2  C2  UNL     1      45.860  11.687   0.694  1.00  0.00    -0.039 C 
HETATM    3  C3  UNL     1      46.857  11.524   1.819  1.00  0.00     0.010 C 
HETATM    4  C4  UNL     1      47.312  10.064   1.833  1.00  0.00     0.007 C 
HETATM    5  C5  UNL     1      48.007   9.741   0.542  1.00  0.00     0.003 C 
HETATM    6  C6  UNL     1      47.035   9.902  -0.645  1.00  0.00    -0.001 C 
HETATM    7  C7  UNL     1      46.058   8.801  -0.663  1.00  0.00     0.033 C 
HETATM    8  C8  UNL     1      46.810   7.520  -0.777  1.00  0.00    -0.023 C 
HETATM    9  C9  UNL     1      48.011   7.388  -0.252  1.00  0.00    -0.072 C 
HETATM   10  C10 UNL     1      48.702   6.084  -0.401  1.00  0.00     0.067 C 
HETATM   11  C11 UNL     1      48.987   5.599   0.999  1.00  0.00     0.130 C 
HETATM   12  C12 UNL     1      49.689   6.579   1.875  1.00  0.00    -0.013 C 
HETATM   13  C13 UNL     1      51.171   6.449   1.640  1.00  0.00     0.013 C 
HETATM   14  C14 UNL     1      52.023   7.149   2.653  1.00  0.00     0.021 C 
HETATM   15  C15 UNL     1      51.732   6.580   4.016  1.00  0.00     0.082 C 
HETATM   16 CL1  UNL     1      52.762   7.284   5.280  1.00  0.00    -0.125 Cl
HETATM   17  C16 UNL     1      50.264   6.853   4.297  1.00  0.00     0.021 C 
HETATM   18  C17 UNL     1      49.469   6.061   3.311  1.00  0.00     0.013 C 
HETATM   19  C18 UNL     1      49.171   7.974   1.856  1.00  0.00     0.026 C 
HETATM   20  C19 UNL     1      48.742   8.455   0.494  1.00  0.00    -0.016 C 
HETATM   21  C20 UNL     1      50.037   8.739  -0.291  1.00  0.00     0.020 C 
HETATM   22  C21 UNL     1      46.557  11.276  -0.554  1.00  0.00    -0.001 C 
HETATM   23  C22 UNL     1      45.709  11.844  -1.633  1.00  0.00     0.018 C 
HETATM   24  C23 UNL     1      45.698  13.305  -1.124  1.00  0.00     0.057 C 
HETATM   25  C32 UNL     1      45.598  13.170   0.380  1.00  0.00     0.021 C 
ENDROOT
BRANCH  24  26
HETATM   26  C24 UNL     1      44.685  14.128  -1.751  1.00  0.00     0.140 C 
HETATM   27  O2  UNL     1      43.714  13.644  -2.284  1.00  0.00    -0.297 OA
BRANCH  26  28
HETATM   28  C25 UNL     1      44.833  15.602  -1.743  1.00  0.00     0.189 C 
BRANCH  28  29
HETATM   29  C26 UNL     1      43.930  16.167  -0.673  1.00  0.00     0.265 C 
HETATM   30  O3  UNL     1      42.681  16.085  -0.791  1.00  0.00    -0.265 OA
BRANCH  29  31
HETATM   31  O4  UNL     1      44.447  16.778   0.449  1.00  0.00    -0.321 OA
BRANCH  31  32
HETATM   32  C27 UNL     1      44.267  16.352   1.768  1.00  0.00     0.178 C 
BRANCH  32  33
HETATM   33  C28 UNL     1      45.486  16.466   2.645  1.00  0.00     0.027 C 
BRANCH  33  34
HETATM   34  C29 UNL     1      45.749  15.137   3.356  1.00  0.00     0.004 C 
BRANCH  34  35
HETATM   35  C30 UNL     1      47.192  15.070   3.785  1.00  0.00     0.027 C 
BRANCH  35  36
HETATM   36  C31 UNL     1      47.807  16.455   3.682  1.00  0.00     0.229 C 
BRANCH  36  37
HETATM   37  N1  UNL     1      48.639  16.765   4.816  1.00  0.00    -0.079 N 
ATOM     38  H13 UNL     1      49.564  16.347   4.721  1.00  0.00     0.274 HD
ATOM     39  H12 UNL     1      48.907  17.749   4.820  1.00  0.00     0.274 HD
ATOM     40  H11 UNL     1      48.202  16.497   5.697  1.00  0.00     0.274 HD
ENDBRANCH  36  37
ENDBRANCH  35  36
ENDBRANCH  34  35
ENDBRANCH  33  34
ENDBRANCH  32  33
ENDBRANCH  31  32
ENDBRANCH  29  31
ENDBRANCH  28  29
ENDBRANCH  26  28
ENDBRANCH  24  26
BRANCH  11  41
HETATM   41  O1  UNL     1      47.740   5.334   1.606  1.00  0.00    -0.394 OA
ATOM     42  H1  UNL     1      47.921   4.974   2.466  1.00  0.00     0.210 HD
ENDBRANCH  11  41
TORSDOF 11
ENDMDL
MODEL 5
REMARK VINA RESULT: -7.562987874      1.210      1.411
REMARK  11 active torsions:
REMARK  status: ('A' for Active; 'I' for Inactive)
REMARK    1  A    between atoms: C11_11  and  O1_12 
REMARK    2  A    between atoms: C23_26  and  C24_27 
REMARK    3  A    between atoms: C24_27  and  C25_29 
REMARK    4  A    between atoms: C25_29  and  C26_30 
REMARK    5  A    between atoms: C26_30  and  O4_32 
REMARK    6  A    between atoms: O4_32  and  C27_33 
REMARK    7  A    between atoms: C27_33  and  C28_34 
REMARK    8  A    between atoms: C28_34  and  C29_35 
REMARK    9  A    between atoms: C29_35  and  C30_36 
REMARK   10  A    between atoms: C30_36  and  C31_37 
REMARK   11  A    between atoms: C31_37  and  N1_38 
ROOT
HETATM    1  C1  UNL     1      47.238  10.659  -0.478  1.00  0.00     0.015 C 
HETATM    2  C2  UNL     1      46.501  10.173   0.711  1.00  0.00    -0.039 C 
HETATM    3  C3  UNL     1      45.844   8.825   0.512  1.00  0.00     0.010 C 
HETATM    4  C4  UNL     1      46.946   7.764   0.513  1.00  0.00     0.007 C 
HETATM    5  C5  UNL     1      47.635   7.755   1.847  1.00  0.00     0.003 C 
HETATM    6  C6  UNL     1      48.316   9.114   2.107  1.00  0.00    -0.001 C 
HETATM    7  C7  UNL     1      49.513   9.261   1.264  1.00  0.00     0.033 C 
HETATM    8  C8  UNL     1      50.444   8.143   1.588  1.00  0.00    -0.023 C 
HETATM    9  C9  UNL     1      49.987   6.967   1.967  1.00  0.00    -0.072 C 
HETATM   10  C10 UNL     1      50.970   5.899   2.273  1.00  0.00     0.067 C 
HETATM   11  C11 UNL     1      50.647   4.755   1.343  1.00  0.00     0.130 C 
HETATM   12  C12 UNL     1      49.223   4.314   1.356  1.00  0.00    -0.013 C 
HETATM   13  C13 UNL     1      49.044   3.320   2.473  1.00  0.00     0.013 C 
HETATM   14  C14 UNL     1      47.753   2.564   2.430  1.00  0.00     0.021 C 
HETATM   15  C15 UNL     1      47.672   1.803   1.133  1.00  0.00     0.082 C 
HETATM   16 CL1  UNL     1      46.212   0.799   1.024  1.00  0.00    -0.125 Cl
HETATM   17  C16 UNL     1      47.705   2.836   0.020  1.00  0.00     0.021 C 
HETATM   18  C17 UNL     1      49.046   3.493   0.063  1.00  0.00     0.013 C 
HETATM   19  C18 UNL     1      48.196   5.391   1.304  1.00  0.00     0.026 C 
HETATM   20  C19 UNL     1      48.543   6.614   2.111  1.00  0.00    -0.016 C 
HETATM   21  C20 UNL     1      48.324   6.235   3.587  1.00  0.00     0.020 C 
HETATM   22  C21 UNL     1      47.245  10.097   1.997  1.00  0.00    -0.001 C 
HETATM   23  C22 UNL     1      47.498  11.520   2.340  1.00  0.00     0.018 C 
HETATM   24  C23 UNL     1      46.033  12.007   2.249  1.00  0.00     0.057 C 
HETATM   25  C32 UNL     1      45.470  11.259   1.059  1.00  0.00     0.021 C 
ENDROOT
BRANCH  24  26
HETATM   26  C24 UNL     1      45.904  13.449   2.203  1.00  0.00     0.140 C 
HETATM   27  O2  UNL     1      46.665  14.173   2.802  1.00  0.00    -0.297 OA
BRANCH  26  28
HETATM   28  C25 UNL     1      44.818  14.061   1.405  1.00  0.00     0.189 C 
BRANCH  28  29
HETATM   29  C26 UNL     1      44.264  15.237   2.174  1.00  0.00     0.265 C 
HETATM   30  O3  UNL     1      43.697  15.058   3.282  1.00  0.00    -0.265 OA
BRANCH  29  31
HETATM   31  O4  UNL     1      44.367  16.522   1.686  1.00  0.00    -0.321 OA
BRANCH  31  32
HETATM   32  C27 UNL     1      45.417  17.409   1.936  1.00  0.00     0.178 C 
BRANCH  32  33
HETATM   33  C28 UNL     1      45.764  17.591   3.389  1.00  0.00     0.027 C 
BRANCH  33  34
HETATM   34  C29 UNL     1      47.247  17.293   3.619  1.00  0.00     0.004 C 
BRANCH  34  35
HETATM   35  C30 UNL     1      47.450  16.787   5.023  1.00  0.00     0.027 C 
BRANCH  35  36
HETATM   36  C31 UNL     1      46.111  16.352   5.595  1.00  0.00     0.229 C 
BRANCH  36  37
HETATM   37  N1  UNL     1      45.952  14.921   5.572  1.00  0.00    -0.079 N 
ATOM     38  H13 UNL     1      46.062  14.552   4.628  1.00  0.00     0.274 HD
ATOM     39  H12 UNL     1      46.740  14.454   6.020  1.00  0.00     0.274 HD
ATOM     40  H11 UNL     1      45.066  14.627   5.983  1.00  0.00     0.274 HD
ENDBRANCH  36  37
ENDBRANCH  35  36
ENDBRANCH  34  35
ENDBRANCH  33  34
ENDBRANCH  32  33
ENDBRANCH  31  32
ENDBRANCH  29  31
ENDBRANCH  28  29
ENDBRANCH  26  28
ENDBRANCH  24  26
BRANCH  11  41
HETATM   41  O1  UNL     1      50.921   5.199   0.031  1.00  0.00    -0.394 OA
ATOM     42  H1  UNL     1      50.085   5.374  -0.383  1.00  0.00     0.210 HD
ENDBRANCH  11  41
TORSDOF 11
ENDMDL
