MODEL 1
REMARK VINA RESULT: -6.823429907      0.000      0.000
REMARK  9 active torsions:
REMARK  status: ('A' for Active; 'I' for Inactive)
REMARK    1  A    between atoms: C2_2  and  C3_3 
REMARK    2  A    between atoms: C5_5  and  C6_6 
REMARK    3  A    between atoms: C10_11  and  O2_12 
REMARK    4  A    between atoms: O2_12  and  C11_13 
REMARK    5  A    between atoms: C11_13  and  C12_15 
REMARK    6  A    between atoms: C12_15  and  C13_16 
REMARK    7  A    between atoms: C12_15  and  C14_18 
REMARK    8  A    between atoms: C14_18  and  O4_20 
REMARK    9  A    between atoms: C24_30  and  O5_31 
ROOT
HETATM    1  C6  UNL     1      43.898  13.867  -3.148  1.00  0.00     0.094 C 
HETATM    2  O1  UNL     1      43.610  15.198  -3.426  1.00  0.00    -0.362 OA
HETATM    3  C7  UNL     1      43.796  16.008  -2.350  1.00  0.00     0.083 C 
HETATM    4  C8  UNL     1      44.663  17.185  -2.778  1.00  0.00     0.048 C 
HETATM    5  C9  UNL     1      42.501  16.693  -1.971  1.00  0.00     0.048 C 
HETATM    6  C10 UNL     1      44.396  15.183  -1.239  1.00  0.00     0.177 C 
HETATM    7  C16 UNL     1      44.854  13.914  -1.917  1.00  0.00     0.028 C 
HETATM    8  C17 UNL     1      46.259  14.241  -2.410  1.00  0.00     0.022 C 
HETATM    9  C18 UNL     1      44.878  12.670  -1.175  1.00  0.00     0.029 C 
HETATM   10  C19 UNL     1      45.247  12.646   0.280  1.00  0.00     0.011 C 
HETATM   11  C20 UNL     1      45.370  11.259   0.861  1.00  0.00     0.011 C 
HETATM   12  C21 UNL     1      45.914  10.188   0.022  1.00  0.00    -0.027 C 
HETATM   13  C22 UNL     1      44.833   9.267  -0.531  1.00  0.00     0.016 C 
HETATM   14  C23 UNL     1      46.760   9.269   0.900  1.00  0.00     0.046 C 
HETATM   15  C24 UNL     1      47.969   9.938   1.450  1.00  0.00     0.141 C 
HETATM   16  C25 UNL     1      48.368  11.151   0.700  1.00  0.00     0.002 C 
HETATM   17  C26 UNL     1      47.820  11.549  -0.423  1.00  0.00    -0.014 C 
HETATM   18  C27 UNL     1      46.718  10.823  -1.090  1.00  0.00     0.004 C 
HETATM   19  C28 UNL     1      47.401   9.772  -1.919  1.00  0.00     0.025 C 
HETATM   20  C29 UNL     1      45.741  11.654  -1.839  1.00  0.00    -0.066 C 
HETATM   21  C30 UNL     1      45.708  11.385  -3.146  1.00  0.00    -0.022 C 
HETATM   22  C31 UNL     1      44.973  11.852  -4.310  1.00  0.00     0.035 C 
HETATM   23  C32 UNL     1      44.465  13.230  -4.353  1.00  0.00     0.024 C 
HETATM   24  C33 UNL     1      45.314  14.152  -5.236  1.00  0.00     0.014 C 
ENDROOT
BRANCH   6  25
HETATM   25  O2  UNL     1      43.935  15.260  -0.011  1.00  0.00    -0.312 OA
BRANCH  25  26
HETATM   26  C11 UNL     1      44.171  16.036   1.094  1.00  0.00     0.267 C 
HETATM   27  O3  UNL     1      43.136  16.662   1.284  1.00  0.00    -0.265 OA
BRANCH  26  28
HETATM   28  C12 UNL     1      45.394  16.106   1.882  1.00  0.00     0.127 C 
BRANCH  28  29
HETATM   29  C13 UNL     1      45.497  17.531   2.438  1.00  0.00     0.132 C 
HETATM   30 CL1  UNL     1      46.782  17.522   3.664  1.00  0.00    -0.130 Cl
ENDBRANCH  28  29
BRANCH  28  31
HETATM   31  C14 UNL     1      45.294  15.186   3.079  1.00  0.00     0.128 C 
HETATM   32  C15 UNL     1      46.403  14.147   3.069  1.00  0.00     0.040 C 
BRANCH  31  33
HETATM   33  O4  UNL     1      44.062  14.504   3.072  1.00  0.00    -0.395 OA
ATOM     34  H4  UNL     1      43.346  15.119   2.966  1.00  0.00     0.210 HD
ENDBRANCH  31  33
ENDBRANCH  28  31
ENDBRANCH  26  28
ENDBRANCH  25  26
ENDBRANCH   6  25
BRANCH   1  35
HETATM   35  C5  UNL     1      42.612  13.208  -2.815  1.00  0.00     0.019 C 
HETATM   36  C3  UNL     1      41.448  13.101  -3.645  1.00  0.00    -0.064 C 
HETATM   37  C4  UNL     1      41.354  11.912  -4.565  1.00  0.00     0.048 C 
BRANCH  36  38
HETATM   38  C2  UNL     1      40.718  14.211  -4.219  1.00  0.00    -0.004 C 
HETATM   39  C1  UNL     1      39.701  14.885  -3.706  1.00  0.00     0.012 C 
ENDBRANCH  36  38
ENDBRANCH   1  35
BRANCH  15  40
HETATM   40  O5  UNL     1      47.900  10.239   2.807  1.00  0.00    -0.392 OA
ATOM     41  H5  UNL     1      48.742  10.352   3.232  1.00  0.00     0.210 HD
ENDBRANCH  15  40
TORSDOF 9
ENDMDL
MODEL 2
REMARK VINA RESULT: -6.380238545      3.691      7.928
REMARK  9 active torsions:
REMARK  status: ('A' for Active; 'I' for Inactive)
REMARK    1  A    between atoms: C2_2  and  C3_3 
REMARK    2  A    between atoms: C5_5  and  C6_6 
REMARK    3  A    between atoms: C10_11  and  O2_12 
REMARK    4  A    between atoms: O2_12  and  C11_13 
REMARK    5  A    between atoms: C11_13  and  C12_15 
REMARK    6  A    between atoms: C12_15  and  C13_16 
REMARK    7  A    between atoms: C12_15  and  C14_18 
REMARK    8  A    between atoms: C14_18  and  O4_20 
REMARK    9  A    between atoms: C24_30  and  O5_31 
ROOT
HETATM    1  C6  UNL     1      45.293  11.859  -1.229  1.00  0.00     0.094 C 
HETATM    2  O1  UNL     1      45.998  10.742  -0.794  1.00  0.00    -0.362 OA
HETATM    3  C7  UNL     1      45.402   9.575  -1.157  1.00  0.00     0.083 C 
HETATM    4  C8  UNL     1      46.447   8.688  -1.823  1.00  0.00     0.048 C 
HETATM    5  C9  UNL     1      45.035   8.764   0.067  1.00  0.00     0.048 C 
HETATM    6  C10 UNL     1      44.228   9.903  -2.045  1.00  0.00     0.177 C 
HETATM    7  C16 UNL     1      44.438  11.348  -2.429  1.00  0.00     0.028 C 
HETATM    8  C17 UNL     1      45.331  11.280  -3.663  1.00  0.00     0.022 C 
HETATM    9  C18 UNL     1      43.294  12.193  -2.705  1.00  0.00     0.029 C 
HETATM   10  C19 UNL     1      42.076  11.644  -3.389  1.00  0.00     0.011 C 
HETATM   11  C20 UNL     1      41.042  12.686  -3.734  1.00  0.00     0.011 C 
HETATM   12  C21 UNL     1      41.492  14.017  -4.152  1.00  0.00    -0.027 C 
HETATM   13  C22 UNL     1      41.371  15.054  -3.043  1.00  0.00     0.016 C 
HETATM   14  C23 UNL     1      40.545  14.529  -5.235  1.00  0.00     0.046 C 
HETATM   15  C24 UNL     1      40.599  13.726  -6.486  1.00  0.00     0.141 C 
HETATM   16  C25 UNL     1      41.836  12.924  -6.622  1.00  0.00     0.002 C 
HETATM   17  C26 UNL     1      42.865  12.993  -5.812  1.00  0.00    -0.014 C 
HETATM   18  C27 UNL     1      42.917  13.898  -4.643  1.00  0.00     0.004 C 
HETATM   19  C28 UNL     1      43.399  15.209  -5.197  1.00  0.00     0.025 C 
HETATM   20  C29 UNL     1      43.684  13.411  -3.469  1.00  0.00    -0.066 C 
HETATM   21  C30 UNL     1      44.734  14.178  -3.165  1.00  0.00    -0.022 C 
HETATM   22  C31 UNL     1      45.783  14.196  -2.158  1.00  0.00     0.035 C 
HETATM   23  C32 UNL     1      46.245  12.937  -1.558  1.00  0.00     0.024 C 
HETATM   24  C33 UNL     1      47.590  12.466  -2.123  1.00  0.00     0.014 C 
ENDROOT
BRANCH   6  25
HETATM   25  O2  UNL     1      43.060   9.331  -1.864  1.00  0.00    -0.312 OA
BRANCH  25  26
HETATM   26  C11 UNL     1      42.376   8.270  -2.400  1.00  0.00     0.267 C 
HETATM   27  O3  UNL     1      42.382   7.403  -1.536  1.00  0.00    -0.265 OA
BRANCH  26  28
HETATM   28  C12 UNL     1      41.768   8.186  -3.722  1.00  0.00     0.127 C 
BRANCH  28  29
HETATM   29  C13 UNL     1      42.298   6.910  -4.386  1.00  0.00     0.132 C 
HETATM   30 CL1  UNL     1      44.054   7.106  -4.569  1.00  0.00    -0.130 Cl
ENDBRANCH  28  29
BRANCH  28  31
HETATM   31  C14 UNL     1      40.271   8.010  -3.594  1.00  0.00     0.128 C 
HETATM   32  C15 UNL     1      39.533   8.774  -4.681  1.00  0.00     0.040 C 
BRANCH  31  33
HETATM   33  O4  UNL     1      39.826   8.492  -2.348  1.00  0.00    -0.395 OA
ATOM     34  H4  UNL     1      38.877   8.533  -2.330  1.00  0.00     0.210 HD
ENDBRANCH  31  33
ENDBRANCH  28  31
ENDBRANCH  26  28
ENDBRANCH  25  26
ENDBRANCH   6  25
BRANCH   1  35
HETATM   35  C5  UNL     1      44.440  12.298  -0.099  1.00  0.00     0.019 C 
HETATM   36  C3  UNL     1      44.864  12.673   1.218  1.00  0.00    -0.064 C 
HETATM   37  C4  UNL     1      45.217  14.119   1.452  1.00  0.00     0.048 C 
BRANCH  36  38
HETATM   38  C2  UNL     1      45.622  11.840   2.128  1.00  0.00    -0.004 C 
HETATM   39  C1  UNL     1      46.911  11.896   2.420  1.00  0.00     0.012 C 
ENDBRANCH  36  38
ENDBRANCH   1  35
BRANCH  15  40
HETATM   40  O5  UNL     1      39.494  12.907  -6.698  1.00  0.00    -0.392 OA
ATOM     41  H5  UNL     1      39.271  12.344  -5.966  1.00  0.00     0.210 HD
ENDBRANCH  15  40
TORSDOF 9
ENDMDL
MODEL 3
REMARK VINA RESULT: -6.184627706      3.902      7.995
REMARK  9 active torsions:
REMARK  status: ('A' for Active; 'I' for Inactive)
REMARK    1  A    between atoms: C2_2  and  C3_3 
REMARK    2  A    between atoms: C5_5  and  C6_6 
REMARK    3  A    between atoms: C10_11  and  O2_12 
REMARK    4  A    between atoms: O2_12  and  C11_13 
REMARK    5  A    between atoms: C11_13  and  C12_15 
REMARK    6  A    between atoms: C12_15  and  C13_16 
REMARK    7  A    between atoms: C12_15  and  C14_18 
REMARK    8  A    between atoms: C14_18  and  O4_20 
REMARK    9  A    between atoms: C24_30  and  O5_31 
ROOT
HETATM    1  C6  UNL     1      45.375  11.874  -1.312  1.00  0.00     0.094 C 
HETATM    2  O1  UNL     1      46.177  10.830  -0.863  1.00  0.00    -0.362 OA
HETATM    3  C7  UNL     1      45.695   9.611  -1.221  1.00  0.00     0.083 C 
HETATM    4  C8  UNL     1      46.822   8.819  -1.873  1.00  0.00     0.048 C 
HETATM    5  C9  UNL     1      45.395   8.778   0.007  1.00  0.00     0.048 C 
HETATM    6  C10 UNL     1      44.502   9.822  -2.119  1.00  0.00     0.177 C 
HETATM    7  C16 UNL     1      44.580  11.278  -2.513  1.00  0.00     0.028 C 
HETATM    8  C17 UNL     1      45.485  11.283  -3.741  1.00  0.00     0.022 C 
HETATM    9  C18 UNL     1      43.365  12.011  -2.804  1.00  0.00     0.029 C 
HETATM   10  C19 UNL     1      42.208  11.347  -3.491  1.00  0.00     0.011 C 
HETATM   11  C20 UNL     1      41.085  12.286  -3.851  1.00  0.00     0.011 C 
HETATM   12  C21 UNL     1      41.413  13.650  -4.277  1.00  0.00    -0.027 C 
HETATM   13  C22 UNL     1      41.190  14.680  -3.177  1.00  0.00     0.016 C 
HETATM   14  C23 UNL     1      40.431  14.065  -5.370  1.00  0.00     0.046 C 
HETATM   15  C24 UNL     1      40.568  13.261  -6.614  1.00  0.00     0.141 C 
HETATM   16  C25 UNL     1      41.875  12.575  -6.736  1.00  0.00     0.002 C 
HETATM   17  C26 UNL     1      42.887  12.745  -5.919  1.00  0.00    -0.014 C 
HETATM   18  C27 UNL     1      42.847  13.660  -4.757  1.00  0.00     0.004 C 
HETATM   19  C28 UNL     1      43.210  15.005  -5.319  1.00  0.00     0.025 C 
HETATM   20  C29 UNL     1      43.647  13.254  -3.574  1.00  0.00    -0.066 C 
HETATM   21  C30 UNL     1      44.619  14.117  -3.270  1.00  0.00    -0.022 C 
HETATM   22  C31 UNL     1      45.655  14.239  -2.257  1.00  0.00     0.035 C 
HETATM   23  C32 UNL     1      46.227  13.033  -1.644  1.00  0.00     0.024 C 
HETATM   24  C33 UNL     1      47.614  12.683  -2.196  1.00  0.00     0.014 C 
ENDROOT
BRANCH   6  25
HETATM   25  O2  UNL     1      43.390   9.146  -1.941  1.00  0.00    -0.312 OA
BRANCH  25  26
HETATM   26  C11 UNL     1      42.927   7.892  -2.245  1.00  0.00     0.267 C 
HETATM   27  O3  UNL     1      42.474   7.445  -1.199  1.00  0.00    -0.265 OA
BRANCH  26  28
HETATM   28  C12 UNL     1      42.965   7.224  -3.539  1.00  0.00     0.127 C 
BRANCH  28  29
HETATM   29  C13 UNL     1      41.805   7.780  -4.373  1.00  0.00     0.132 C 
HETATM   30 CL1  UNL     1      40.825   6.395  -4.897  1.00  0.00    -0.130 Cl
ENDBRANCH  28  29
BRANCH  28  31
HETATM   31  C14 UNL     1      44.234   7.589  -4.276  1.00  0.00     0.128 C 
HETATM   32  C15 UNL     1      43.930   8.385  -5.534  1.00  0.00     0.040 C 
BRANCH  31  33
HETATM   33  O4  UNL     1      44.930   6.426  -4.659  1.00  0.00    -0.395 OA
ATOM     34  H4  UNL     1      45.853   6.511  -4.452  1.00  0.00     0.210 HD
ENDBRANCH  31  33
ENDBRANCH  28  31
ENDBRANCH  26  28
ENDBRANCH  25  26
ENDBRANCH   6  25
BRANCH   1  35
HETATM   35  C5  UNL     1      44.478  12.241  -0.191  1.00  0.00     0.019 C 
HETATM   36  C3  UNL     1      44.855  12.716   1.108  1.00  0.00    -0.064 C 
HETATM   37  C4  UNL     1      45.020  14.203   1.286  1.00  0.00     0.048 C 
BRANCH  36  38
HETATM   38  C2  UNL     1      45.718  12.022   2.040  1.00  0.00    -0.004 C 
HETATM   39  C1  UNL     1      47.004  12.221   2.281  1.00  0.00     0.012 C 
ENDBRANCH  36  38
ENDBRANCH   1  35
BRANCH  15  40
HETATM   40  O5  UNL     1      39.545  12.342  -6.827  1.00  0.00    -0.392 OA
ATOM     41  H5  UNL     1      39.833  11.442  -6.923  1.00  0.00     0.210 HD
ENDBRANCH  15  40
TORSDOF 9
ENDMDL
MODEL 4
REMARK VINA RESULT: -6.083142049      1.714      6.097
REMARK  9 active torsions:
REMARK  status: ('A' for Active; 'I' for Inactive)
REMARK    1  A    between atoms: C2_2  and  C3_3 
REMARK    2  A    between atoms: C5_5  and  C6_6 
REMARK    3  A    between atoms: C10_11  and  O2_12 
REMARK    4  A    between atoms: O2_12  and  C11_13 
REMARK    5  A    between atoms: C11_13  and  C12_15 
REMARK    6  A    between atoms: C12_15  and  C13_16 
REMARK    7  A    between atoms: C12_15  and  C14_18 
REMARK    8  A    between atoms: C14_18  and  O4_20 
REMARK    9  A    between atoms: C24_30  and  O5_31 
ROOT
HETATM    1  C6  UNL     1      46.599  11.615  -0.911  1.00  0.00     0.094 C 
HETATM    2  O1  UNL     1      46.747  10.975   0.314  1.00  0.00    -0.362 OA
HETATM    3  C7  UNL     1      46.241  11.701   1.346  1.00  0.00     0.083 C 
HETATM    4  C8  UNL     1      45.318  10.804   2.161  1.00  0.00     0.048 C 
HETATM    5  C9  UNL     1      47.327  12.027   2.348  1.00  0.00     0.048 C 
HETATM    6  C10 UNL     1      45.556  12.917   0.774  1.00  0.00     0.177 C 
HETATM    7  C16 UNL     1      45.423  12.616  -0.700  1.00  0.00     0.028 C 
HETATM    8  C17 UNL     1      44.110  11.847  -0.806  1.00  0.00     0.022 C 
HETATM    9  C18 UNL     1      45.428  13.701  -1.660  1.00  0.00     0.029 C 
HETATM   10  C19 UNL     1      44.788  15.020  -1.338  1.00  0.00     0.011 C 
HETATM   11  C20 UNL     1      44.749  15.984  -2.497  1.00  0.00     0.011 C 
HETATM   12  C21 UNL     1      44.537  15.457  -3.848  1.00  0.00    -0.027 C 
HETATM   13  C22 UNL     1      45.824  15.385  -4.660  1.00  0.00     0.016 C 
HETATM   14  C23 UNL     1      43.672  16.449  -4.623  1.00  0.00     0.046 C 
HETATM   15  C24 UNL     1      42.297  16.579  -4.071  1.00  0.00     0.141 C 
HETATM   16  C25 UNL     1      41.887  15.435  -3.225  1.00  0.00     0.002 C 
HETATM   17  C26 UNL     1      42.583  14.336  -3.066  1.00  0.00    -0.014 C 
HETATM   18  C27 UNL     1      43.886  14.099  -3.725  1.00  0.00     0.004 C 
HETATM   19  C28 UNL     1      43.532  13.554  -5.081  1.00  0.00     0.025 C 
HETATM   20  C29 UNL     1      44.863  13.275  -2.971  1.00  0.00    -0.066 C 
HETATM   21  C30 UNL     1      45.190  12.138  -3.590  1.00  0.00    -0.022 C 
HETATM   22  C31 UNL     1      46.067  11.005  -3.342  1.00  0.00     0.035 C 
HETATM   23  C32 UNL     1      46.374  10.604  -1.963  1.00  0.00     0.024 C 
HETATM   24  C33 UNL     1      45.594   9.362  -1.515  1.00  0.00     0.014 C 
ENDROOT
BRANCH   6  25
HETATM   25  O2  UNL     1      45.751  14.111   1.286  1.00  0.00    -0.312 OA
BRANCH  25  26
HETATM   26  C11 UNL     1      45.414  14.766   2.442  1.00  0.00     0.267 C 
HETATM   27  O3  UNL     1      44.214  14.991   2.355  1.00  0.00    -0.265 OA
BRANCH  26  28
HETATM   28  C12 UNL     1      46.294  15.122   3.547  1.00  0.00     0.127 C 
BRANCH  28  29
HETATM   29  C13 UNL     1      46.869  16.510   3.241  1.00  0.00     0.132 C 
HETATM   30 CL1  UNL     1      48.524  16.544   3.887  1.00  0.00    -0.130 Cl
ENDBRANCH  28  29
BRANCH  28  31
HETATM   31  C14 UNL     1      45.494  15.264   4.823  1.00  0.00     0.128 C 
HETATM   32  C15 UNL     1      45.231  16.725   5.148  1.00  0.00     0.040 C 
BRANCH  31  33
HETATM   33  O4  UNL     1      46.196  14.700   5.906  1.00  0.00    -0.395 OA
ATOM     34  H4  UNL     1      45.987  13.778   5.990  1.00  0.00     0.210 HD
ENDBRANCH  31  33
ENDBRANCH  28  31
ENDBRANCH  26  28
ENDBRANCH  25  26
ENDBRANCH   6  25
BRANCH   1  35
HETATM   35  C5  UNL     1      47.874  12.319  -1.185  1.00  0.00     0.019 C 
HETATM   36  C3  UNL     1      49.179  11.741  -1.316  1.00  0.00    -0.064 C 
HETATM   37  C4  UNL     1      49.606  11.284  -2.687  1.00  0.00     0.048 C 
BRANCH  36  38
HETATM   38  C2  UNL     1      49.850  10.941  -0.312  1.00  0.00    -0.004 C 
HETATM   39  C1  UNL     1      49.896   9.624  -0.201  1.00  0.00     0.012 C 
ENDBRANCH  36  38
ENDBRANCH   1  35
BRANCH  15  40
HETATM   40  O5  UNL     1      42.055  17.768  -3.387  1.00  0.00    -0.392 OA
ATOM     41  H5  UNL     1      41.409  18.334  -3.792  1.00  0.00     0.210 HD
ENDBRANCH  15  40
TORSDOF 9
ENDMDL
MODEL 5
REMARK VINA RESULT: -6.065500037      2.932      6.365
REMARK  9 active torsions:
REMARK  status: ('A' for Active; 'I' for Inactive)
REMARK    1  A    between atoms: C2_2  and  C3_3 
REMARK    2  A    between atoms: C5_5  and  C6_6 
REMARK    3  A    between atoms: C10_11  and  O2_12 
REMARK    4  A    between atoms: O2_12  and  C11_13 
REMARK    5  A    between atoms: C11_13  and  C12_15 
REMARK    6  A    between atoms: C12_15  and  C13_16 
REMARK    7  A    between atoms: C12_15  and  C14_18 
REMARK    8  A    between atoms: C14_18  and  O4_20 
REMARK    9  A    between atoms: C24_30  and  O5_31 
ROOT
HETATM    1  C6  UNL     1      47.520   9.452  -1.465  1.00  0.00     0.094 C 
HETATM    2  O1  UNL     1      48.290   9.601  -0.317  1.00  0.00    -0.362 OA
HETATM    3  C7  UNL     1      47.673  10.355   0.631  1.00  0.00     0.083 C 
HETATM    4  C8  UNL     1      47.716   9.597   1.952  1.00  0.00     0.048 C 
HETATM    5  C9  UNL     1      48.495  11.586   0.948  1.00  0.00     0.048 C 
HETATM    6  C10 UNL     1      46.276  10.662   0.151  1.00  0.00     0.177 C 
HETATM    7  C16 UNL     1      46.055   9.709  -0.999  1.00  0.00     0.028 C 
HETATM    8  C17 UNL     1      45.530   8.440  -0.336  1.00  0.00     0.022 C 
HETATM    9  C18 UNL     1      45.176  10.086  -2.087  1.00  0.00     0.029 C 
HETATM   10  C19 UNL     1      43.937  10.894  -1.834  1.00  0.00     0.011 C 
HETATM   11  C20 UNL     1      43.058  11.070  -3.048  1.00  0.00     0.011 C 
HETATM   12  C21 UNL     1      42.944   9.965  -4.004  1.00  0.00    -0.027 C 
HETATM   13  C22 UNL     1      43.784  10.183  -5.257  1.00  0.00     0.016 C 
HETATM   14  C23 UNL     1      41.511   9.925  -4.528  1.00  0.00     0.046 C 
HETATM   15  C24 UNL     1      40.514   9.590  -3.476  1.00  0.00     0.141 C 
HETATM   16  C25 UNL     1      41.103   8.917  -2.295  1.00  0.00     0.002 C 
HETATM   17  C26 UNL     1      42.348   8.516  -2.207  1.00  0.00    -0.014 C 
HETATM   18  C27 UNL     1      43.334   8.688  -3.295  1.00  0.00     0.004 C 
HETATM   19  C28 UNL     1      43.125   7.498  -4.190  1.00  0.00     0.025 C 
HETATM   20  C29 UNL     1      44.743   8.900  -2.877  1.00  0.00    -0.066 C 
HETATM   21  C30 UNL     1      45.570   7.938  -3.294  1.00  0.00    -0.022 C 
HETATM   22  C31 UNL     1      46.990   7.641  -3.199  1.00  0.00     0.035 C 
HETATM   23  C32 UNL     1      47.764   8.116  -2.044  1.00  0.00     0.024 C 
HETATM   24  C33 UNL     1      48.052   7.009  -1.023  1.00  0.00     0.014 C 
ENDROOT
BRANCH   6  25
HETATM   25  O2  UNL     1      45.782  11.876   0.232  1.00  0.00    -0.312 OA
BRANCH  25  26
HETATM   26  C11 UNL     1      45.274  12.681   1.219  1.00  0.00     0.267 C 
HETATM   27  O3  UNL     1      44.362  12.043   1.727  1.00  0.00    -0.265 OA
BRANCH  26  28
HETATM   28  C12 UNL     1      45.721  14.017   1.589  1.00  0.00     0.127 C 
BRANCH  28  29
HETATM   29  C13 UNL     1      44.543  14.971   1.360  1.00  0.00     0.132 C 
HETATM   30 CL1  UNL     1      44.203  14.973  -0.383  1.00  0.00    -0.130 Cl
ENDBRANCH  28  29
BRANCH  28  31
HETATM   31  C14 UNL     1      46.031  14.070   3.069  1.00  0.00     0.128 C 
HETATM   32  C15 UNL     1      46.911  15.262   3.405  1.00  0.00     0.040 C 
BRANCH  31  33
HETATM   33  O4  UNL     1      46.712  12.903   3.468  1.00  0.00    -0.395 OA
ATOM     34  H4  UNL     1      47.131  13.038   4.310  1.00  0.00     0.210 HD
ENDBRANCH  31  33
ENDBRANCH  28  31
ENDBRANCH  26  28
ENDBRANCH  25  26
ENDBRANCH   6  25
BRANCH   1  35
HETATM   35  C5  UNL     1      47.976  10.483  -2.427  1.00  0.00     0.019 C 
HETATM   36  C3  UNL     1      49.303  10.675  -2.936  1.00  0.00    -0.064 C 
HETATM   37  C4  UNL     1      49.687   9.922  -4.182  1.00  0.00     0.048 C 
BRANCH  36  38
HETATM   38  C2  UNL     1      50.485  10.914  -2.135  1.00  0.00    -0.004 C 
HETATM   39  C1  UNL     1      51.001  12.070  -1.748  1.00  0.00     0.012 C 
ENDBRANCH  36  38
ENDBRANCH   1  35
BRANCH  15  40
HETATM   40  O5  UNL     1      39.732  10.661  -3.054  1.00  0.00    -0.392 OA
ATOM     41  H5  UNL     1      39.672  10.760  -2.111  1.00  0.00     0.210 HD
ENDBRANCH  15  40
TORSDOF 9
ENDMDL
