MODEL 1
REMARK VINA RESULT: -8.029384749      0.000      0.000
REMARK  8 active torsions:
REMARK  status: ('A' for Active; 'I' for Inactive)
REMARK    1  A    between atoms: N2_8  and  C5_10 
REMARK    2  A    between atoms: C5_10  and  C6_11 
REMARK    3  A    between atoms: C6_11  and  C7_12 
REMARK    4  A    between atoms: C7_12  and  N3_13 
REMARK    5  A    between atoms: C12_18  and  C13_19 
REMARK    6  A    between atoms: C17_25  and  C18_26 
REMARK    7  A    between atoms: C18_26  and  C19_27 
REMARK    8  A    between atoms: C19_27  and  C20_28 
ROOT
HETATM    1  C1  UNL     1      16.156  -4.525  13.941  1.00  0.00     0.032 C 
HETATM    2  C2  UNL     1      16.734  -5.417  13.188  1.00  0.00     0.050 A 
HETATM    3  C3  UNL     1      17.017  -6.666  13.776  1.00  0.00     0.271 A 
HETATM    4  O1  UNL     1      16.714  -6.847  14.993  1.00  0.00    -0.267 OA
HETATM    5  N1  UNL     1      17.590  -7.645  13.076  1.00  0.00    -0.155 N 
ATOM      6  H1  UNL     1      17.783  -8.539  13.528  1.00  0.00     0.187 HD
HETATM    7  C4  UNL     1      17.916  -7.474  11.792  1.00  0.00     0.681 A 
HETATM    8  N2  UNL     1      18.468  -8.434  11.148  1.00  0.00    -0.226 N 
ATOM      9  H2  UNL     1      18.723  -8.318  10.168  1.00  0.00     0.177 HD
HETATM   10  N4  UNL     1      17.652  -6.295  11.234  1.00  0.00    -0.191 N 
ATOM     11  H4  UNL     1      17.905  -6.174  10.254  1.00  0.00     0.184 HD
HETATM   12  C17 UNL     1      17.065  -5.224  11.871  1.00  0.00     0.060 A 
ENDROOT
BRANCH   8  13
HETATM   13  C5  UNL     1      18.724  -9.682  11.827  1.00  0.00     0.139 C 
BRANCH  13  14
HETATM   14  C6  UNL     1      17.868 -10.802  11.276  1.00  0.00     0.040 C 
BRANCH  14  15
HETATM   15  C7  UNL     1      18.524 -12.150  11.478  1.00  0.00     0.130 C 
BRANCH  15  16
HETATM   16  N3  UNL     1      17.955 -13.126  10.588  1.00  0.00    -0.360 N 
HETATM   17  C8  UNL     1      16.723 -12.890  10.070  1.00  0.00     0.091 A 
HETATM   18  C9  UNL     1      16.123 -13.764   9.199  1.00  0.00     0.024 A 
HETATM   19  C10 UNL     1      16.753 -14.924   8.814  1.00  0.00    -0.052 A 
HETATM   20  C11 UNL     1      16.122 -15.865   7.883  1.00  0.00     0.049 C 
HETATM   21  C12 UNL     1      18.002 -15.151   9.348  1.00  0.00    -0.030 A 
HETATM   22  C15 UNL     1      18.584 -14.244  10.231  1.00  0.00     0.014 A 
HETATM   23  C16 UNL     1      19.917 -14.570  10.778  1.00  0.00     0.069 C 
BRANCH  21  24
HETATM   24  C13 UNL     1      18.717 -16.373   8.960  1.00  0.00     0.036 C 
HETATM   25  C14 UNL     1      18.362 -17.539   9.880  1.00  0.00     0.010 C 
ENDBRANCH  21  24
ENDBRANCH  15  16
ENDBRANCH  14  15
ENDBRANCH  13  14
ENDBRANCH   8  13
BRANCH  12  26
HETATM   26  C18 UNL     1      16.916  -4.141  11.190  1.00  0.00     0.010 C 
BRANCH  26  27
HETATM   27  C19 UNL     1      16.439  -3.665   9.925  1.00  0.00     0.088 C 
BRANCH  27  28
HETATM   28  C20 UNL     1      17.487  -3.613   8.863  1.00  0.00     0.030 A 
HETATM   29  C21 UNL     1      18.870  -3.526   9.024  1.00  0.00     0.114 A 
HETATM   30  N5  UNL     1      19.470  -3.495   7.825  1.00  0.00    -0.360 N 
HETATM   31  C22 UNL     1      18.480  -3.561   6.929  1.00  0.00     0.182 A 
ATOM     32  H5  UNL     1      20.470  -3.433   7.636  1.00  0.00     0.166 HD
HETATM   33  N6  UNL     1      17.273  -3.633   7.563  1.00  0.00    -0.349 N 
HETATM   34  C23 UNL     1      16.022  -3.709   6.826  1.00  0.00     0.156 C 
ENDBRANCH  27  28
ENDBRANCH  26  27
ENDBRANCH  12  26
TORSDOF 8
ENDMDL
MODEL 2
REMARK VINA RESULT: -7.926816249      0.624      1.683
REMARK  8 active torsions:
REMARK  status: ('A' for Active; 'I' for Inactive)
REMARK    1  A    between atoms: N2_8  and  C5_10 
REMARK    2  A    between atoms: C5_10  and  C6_11 
REMARK    3  A    between atoms: C6_11  and  C7_12 
REMARK    4  A    between atoms: C7_12  and  N3_13 
REMARK    5  A    between atoms: C12_18  and  C13_19 
REMARK    6  A    between atoms: C17_25  and  C18_26 
REMARK    7  A    between atoms: C18_26  and  C19_27 
REMARK    8  A    between atoms: C19_27  and  C20_28 
ROOT
HETATM    1  C1  UNL     1      16.109  -4.574  13.941  1.00  0.00     0.032 C 
HETATM    2  C2  UNL     1      16.715  -5.454  13.198  1.00  0.00     0.050 A 
HETATM    3  C3  UNL     1      17.059  -6.679  13.806  1.00  0.00     0.271 A 
HETATM    4  O1  UNL     1      16.778  -6.848  15.031  1.00  0.00    -0.267 OA
HETATM    5  N1  UNL     1      17.665  -7.646  13.118  1.00  0.00    -0.155 N 
ATOM      6  H1  UNL     1      17.901  -8.522  13.586  1.00  0.00     0.187 HD
HETATM    7  C4  UNL     1      17.968  -7.487  11.827  1.00  0.00     0.681 A 
HETATM    8  N2  UNL     1      18.552  -8.435  11.196  1.00  0.00    -0.226 N 
ATOM      9  H2  UNL     1      18.791  -8.328  10.210  1.00  0.00     0.177 HD
HETATM   10  N4  UNL     1      17.647  -6.332  11.251  1.00  0.00    -0.191 N 
ATOM     11  H4  UNL     1      17.883  -6.219  10.264  1.00  0.00     0.184 HD
HETATM   12  C17 UNL     1      17.022  -5.274  11.874  1.00  0.00     0.060 A 
ENDROOT
BRANCH   8  13
HETATM   13  C5  UNL     1      18.870  -9.657  11.895  1.00  0.00     0.139 C 
BRANCH  13  14
HETATM   14  C6  UNL     1      19.183 -10.784  10.934  1.00  0.00     0.040 C 
BRANCH  14  15
HETATM   15  C7  UNL     1      17.925 -11.491  10.481  1.00  0.00     0.130 C 
BRANCH  15  16
HETATM   16  N3  UNL     1      18.218 -12.846  10.100  1.00  0.00    -0.360 N 
HETATM   17  C8  UNL     1      19.509 -13.264  10.134  1.00  0.00     0.091 A 
HETATM   18  C9  UNL     1      19.864 -14.548   9.803  1.00  0.00     0.024 A 
HETATM   19  C10 UNL     1      18.917 -15.468   9.421  1.00  0.00    -0.052 A 
HETATM   20  C11 UNL     1      19.284 -16.843   9.067  1.00  0.00     0.049 C 
HETATM   21  C12 UNL     1      17.612 -15.030   9.391  1.00  0.00    -0.030 A 
HETATM   22  C15 UNL     1      17.283 -13.719   9.732  1.00  0.00     0.014 A 
HETATM   23  C16 UNL     1      15.863 -13.320   9.652  1.00  0.00     0.069 C 
BRANCH  21  24
HETATM   24  C13 UNL     1      16.564 -15.980   8.997  1.00  0.00     0.036 C 
HETATM   25  C14 UNL     1      16.090 -15.722   7.569  1.00  0.00     0.010 C 
ENDBRANCH  21  24
ENDBRANCH  15  16
ENDBRANCH  14  15
ENDBRANCH  13  14
ENDBRANCH   8  13
BRANCH  12  26
HETATM   26  C18 UNL     1      16.819  -4.212  11.174  1.00  0.00     0.010 C 
BRANCH  26  27
HETATM   27  C19 UNL     1      16.365  -3.787   9.882  1.00  0.00     0.088 C 
BRANCH  27  28
HETATM   28  C20 UNL     1      17.452  -3.678   8.864  1.00  0.00     0.030 A 
HETATM   29  C21 UNL     1      18.825  -3.577   9.081  1.00  0.00     0.114 A 
HETATM   30  N5  UNL     1      19.470  -3.491   7.908  1.00  0.00    -0.360 N 
HETATM   31  C22 UNL     1      18.515  -3.538   6.973  1.00  0.00     0.182 A 
ATOM     32  H5  UNL     1      20.476  -3.408   7.760  1.00  0.00     0.166 HD
HETATM   33  N6  UNL     1      17.287  -3.651   7.557  1.00  0.00    -0.349 N 
HETATM   34  C23 UNL     1      16.066  -3.718   6.770  1.00  0.00     0.156 C 
ENDBRANCH  27  28
ENDBRANCH  26  27
ENDBRANCH  12  26
TORSDOF 8
ENDMDL
MODEL 3
REMARK VINA RESULT: -7.882656843      1.082      1.329
REMARK  8 active torsions:
REMARK  status: ('A' for Active; 'I' for Inactive)
REMARK    1  A    between atoms: N2_8  and  C5_10 
REMARK    2  A    between atoms: C5_10  and  C6_11 
REMARK    3  A    between atoms: C6_11  and  C7_12 
REMARK    4  A    between atoms: C7_12  and  N3_13 
REMARK    5  A    between atoms: C12_18  and  C13_19 
REMARK    6  A    between atoms: C17_25  and  C18_26 
REMARK    7  A    between atoms: C18_26  and  C19_27 
REMARK    8  A    between atoms: C19_27  and  C20_28 
ROOT
HETATM    1  C1  UNL     1      16.440  -4.739  11.783  1.00  0.00     0.032 C 
HETATM    2  C2  UNL     1      17.035  -5.895  11.857  1.00  0.00     0.050 A 
HETATM    3  C3  UNL     1      16.523  -6.820  12.790  1.00  0.00     0.271 A 
HETATM    4  O1  UNL     1      15.538  -6.475  13.509  1.00  0.00    -0.267 OA
HETATM    5  N1  UNL     1      17.056  -8.034  12.922  1.00  0.00    -0.155 N 
ATOM      6  H1  UNL     1      16.665  -8.683  13.606  1.00  0.00     0.187 HD
HETATM    7  C4  UNL     1      18.094  -8.416  12.173  1.00  0.00     0.681 A 
HETATM    8  N2  UNL     1      18.584  -9.590  12.326  1.00  0.00    -0.226 N 
ATOM      9  H2  UNL     1      19.377  -9.895  11.762  1.00  0.00     0.177 HD
HETATM   10  N4  UNL     1      18.580  -7.545  11.292  1.00  0.00    -0.191 N 
ATOM     11  H4  UNL     1      19.373  -7.846  10.725  1.00  0.00     0.184 HD
HETATM   12  C17 UNL     1      18.102  -6.271  11.082  1.00  0.00     0.060 A 
ENDROOT
BRANCH   8  13
HETATM   13  C5  UNL     1      18.001 -10.474  13.306  1.00  0.00     0.139 C 
BRANCH  13  14
HETATM   14  C6  UNL     1      17.436 -11.723  12.663  1.00  0.00     0.040 C 
BRANCH  14  15
HETATM   15  C7  UNL     1      18.506 -12.499  11.927  1.00  0.00     0.130 C 
BRANCH  15  16
HETATM   16  N3  UNL     1      17.922 -13.293  10.879  1.00  0.00    -0.360 N 
HETATM   17  C8  UNL     1      16.774 -12.857  10.300  1.00  0.00     0.091 A 
HETATM   18  C9  UNL     1      16.169 -13.549   9.281  1.00  0.00     0.024 A 
HETATM   19  C10 UNL     1      16.708 -14.720   8.803  1.00  0.00    -0.052 A 
HETATM   20  C11 UNL     1      16.071 -15.467   7.714  1.00  0.00     0.049 C 
HETATM   21  C12 UNL     1      17.872 -15.150   9.401  1.00  0.00    -0.030 A 
HETATM   22  C15 UNL     1      18.462 -14.425  10.434  1.00  0.00     0.014 A 
HETATM   23  C16 UNL     1      19.698 -14.964  11.038  1.00  0.00     0.069 C 
BRANCH  21  24
HETATM   24  C13 UNL     1      18.489 -16.392   8.918  1.00  0.00     0.036 C 
HETATM   25  C14 UNL     1      17.917 -17.611   9.638  1.00  0.00     0.010 C 
ENDBRANCH  21  24
ENDBRANCH  15  16
ENDBRANCH  14  15
ENDBRANCH  13  14
ENDBRANCH   8  13
BRANCH  12  26
HETATM   26  C18 UNL     1      18.716  -5.544  10.214  1.00  0.00     0.010 C 
BRANCH  26  27
HETATM   27  C19 UNL     1      18.953  -4.175   9.861  1.00  0.00     0.088 C 
BRANCH  27  28
HETATM   28  C20 UNL     1      18.769  -3.884   8.408  1.00  0.00     0.030 A 
HETATM   29  C21 UNL     1      19.747  -3.805   7.417  1.00  0.00     0.114 A 
HETATM   30  N5  UNL     1      19.180  -3.515   6.236  1.00  0.00    -0.360 N 
HETATM   31  C22 UNL     1      17.871  -3.415   6.484  1.00  0.00     0.182 A 
ATOM     32  H5  UNL     1      19.650  -3.396   5.338  1.00  0.00     0.166 HD
HETATM   33  N6  UNL     1      17.622  -3.640   7.807  1.00  0.00    -0.349 N 
HETATM   34  C23 UNL     1      16.276  -3.588   8.355  1.00  0.00     0.156 C 
ENDBRANCH  27  28
ENDBRANCH  26  27
ENDBRANCH  12  26
TORSDOF 8
ENDMDL
MODEL 4
REMARK VINA RESULT: -7.877369638      1.394      1.809
REMARK  8 active torsions:
REMARK  status: ('A' for Active; 'I' for Inactive)
REMARK    1  A    between atoms: N2_8  and  C5_10 
REMARK    2  A    between atoms: C5_10  and  C6_11 
REMARK    3  A    between atoms: C6_11  and  C7_12 
REMARK    4  A    between atoms: C7_12  and  N3_13 
REMARK    5  A    between atoms: C12_18  and  C13_19 
REMARK    6  A    between atoms: C17_25  and  C18_26 
REMARK    7  A    between atoms: C18_26  and  C19_27 
REMARK    8  A    between atoms: C19_27  and  C20_28 
ROOT
HETATM    1  C1  UNL     1      16.051  -6.151  13.342  1.00  0.00     0.032 C 
HETATM    2  C2  UNL     1      17.151  -6.705  12.917  1.00  0.00     0.050 A 
HETATM    3  C3  UNL     1      17.776  -7.630  13.778  1.00  0.00     0.271 A 
HETATM    4  O1  UNL     1      17.250  -7.857  14.909  1.00  0.00    -0.267 OA
HETATM    5  N1  UNL     1      18.895  -8.259  13.421  1.00  0.00    -0.155 N 
ATOM      6  H1  UNL     1      19.324  -8.924  14.065  1.00  0.00     0.187 HD
HETATM    7  C4  UNL     1      19.463  -8.033  12.233  1.00  0.00     0.681 A 
HETATM    8  N2  UNL     1      20.539  -8.653  11.921  1.00  0.00    -0.226 N 
ATOM      9  H2  UNL     1      20.985  -8.490  11.019  1.00  0.00     0.177 HD
HETATM   10  N4  UNL     1      18.876  -7.159  11.419  1.00  0.00    -0.191 N 
ATOM     11  H4  UNL     1      19.318  -6.993  10.515  1.00  0.00     0.184 HD
HETATM   12  C17 UNL     1      17.723  -6.460  11.696  1.00  0.00     0.060 A 
ENDROOT
BRANCH   8  13
HETATM   13  C5  UNL     1      21.114  -9.584  12.862  1.00  0.00     0.139 C 
BRANCH  13  14
HETATM   14  C6  UNL     1      20.900 -11.018  12.429  1.00  0.00     0.040 C 
BRANCH  14  15
HETATM   15  C7  UNL     1      20.767 -11.129  10.927  1.00  0.00     0.130 C 
BRANCH  15  16
HETATM   16  N3  UNL     1      19.547 -11.806  10.577  1.00  0.00    -0.360 N 
HETATM   17  C8  UNL     1      18.374 -11.314  11.052  1.00  0.00     0.091 A 
HETATM   18  C9  UNL     1      17.169 -11.893  10.746  1.00  0.00     0.024 A 
HETATM   19  C10 UNL     1      17.101 -13.003   9.938  1.00  0.00    -0.052 A 
HETATM   20  C11 UNL     1      15.818 -13.629   9.602  1.00  0.00     0.049 C 
HETATM   21  C12 UNL     1      18.299 -13.491   9.463  1.00  0.00    -0.030 A 
HETATM   22  C15 UNL     1      19.508 -12.881   9.793  1.00  0.00     0.014 A 
HETATM   23  C16 UNL     1      20.750 -13.478   9.262  1.00  0.00     0.069 C 
BRANCH  21  24
HETATM   24  C13 UNL     1      18.276 -14.670   8.589  1.00  0.00     0.036 C 
HETATM   25  C14 UNL     1      18.365 -15.962   9.399  1.00  0.00     0.010 C 
ENDBRANCH  21  24
ENDBRANCH  15  16
ENDBRANCH  14  15
ENDBRANCH  13  14
ENDBRANCH   8  13
BRANCH  12  26
HETATM   26  C18 UNL     1      17.312  -5.622  10.807  1.00  0.00     0.010 C 
BRANCH  26  27
HETATM   27  C19 UNL     1      17.348  -4.227  10.476  1.00  0.00     0.088 C 
BRANCH  27  28
HETATM   28  C20 UNL     1      18.031  -3.929   9.182  1.00  0.00     0.030 A 
HETATM   29  C21 UNL     1      19.399  -3.823   8.937  1.00  0.00     0.114 A 
HETATM   30  N5  UNL     1      19.613  -3.537   7.645  1.00  0.00    -0.360 N 
HETATM   31  C22 UNL     1      18.399  -3.465   7.090  1.00  0.00     0.182 A 
ATOM     32  H5  UNL     1      20.512  -3.402   7.182  1.00  0.00     0.166 HD
HETATM   33  N6  UNL     1      17.436  -3.704   8.028  1.00  0.00    -0.349 N 
HETATM   34  C23 UNL     1      16.021  -3.683   7.698  1.00  0.00     0.156 C 
ENDBRANCH  27  28
ENDBRANCH  26  27
ENDBRANCH  12  26
TORSDOF 8
ENDMDL
MODEL 5
REMARK VINA RESULT: -7.751218750      1.277      2.145
REMARK  8 active torsions:
REMARK  status: ('A' for Active; 'I' for Inactive)
REMARK    1  A    between atoms: N2_8  and  C5_10 
REMARK    2  A    between atoms: C5_10  and  C6_11 
REMARK    3  A    between atoms: C6_11  and  C7_12 
REMARK    4  A    between atoms: C7_12  and  N3_13 
REMARK    5  A    between atoms: C12_18  and  C13_19 
REMARK    6  A    between atoms: C17_25  and  C18_26 
REMARK    7  A    between atoms: C18_26  and  C19_27 
REMARK    8  A    between atoms: C19_27  and  C20_28 
ROOT
HETATM    1  C1  UNL     1      16.586  -4.679  11.950  1.00  0.00     0.032 C 
HETATM    2  C2  UNL     1      17.063  -5.890  11.891  1.00  0.00     0.050 A 
HETATM    3  C3  UNL     1      16.442  -6.863  12.701  1.00  0.00     0.271 A 
HETATM    4  O1  UNL     1      15.479  -6.509  13.445  1.00  0.00    -0.267 OA
HETATM    5  N1  UNL     1      16.851  -8.131  12.692  1.00  0.00    -0.155 N 
ATOM      6  H1  UNL     1      16.383  -8.813  13.289  1.00  0.00     0.187 HD
HETATM    7  C4  UNL     1      17.864  -8.523  11.915  1.00  0.00     0.681 A 
HETATM    8  N2  UNL     1      18.234  -9.750  11.933  1.00  0.00    -0.226 N 
ATOM      9  H2  UNL     1      19.006 -10.064  11.345  1.00  0.00     0.177 HD
HETATM   10  N4  UNL     1      18.453  -7.607  11.151  1.00  0.00    -0.191 N 
ATOM     11  H4  UNL     1      19.226  -7.916  10.561  1.00  0.00     0.184 HD
HETATM   12  C17 UNL     1      18.106  -6.276  11.089  1.00  0.00     0.060 A 
ENDROOT
BRANCH   8  13
HETATM   13  C5  UNL     1      17.544 -10.681  12.792  1.00  0.00     0.139 C 
BRANCH  13  14
HETATM   14  C6  UNL     1      18.120 -12.077  12.677  1.00  0.00     0.040 C 
BRANCH  14  15
HETATM   15  C7  UNL     1      17.043 -13.095  12.373  1.00  0.00     0.130 C 
BRANCH  15  16
HETATM   16  N3  UNL     1      17.534 -14.090  11.458  1.00  0.00    -0.360 N 
HETATM   17  C8  UNL     1      18.476 -14.965  11.897  1.00  0.00     0.091 A 
HETATM   18  C9  UNL     1      18.978 -15.953  11.089  1.00  0.00     0.024 A 
HETATM   19  C10 UNL     1      18.543 -16.099   9.793  1.00  0.00    -0.052 A 
HETATM   20  C11 UNL     1      19.072 -17.153   8.921  1.00  0.00     0.049 C 
HETATM   21  C12 UNL     1      17.589 -15.204   9.362  1.00  0.00    -0.030 A 
HETATM   22  C15 UNL     1      17.099 -14.209  10.206  1.00  0.00     0.014 A 
HETATM   23  C16 UNL     1      16.092 -13.275   9.662  1.00  0.00     0.069 C 
BRANCH  21  24
HETATM   24  C13 UNL     1      17.088 -15.325   7.987  1.00  0.00     0.036 C 
HETATM   25  C14 UNL     1      15.955 -16.345   7.898  1.00  0.00     0.010 C 
ENDBRANCH  21  24
ENDBRANCH  15  16
ENDBRANCH  14  15
ENDBRANCH  13  14
ENDBRANCH   8  13
BRANCH  12  26
HETATM   26  C18 UNL     1      18.809  -5.517  10.321  1.00  0.00     0.010 C 
BRANCH  26  27
HETATM   27  C19 UNL     1      18.969  -4.143   9.941  1.00  0.00     0.088 C 
BRANCH  27  28
HETATM   28  C20 UNL     1      18.750  -3.889   8.486  1.00  0.00     0.030 A 
HETATM   29  C21 UNL     1      19.704  -3.832   7.470  1.00  0.00     0.114 A 
HETATM   30  N5  UNL     1      19.109  -3.574   6.296  1.00  0.00    -0.360 N 
HETATM   31  C22 UNL     1      17.805  -3.471   6.572  1.00  0.00     0.182 A 
ATOM     32  H5  UNL     1      19.557  -3.476   5.385  1.00  0.00     0.166 HD
HETATM   33  N6  UNL     1      17.588  -3.664   7.906  1.00  0.00    -0.349 N 
HETATM   34  C23 UNL     1      16.255  -3.601   8.484  1.00  0.00     0.156 C 
ENDBRANCH  27  28
ENDBRANCH  26  27
ENDBRANCH  12  26
TORSDOF 8
ENDMDL
