MODEL 1
REMARK VINA RESULT: -9.208952963      0.000      0.000
REMARK  13 active torsions:
REMARK  status: ('A' for Active; 'I' for Inactive)
REMARK    1  A    between atoms: C1_4  and  N2_5 
REMARK    2  A    between atoms: C1_4  and  C2_10 
REMARK    3  A    between atoms: N2_5  and  N3_7 
REMARK    4  A    between atoms: C6_14  and  O1_15 
REMARK    5  A    between atoms: O1_15  and  C7_16 
REMARK    6  A    between atoms: C8_18  and  O3_19 
REMARK    7  A    between atoms: C9_21  and  O4_22 
REMARK    8  A    between atoms: C10_24  and  O5_25 
REMARK    9  A    between atoms: O5_25  and  C11_26 
REMARK   10  A    between atoms: C11_26  and  C12_28 
REMARK   11  A    between atoms: C13_29  and  C14_30 
REMARK   12  A    between atoms: C14_30  and  C15_31 
REMARK   13  A    between atoms: C21_37  and  O7_38 
ROOT
HETATM    1  C7  UNL     1      57.966  16.355  16.805  1.00  0.00     0.297 C 
HETATM    2  O2  UNL     1      59.112  15.613  16.626  1.00  0.00    -0.326 OA
HETATM    3  C8  UNL     1      59.748  16.062  15.487  1.00  0.00     0.291 C 
HETATM    4  C9  UNL     1      60.162  17.475  15.494  1.00  0.00     0.205 C 
HETATM    5  C10 UNL     1      59.252  18.423  16.221  1.00  0.00     0.199 C 
HETATM    6  C21 UNL     1      58.364  17.735  17.232  1.00  0.00     0.205 C 
ENDROOT
BRANCH   1   7
HETATM    7  O1  UNL     1      57.223  16.356  15.626  1.00  0.00    -0.329 OA
BRANCH   7   8
HETATM    8  C6  UNL     1      56.079  15.575  15.732  1.00  0.00     0.264 C 
HETATM    9  C5  UNL     1      55.281  15.817  14.449  1.00  0.00     0.061 C 
HETATM   10  C4  UNL     1      53.988  15.070  14.574  1.00  0.00     0.008 C 
HETATM   11  C3  UNL     1      54.140  13.674  15.077  1.00  0.00     0.040 C 
HETATM   12  C2  UNL     1      55.235  13.533  16.111  1.00  0.00     0.193 C 
HETATM   13  O8  UNL     1      56.389  14.217  15.746  1.00  0.00    -0.348 OA
BRANCH  12  14
HETATM   14  C1  UNL     1      55.509  12.087  16.266  1.00  0.00     0.118 C 
HETATM   15  N1  UNL     1      56.077  11.408  15.336  1.00  0.00    -0.386 N 
ATOM     16  H12 UNL     1      56.266  10.411  15.443  1.00  0.00     0.157 HD
ATOM     17  H11 UNL     1      56.343  11.878  14.470  1.00  0.00     0.157 HD
BRANCH  14  18
HETATM   18  N2  UNL     1      55.140  11.435  17.466  1.00  0.00    -0.294 N 
ATOM     19  H2  UNL     1      54.310  11.772  17.955  1.00  0.00     0.187 HD
BRANCH  18  20
HETATM   20  N3  UNL     1      55.828  10.367  18.025  1.00  0.00    -0.344 N 
ATOM     21  H32 UNL     1      56.746  10.158  17.632  1.00  0.00     0.176 HD
ATOM     22  H31 UNL     1      55.478   9.791  18.790  1.00  0.00     0.176 HD
ENDBRANCH  18  20
ENDBRANCH  14  18
ENDBRANCH  12  14
ENDBRANCH   7   8
ENDBRANCH   1   7
BRANCH   6  23
HETATM   23  O7  UNL     1      58.998  17.617  18.480  1.00  0.00    -0.388 OA
ATOM     24  H7  UNL     1      59.703  18.253  18.499  1.00  0.00     0.210 HD
ENDBRANCH   6  23
BRANCH   3  25
HETATM   25  O3  UNL     1      60.874  15.236  15.296  1.00  0.00    -0.368 OA
ATOM     26  H3  UNL     1      60.959  15.102  14.360  1.00  0.00     0.212 HD
ENDBRANCH   3  25
BRANCH   5  27
HETATM   27  O5  UNL     1      59.935  19.524  16.775  1.00  0.00    -0.307 OA
BRANCH  27  28
HETATM   28  C11 UNL     1      59.868  20.784  16.227  1.00  0.00     0.283 C 
HETATM   29  O6  UNL     1      59.733  20.839  14.978  1.00  0.00    -0.260 OA
BRANCH  28  30
HETATM   30  C12 UNL     1      59.941  22.013  16.977  1.00  0.00     0.078 C 
HETATM   31  C13 UNL     1      59.879  23.167  16.355  1.00  0.00    -0.016 C 
BRANCH  31  32
HETATM   32  C14 UNL     1      59.944  24.484  17.037  1.00  0.00     0.066 C 
BRANCH  32  33
HETATM   33  C15 UNL     1      61.346  24.971  17.143  1.00  0.00    -0.055 A 
HETATM   34  C16 UNL     1      61.775  25.976  16.307  1.00  0.00     0.007 A 
HETATM   35  C17 UNL     1      63.066  26.435  16.393  1.00  0.00     0.001 A 
HETATM   36  C18 UNL     1      63.973  25.930  17.291  1.00  0.00     0.000 A 
HETATM   37  C19 UNL     1      63.519  24.921  18.120  1.00  0.00     0.001 A 
HETATM   38  C20 UNL     1      62.239  24.452  18.050  1.00  0.00     0.007 A 
ENDBRANCH  32  33
ENDBRANCH  31  32
ENDBRANCH  28  30
ENDBRANCH  27  28
ENDBRANCH   5  27
BRANCH   4  39
HETATM   39  O4  UNL     1      60.366  17.882  14.161  1.00  0.00    -0.388 OA
ATOM     40  H4  UNL     1      61.270  18.158  14.069  1.00  0.00     0.210 HD
ENDBRANCH   4  39
TORSDOF 13
ENDMDL
MODEL 2
REMARK VINA RESULT: -8.776494731      1.134      1.719
REMARK  13 active torsions:
REMARK  status: ('A' for Active; 'I' for Inactive)
REMARK    1  A    between atoms: C1_4  and  N2_5 
REMARK    2  A    between atoms: C1_4  and  C2_10 
REMARK    3  A    between atoms: N2_5  and  N3_7 
REMARK    4  A    between atoms: C6_14  and  O1_15 
REMARK    5  A    between atoms: O1_15  and  C7_16 
REMARK    6  A    between atoms: C8_18  and  O3_19 
REMARK    7  A    between atoms: C9_21  and  O4_22 
REMARK    8  A    between atoms: C10_24  and  O5_25 
REMARK    9  A    between atoms: O5_25  and  C11_26 
REMARK   10  A    between atoms: C11_26  and  C12_28 
REMARK   11  A    between atoms: C13_29  and  C14_30 
REMARK   12  A    between atoms: C14_30  and  C15_31 
REMARK   13  A    between atoms: C21_37  and  O7_38 
ROOT
HETATM    1  C7  UNL     1      56.802  17.319  16.590  1.00  0.00     0.297 C 
HETATM    2  O2  UNL     1      57.597  17.397  17.712  1.00  0.00    -0.326 OA
HETATM    3  C8  UNL     1      58.884  17.048  17.358  1.00  0.00     0.291 C 
HETATM    4  C9  UNL     1      59.523  17.890  16.334  1.00  0.00     0.205 C 
HETATM    5  C10 UNL     1      58.615  18.430  15.267  1.00  0.00     0.199 C 
HETATM    6  C21 UNL     1      57.162  18.455  15.682  1.00  0.00     0.205 C 
ENDROOT
BRANCH   1   7
HETATM    7  O1  UNL     1      56.974  16.076  15.983  1.00  0.00    -0.329 OA
BRANCH   7   8
HETATM    8  C6  UNL     1      55.776  15.384  15.869  1.00  0.00     0.264 C 
HETATM    9  C5  UNL     1      55.336  15.537  14.411  1.00  0.00     0.061 C 
HETATM   10  C4  UNL     1      53.992  14.889  14.275  1.00  0.00     0.008 C 
HETATM   11  C3  UNL     1      53.897  13.547  14.920  1.00  0.00     0.040 C 
HETATM   12  C2  UNL     1      54.693  13.449  16.203  1.00  0.00     0.193 C 
HETATM   13  O8  UNL     1      55.956  14.018  16.079  1.00  0.00    -0.348 OA
BRANCH  12  14
HETATM   14  C1  UNL     1      54.796  12.013  16.547  1.00  0.00     0.118 C 
HETATM   15  N1  UNL     1      55.714  11.267  16.046  1.00  0.00    -0.386 N 
ATOM     16  H12 UNL     1      55.785  10.278  16.284  1.00  0.00     0.157 HD
ATOM     17  H11 UNL     1      56.385  11.676  15.395  1.00  0.00     0.157 HD
BRANCH  14  18
HETATM   18  N2  UNL     1      53.865  11.447  17.449  1.00  0.00    -0.294 N 
ATOM     19  H2  UNL     1      53.144  12.057  17.834  1.00  0.00     0.187 HD
BRANCH  18  20
HETATM   20  N3  UNL     1      53.865  10.118  17.847  1.00  0.00    -0.344 N 
ATOM     21  H32 UNL     1      54.767   9.641  17.853  1.00  0.00     0.176 HD
ATOM     22  H31 UNL     1      53.033   9.598  18.128  1.00  0.00     0.176 HD
ENDBRANCH  18  20
ENDBRANCH  14  18
ENDBRANCH  12  14
ENDBRANCH   7   8
ENDBRANCH   1   7
BRANCH   6  23
HETATM   23  O7  UNL     1      56.838  19.644  16.354  1.00  0.00    -0.388 OA
ATOM     24  H7  UNL     1      57.459  20.305  16.073  1.00  0.00     0.210 HD
ENDBRANCH   6  23
BRANCH   3  25
HETATM   25  O3  UNL     1      59.651  17.069  18.541  1.00  0.00    -0.368 OA
ATOM     26  H3  UNL     1      60.311  16.392  18.452  1.00  0.00     0.212 HD
ENDBRANCH   3  25
BRANCH   5  27
HETATM   27  O5  UNL     1      59.045  19.672  14.757  1.00  0.00    -0.307 OA
BRANCH  27  28
HETATM   28  C11 UNL     1      60.103  20.364  15.299  1.00  0.00     0.283 C 
HETATM   29  O6  UNL     1      61.241  20.087  14.841  1.00  0.00    -0.260 OA
BRANCH  28  30
HETATM   30  C12 UNL     1      59.989  21.363  16.332  1.00  0.00     0.078 C 
HETATM   31  C13 UNL     1      60.228  22.624  16.055  1.00  0.00    -0.016 C 
BRANCH  31  32
HETATM   32  C14 UNL     1      60.137  23.725  17.048  1.00  0.00     0.066 C 
BRANCH  32  33
HETATM   33  C15 UNL     1      61.406  24.500  17.114  1.00  0.00    -0.055 A 
HETATM   34  C16 UNL     1      62.396  24.099  17.980  1.00  0.00     0.007 A 
HETATM   35  C17 UNL     1      63.572  24.805  18.053  1.00  0.00     0.001 A 
HETATM   36  C18 UNL     1      63.815  25.917  17.286  1.00  0.00     0.000 A 
HETATM   37  C19 UNL     1      62.806  26.300  16.422  1.00  0.00     0.001 A 
HETATM   38  C20 UNL     1      61.630  25.611  16.337  1.00  0.00     0.007 A 
ENDBRANCH  32  33
ENDBRANCH  31  32
ENDBRANCH  28  30
ENDBRANCH  27  28
ENDBRANCH   5  27
BRANCH   4  39
HETATM   39  O4  UNL     1      60.596  17.167  15.776  1.00  0.00    -0.388 OA
ATOM     40  H4  UNL     1      61.311  17.772  15.616  1.00  0.00     0.210 HD
ENDBRANCH   4  39
TORSDOF 13
ENDMDL
MODEL 3
REMARK VINA RESULT: -8.768012635      1.430      1.917
REMARK  13 active torsions:
REMARK  status: ('A' for Active; 'I' for Inactive)
REMARK    1  A    between atoms: C1_4  and  N2_5 
REMARK    2  A    between atoms: C1_4  and  C2_10 
REMARK    3  A    between atoms: N2_5  and  N3_7 
REMARK    4  A    between atoms: C6_14  and  O1_15 
REMARK    5  A    between atoms: O1_15  and  C7_16 
REMARK    6  A    between atoms: C8_18  and  O3_19 
REMARK    7  A    between atoms: C9_21  and  O4_22 
REMARK    8  A    between atoms: C10_24  and  O5_25 
REMARK    9  A    between atoms: O5_25  and  C11_26 
REMARK   10  A    between atoms: C11_26  and  C12_28 
REMARK   11  A    between atoms: C13_29  and  C14_30 
REMARK   12  A    between atoms: C14_30  and  C15_31 
REMARK   13  A    between atoms: C21_37  and  O7_38 
ROOT
HETATM    1  C7  UNL     1      57.950  16.287  16.695  1.00  0.00     0.297 C 
HETATM    2  O2  UNL     1      59.113  15.565  16.541  1.00  0.00    -0.326 OA
HETATM    3  C8  UNL     1      59.776  16.041  15.429  1.00  0.00     0.291 C 
HETATM    4  C9  UNL     1      60.167  17.459  15.468  1.00  0.00     0.205 C 
HETATM    5  C10 UNL     1      59.220  18.382  16.179  1.00  0.00     0.199 C 
HETATM    6  C21 UNL     1      58.313  17.667  17.153  1.00  0.00     0.205 C 
ENDROOT
BRANCH   1   7
HETATM    7  O1  UNL     1      57.243  16.292  15.494  1.00  0.00    -0.329 OA
BRANCH   7   8
HETATM    8  C6  UNL     1      56.483  15.142  15.333  1.00  0.00     0.264 C 
HETATM    9  C5  UNL     1      55.060  15.613  15.027  1.00  0.00     0.061 C 
HETATM   10  C4  UNL     1      54.188  14.397  14.949  1.00  0.00     0.008 C 
HETATM   11  C3  UNL     1      54.769  13.284  14.143  1.00  0.00     0.040 C 
HETATM   12  C2  UNL     1      56.270  13.170  14.287  1.00  0.00     0.193 C 
HETATM   13  O8  UNL     1      56.897  14.409  14.223  1.00  0.00    -0.348 OA
BRANCH  12  14
HETATM   14  C1  UNL     1      56.749  12.283  13.203  1.00  0.00     0.118 C 
HETATM   15  N1  UNL     1      57.482  11.257  13.448  1.00  0.00    -0.386 N 
ATOM     16  H12 UNL     1      57.811  10.646  12.701  1.00  0.00     0.157 HD
ATOM     17  H11 UNL     1      57.738  11.051  14.414  1.00  0.00     0.157 HD
BRANCH  14  18
HETATM   18  N2  UNL     1      56.393  12.569  11.863  1.00  0.00    -0.294 N 
ATOM     19  H2  UNL     1      55.682  13.283  11.702  1.00  0.00     0.187 HD
BRANCH  18  20
HETATM   20  N3  UNL     1      56.945  11.946  10.753  1.00  0.00    -0.344 N 
ATOM     21  H32 UNL     1      57.735  12.415  10.311  1.00  0.00     0.176 HD
ATOM     22  H31 UNL     1      56.614  11.064  10.362  1.00  0.00     0.176 HD
ENDBRANCH  18  20
ENDBRANCH  14  18
ENDBRANCH  12  14
ENDBRANCH   7   8
ENDBRANCH   1   7
BRANCH   6  23
HETATM   23  O7  UNL     1      58.910  17.541  18.417  1.00  0.00    -0.388 OA
ATOM     24  H7  UNL     1      58.513  16.792  18.844  1.00  0.00     0.210 HD
ENDBRANCH   6  23
BRANCH   3  25
HETATM   25  O3  UNL     1      60.920  15.234  15.262  1.00  0.00    -0.368 OA
ATOM     26  H3  UNL     1      61.629  15.814  15.009  1.00  0.00     0.212 HD
ENDBRANCH   3  25
BRANCH   5  27
HETATM   27  O5  UNL     1      59.868  19.487  16.768  1.00  0.00    -0.307 OA
BRANCH  27  28
HETATM   28  C11 UNL     1      59.812  20.750  16.225  1.00  0.00     0.283 C 
HETATM   29  O6  UNL     1      59.696  20.811  14.975  1.00  0.00    -0.260 OA
BRANCH  28  30
HETATM   30  C12 UNL     1      59.875  21.974  16.984  1.00  0.00     0.078 C 
HETATM   31  C13 UNL     1      59.900  23.130  16.362  1.00  0.00    -0.016 C 
BRANCH  31  32
HETATM   32  C14 UNL     1      59.964  24.444  17.053  1.00  0.00     0.066 C 
BRANCH  32  33
HETATM   33  C15 UNL     1      61.365  24.934  17.155  1.00  0.00    -0.055 A 
HETATM   34  C16 UNL     1      61.783  25.955  16.334  1.00  0.00     0.007 A 
HETATM   35  C17 UNL     1      63.074  26.418  16.417  1.00  0.00     0.001 A 
HETATM   36  C18 UNL     1      63.989  25.901  17.299  1.00  0.00     0.000 A 
HETATM   37  C19 UNL     1      63.546  24.877  18.115  1.00  0.00     0.001 A 
HETATM   38  C20 UNL     1      62.267  24.403  18.046  1.00  0.00     0.007 A 
ENDBRANCH  32  33
ENDBRANCH  31  32
ENDBRANCH  28  30
ENDBRANCH  27  28
ENDBRANCH   5  27
BRANCH   4  39
HETATM   39  O4  UNL     1      60.404  17.887  14.147  1.00  0.00    -0.388 OA
ATOM     40  H4  UNL     1      59.578  18.166  13.771  1.00  0.00     0.210 HD
ENDBRANCH   4  39
TORSDOF 13
ENDMDL
MODEL 4
REMARK VINA RESULT: -8.728793548      2.551      3.924
REMARK  13 active torsions:
REMARK  status: ('A' for Active; 'I' for Inactive)
REMARK    1  A    between atoms: C1_4  and  N2_5 
REMARK    2  A    between atoms: C1_4  and  C2_10 
REMARK    3  A    between atoms: N2_5  and  N3_7 
REMARK    4  A    between atoms: C6_14  and  O1_15 
REMARK    5  A    between atoms: O1_15  and  C7_16 
REMARK    6  A    between atoms: C8_18  and  O3_19 
REMARK    7  A    between atoms: C9_21  and  O4_22 
REMARK    8  A    between atoms: C10_24  and  O5_25 
REMARK    9  A    between atoms: O5_25  and  C11_26 
REMARK   10  A    between atoms: C11_26  and  C12_28 
REMARK   11  A    between atoms: C13_29  and  C14_30 
REMARK   12  A    between atoms: C14_30  and  C15_31 
REMARK   13  A    between atoms: C21_37  and  O7_38 
ROOT
HETATM    1  C7  UNL     1      57.659  16.639  17.068  1.00  0.00     0.297 C 
HETATM    2  O2  UNL     1      58.578  15.617  17.160  1.00  0.00    -0.326 OA
HETATM    3  C8  UNL     1      59.415  15.685  16.067  1.00  0.00     0.291 C 
HETATM    4  C9  UNL     1      60.188  16.929  15.922  1.00  0.00     0.205 C 
HETATM    5  C10 UNL     1      59.500  18.186  16.368  1.00  0.00     0.199 C 
HETATM    6  C21 UNL     1      58.369  17.931  17.338  1.00  0.00     0.205 C 
ENDROOT
BRANCH   1   7
HETATM    7  O1  UNL     1      57.059  16.614  15.812  1.00  0.00    -0.329 OA
BRANCH   7   8
HETATM    8  C6  UNL     1      55.952  15.775  15.782  1.00  0.00     0.264 C 
HETATM    9  C5  UNL     1      55.284  16.004  14.424  1.00  0.00     0.061 C 
HETATM   10  C4  UNL     1      54.025  15.191  14.398  1.00  0.00     0.008 C 
HETATM   11  C3  UNL     1      54.194  13.793  14.893  1.00  0.00     0.040 C 
HETATM   12  C2  UNL     1      55.179  13.686  16.036  1.00  0.00     0.193 C 
HETATM   13  O8  UNL     1      56.328  14.434  15.808  1.00  0.00    -0.348 OA
BRANCH  12  14
HETATM   14  C1  UNL     1      55.510  12.252  16.197  1.00  0.00     0.118 C 
HETATM   15  N1  UNL     1      56.129  11.599  15.281  1.00  0.00    -0.386 N 
ATOM     16  H12 UNL     1      56.358  10.611  15.393  1.00  0.00     0.157 HD
ATOM     17  H11 UNL     1      56.398  12.082  14.424  1.00  0.00     0.157 HD
BRANCH  14  18
HETATM   18  N2  UNL     1      55.137  11.583  17.387  1.00  0.00    -0.294 N 
ATOM     19  H2  UNL     1      54.306  11.914  17.879  1.00  0.00     0.187 HD
BRANCH  18  20
HETATM   20  N3  UNL     1      55.822  10.507  17.931  1.00  0.00    -0.344 N 
ATOM     21  H32 UNL     1      56.412   9.970  17.295  1.00  0.00     0.176 HD
ATOM     22  H31 UNL     1      55.773  10.226  18.910  1.00  0.00     0.176 HD
ENDBRANCH  18  20
ENDBRANCH  14  18
ENDBRANCH  12  14
ENDBRANCH   7   8
ENDBRANCH   1   7
BRANCH   6  23
HETATM   23  O7  UNL     1      58.828  17.884  18.665  1.00  0.00    -0.388 OA
ATOM     24  H7  UNL     1      58.346  18.541  19.153  1.00  0.00     0.210 HD
ENDBRANCH   6  23
BRANCH   3  25
HETATM   25  O3  UNL     1      60.292  14.585  16.157  1.00  0.00    -0.368 OA
ATOM     26  H3  UNL     1      60.499  14.326  15.266  1.00  0.00     0.212 HD
ENDBRANCH   3  25
BRANCH   5  27
HETATM   27  O5  UNL     1      60.397  19.165  16.843  1.00  0.00    -0.307 OA
BRANCH  27  28
HETATM   28  C11 UNL     1      60.153  20.513  16.711  1.00  0.00     0.283 C 
HETATM   29  O6  UNL     1      60.079  21.170  17.780  1.00  0.00    -0.260 OA
BRANCH  28  30
HETATM   30  C12 UNL     1      59.984  21.199  15.455  1.00  0.00     0.078 C 
HETATM   31  C13 UNL     1      60.938  21.161  14.553  1.00  0.00    -0.016 C 
BRANCH  31  32
HETATM   32  C14 UNL     1      60.859  21.834  13.231  1.00  0.00     0.066 C 
BRANCH  32  33
HETATM   33  C15 UNL     1      60.842  20.845  12.120  1.00  0.00    -0.055 A 
HETATM   34  C16 UNL     1      61.079  21.272  10.834  1.00  0.00     0.007 A 
HETATM   35  C17 UNL     1      61.066  20.371   9.798  1.00  0.00     0.001 A 
HETATM   36  C18 UNL     1      60.822  19.033   9.985  1.00  0.00     0.000 A 
HETATM   37  C19 UNL     1      60.587  18.627  11.286  1.00  0.00     0.001 A 
HETATM   38  C20 UNL     1      60.596  19.509  12.328  1.00  0.00     0.007 A 
ENDBRANCH  32  33
ENDBRANCH  31  32
ENDBRANCH  28  30
ENDBRANCH  27  28
ENDBRANCH   5  27
BRANCH   4  39
HETATM   39  O4  UNL     1      60.618  17.028  14.584  1.00  0.00    -0.388 OA
ATOM     40  H4  UNL     1      60.832  17.937  14.406  1.00  0.00     0.210 HD
ENDBRANCH   4  39
TORSDOF 13
ENDMDL
MODEL 5
REMARK VINA RESULT: -8.715993109      3.419      4.718
REMARK  13 active torsions:
REMARK  status: ('A' for Active; 'I' for Inactive)
REMARK    1  A    between atoms: C1_4  and  N2_5 
REMARK    2  A    between atoms: C1_4  and  C2_10 
REMARK    3  A    between atoms: N2_5  and  N3_7 
REMARK    4  A    between atoms: C6_14  and  O1_15 
REMARK    5  A    between atoms: O1_15  and  C7_16 
REMARK    6  A    between atoms: C8_18  and  O3_19 
REMARK    7  A    between atoms: C9_21  and  O4_22 
REMARK    8  A    between atoms: C10_24  and  O5_25 
REMARK    9  A    between atoms: O5_25  and  C11_26 
REMARK   10  A    between atoms: C11_26  and  C12_28 
REMARK   11  A    between atoms: C13_29  and  C14_30 
REMARK   12  A    between atoms: C14_30  and  C15_31 
REMARK   13  A    between atoms: C21_37  and  O7_38 
ROOT
HETATM    1  C7  UNL     1      56.811  15.978  15.860  1.00  0.00     0.297 C 
HETATM    2  O2  UNL     1      57.730  15.184  16.510  1.00  0.00    -0.326 OA
HETATM    3  C8  UNL     1      58.979  15.449  15.988  1.00  0.00     0.291 C 
HETATM    4  C9  UNL     1      59.455  16.835  16.124  1.00  0.00     0.205 C 
HETATM    5  C10 UNL     1      58.405  17.903  16.027  1.00  0.00     0.199 C 
HETATM    6  C21 UNL     1      57.011  17.392  16.314  1.00  0.00     0.205 C 
ENDROOT
BRANCH   1   7
HETATM    7  O1  UNL     1      56.963  15.834  14.483  1.00  0.00    -0.329 OA
BRANCH   7   8
HETATM    8  C6  UNL     1      56.063  14.918  13.954  1.00  0.00     0.264 C 
HETATM    9  C5  UNL     1      55.284  15.666  12.870  1.00  0.00     0.061 C 
HETATM   10  C4  UNL     1      54.231  14.736  12.348  1.00  0.00     0.008 C 
HETATM   11  C3  UNL     1      54.725  13.358  12.060  1.00  0.00     0.040 C 
HETATM   12  C2  UNL     1      55.774  12.889  13.044  1.00  0.00     0.193 C 
HETATM   13  O8  UNL     1      56.720  13.873  13.309  1.00  0.00    -0.348 OA
BRANCH  12  14
HETATM   14  C1  UNL     1      56.415  11.688  12.463  1.00  0.00     0.118 C 
HETATM   15  N1  UNL     1      55.955  11.129  11.402  1.00  0.00    -0.386 N 
ATOM     16  H12 UNL     1      56.397  10.302  11.001  1.00  0.00     0.157 HD
ATOM     17  H11 UNL     1      55.129  11.523  10.951  1.00  0.00     0.157 HD
BRANCH  14  18
HETATM   18  N2  UNL     1      57.561  11.141  13.087  1.00  0.00    -0.294 N 
ATOM     19  H2  UNL     1      57.870  11.561  13.964  1.00  0.00     0.187 HD
BRANCH  18  20
HETATM   20  N3  UNL     1      58.293  10.073  12.590  1.00  0.00    -0.344 N 
ATOM     21  H32 UNL     1      58.884  10.261  11.780  1.00  0.00     0.176 HD
ATOM     22  H31 UNL     1      58.276   9.130  12.978  1.00  0.00     0.176 HD
ENDBRANCH  18  20
ENDBRANCH  14  18
ENDBRANCH  12  14
ENDBRANCH   7   8
ENDBRANCH   1   7
BRANCH   6  23
HETATM   23  O7  UNL     1      56.720  17.434  17.687  1.00  0.00    -0.388 OA
ATOM     24  H7  UNL     1      57.545  17.528  18.147  1.00  0.00     0.210 HD
ENDBRANCH   6  23
BRANCH   3  25
HETATM   25  O3  UNL     1      59.880  14.570  16.623  1.00  0.00    -0.368 OA
ATOM     26  H3  UNL     1      60.289  14.054  15.938  1.00  0.00     0.212 HD
ENDBRANCH   3  25
BRANCH   5  27
HETATM   27  O5  UNL     1      58.717  19.051  16.783  1.00  0.00    -0.307 OA
BRANCH  27  28
HETATM   28  C11 UNL     1      59.751  19.894  16.448  1.00  0.00     0.283 C 
HETATM   29  O6  UNL     1      60.668  20.012  17.300  1.00  0.00    -0.260 OA
BRANCH  28  30
HETATM   30  C12 UNL     1      59.846  20.629  15.213  1.00  0.00     0.078 C 
HETATM   31  C13 UNL     1      60.862  20.429  14.406  1.00  0.00    -0.016 C 
BRANCH  31  32
HETATM   32  C14 UNL     1      61.048  21.136  13.112  1.00  0.00     0.066 C 
BRANCH  32  33
HETATM   33  C15 UNL     1      60.615  20.291  11.966  1.00  0.00    -0.055 A 
HETATM   34  C16 UNL     1      60.307  20.890  10.767  1.00  0.00     0.007 A 
HETATM   35  C17 UNL     1      59.906  20.124   9.701  1.00  0.00     0.001 A 
HETATM   36  C18 UNL     1      59.794  18.758   9.772  1.00  0.00     0.000 A 
HETATM   37  C19 UNL     1      60.110  18.178  10.987  1.00  0.00     0.001 A 
HETATM   38  C20 UNL     1      60.510  18.924  12.058  1.00  0.00     0.007 A 
ENDBRANCH  32  33
ENDBRANCH  31  32
ENDBRANCH  28  30
ENDBRANCH  27  28
ENDBRANCH   5  27
BRANCH   4  39
HETATM   39  O4  UNL     1      60.484  17.042  15.184  1.00  0.00    -0.388 OA
ATOM     40  H4  UNL     1      61.057  17.723  15.515  1.00  0.00     0.210 HD
ENDBRANCH   4  39
TORSDOF 13
ENDMDL
