MODEL 1
REMARK VINA RESULT: -6.648769861      0.000      0.000
REMARK  3 active torsions:
REMARK  status: ('A' for Active; 'I' for Inactive)
REMARK    1  A    between atoms: C3_3  and  C5_5 
REMARK       I    between atoms: C5_5  and  N1_7 
REMARK    2  A    between atoms: N1_7  and  C6_9 
REMARK    3  A    between atoms: C6_9  and  C7_10 
REMARK       I    between atoms: C7_10  and  N2_12 
ROOT
HETATM    1  C6  UNL     1      -2.776  25.731  29.991  1.00  0.00     0.356 C 
HETATM    2  N3  UNL     1      -1.906  26.461  30.845  1.00  0.00    -0.366 N 
ATOM      3  H3  UNL     1      -1.053  26.037  31.209  1.00  0.00     0.158 HD
HETATM    4  C9  UNL     1      -2.257  27.796  31.177  1.00  0.00     0.118 C 
HETATM    5  C10 UNL     1      -1.240  28.432  32.115  1.00  0.00     0.019 C 
HETATM    6  C11 UNL     1      -0.788  27.487  33.200  1.00  0.00     0.003 C 
HETATM    7  C12 UNL     1       0.467  26.738  32.901  1.00  0.00     0.020 C 
HETATM    8  C13 UNL     1       0.332  25.267  33.193  1.00  0.00     0.122 C 
HETATM    9  N4  UNL     1       0.574  24.421  32.023  1.00  0.00    -0.360 N 
ATOM     10  H4  UNL     1       1.528  24.344  31.670  1.00  0.00     0.162 HD
HETATM   11  C14 UNL     1      -0.447  23.706  31.359  1.00  0.00     0.243 C 
HETATM   12  O3  UNL     1      -0.140  22.741  30.625  1.00  0.00    -0.272 OA
HETATM   13  C15 UNL     1      -1.891  24.031  31.478  1.00  0.00     0.340 C 
HETATM   14  N5  UNL     1      -2.496  24.322  30.222  1.00  0.00    -0.012 N 
ATOM     15  H51 UNL     1      -1.931  23.945  29.461  1.00  0.00     0.283 HD
ATOM     16  H52 UNL     1      -3.345  23.769  30.102  1.00  0.00     0.283 HD
ENDROOT
BRANCH   1  17
HETATM   17  N1  UNL     1      -4.165  26.073  30.055  1.00  0.00    -0.300 N 
HETATM   18  C5  UNL     1      -5.270  25.283  30.334  1.00  0.00     0.250 C 
HETATM   19  O1  UNL     1      -5.168  24.071  30.582  1.00  0.00    -0.268 OA
ATOM     20  H1  UNL     1      -4.375  27.053  29.865  1.00  0.00     0.167 HD
BRANCH  18  21
HETATM   21  C3  UNL     1      -6.613  25.844  30.348  1.00  0.00     0.002 C 
HETATM   22  C2  UNL     1      -7.292  26.161  29.267  1.00  0.00    -0.019 C 
HETATM   23  C1  UNL     1      -6.783  25.992  27.883  1.00  0.00     0.036 C 
HETATM   24  C4  UNL     1      -7.262  26.073  31.670  1.00  0.00     0.054 C 
ENDBRANCH  18  21
ENDBRANCH   1  17
BRANCH   1  25
HETATM   25  C7  UNL     1      -2.326  26.018  28.580  1.00  0.00     0.296 C 
HETATM   26  O2  UNL     1      -1.153  25.745  28.206  1.00  0.00    -0.266 OA
HETATM   27  N2  UNL     1      -3.187  26.596  27.631  1.00  0.00    -0.360 N 
HETATM   28  C8  UNL     1      -2.748  26.875  26.259  1.00  0.00     0.149 C 
ATOM     29  H2  UNL     1      -4.143  26.828  27.903  1.00  0.00     0.162 HD
ENDBRANCH   1  25
TORSDOF 3
ENDMDL
MODEL 2
REMARK VINA RESULT: -6.467212610      2.795      5.374
REMARK  3 active torsions:
REMARK  status: ('A' for Active; 'I' for Inactive)
REMARK    1  A    between atoms: C3_3  and  C5_5 
REMARK       I    between atoms: C5_5  and  N1_7 
REMARK    2  A    between atoms: N1_7  and  C6_9 
REMARK    3  A    between atoms: C6_9  and  C7_10 
REMARK       I    between atoms: C7_10  and  N2_12 
ROOT
HETATM    1  C6  UNL     1      -5.307  26.548  30.479  1.00  0.00     0.356 C 
HETATM    2  N3  UNL     1      -5.491  26.605  29.071  1.00  0.00    -0.366 N 
ATOM      3  H3  UNL     1      -4.713  26.437  28.434  1.00  0.00     0.158 HD
HETATM    4  C9  UNL     1      -6.788  26.904  28.577  1.00  0.00     0.118 C 
HETATM    5  C10 UNL     1      -6.817  26.953  27.055  1.00  0.00     0.019 C 
HETATM    6  C11 UNL     1      -5.617  27.661  26.479  1.00  0.00     0.003 C 
HETATM    7  C12 UNL     1      -4.486  26.771  26.088  1.00  0.00     0.020 C 
HETATM    8  C13 UNL     1      -3.163  27.273  26.605  1.00  0.00     0.122 C 
HETATM    9  N4  UNL     1      -2.480  26.315  27.475  1.00  0.00    -0.360 N 
ATOM     10  H4  UNL     1      -2.085  25.474  27.053  1.00  0.00     0.162 HD
HETATM   11  C14 UNL     1      -2.340  26.495  28.869  1.00  0.00     0.243 C 
HETATM   12  O3  UNL     1      -1.457  25.857  29.482  1.00  0.00    -0.272 OA
HETATM   13  C15 UNL     1      -3.190  27.413  29.669  1.00  0.00     0.340 C 
HETATM   14  N5  UNL     1      -3.885  26.746  30.718  1.00  0.00    -0.012 N 
ATOM     15  H51 UNL     1      -3.436  25.855  30.930  1.00  0.00     0.283 HD
ATOM     16  H52 UNL     1      -3.740  27.232  31.603  1.00  0.00     0.283 HD
ENDROOT
BRANCH   1  17
HETATM   17  N1  UNL     1      -6.159  27.386  31.267  1.00  0.00    -0.300 N 
HETATM   18  C5  UNL     1      -5.934  27.989  32.496  1.00  0.00     0.250 C 
HETATM   19  O1  UNL     1      -4.864  27.853  33.110  1.00  0.00    -0.268 OA
ATOM     20  H1  UNL     1      -7.076  27.570  30.861  1.00  0.00     0.167 HD
BRANCH  18  21
HETATM   21  C3  UNL     1      -6.951  28.815  33.128  1.00  0.00     0.002 C 
HETATM   22  C2  UNL     1      -7.987  28.338  33.784  1.00  0.00    -0.019 C 
HETATM   23  C1  UNL     1      -8.262  26.891  33.969  1.00  0.00     0.036 C 
HETATM   24  C4  UNL     1      -6.813  30.295  33.027  1.00  0.00     0.054 C 
ENDBRANCH  18  21
ENDBRANCH   1  17
BRANCH   1  25
HETATM   25  C7  UNL     1      -5.603  25.126  30.889  1.00  0.00     0.296 C 
HETATM   26  O2  UNL     1      -6.755  24.790  31.277  1.00  0.00    -0.266 OA
HETATM   27  N2  UNL     1      -4.617  24.125  30.854  1.00  0.00    -0.360 N 
HETATM   28  C8  UNL     1      -4.906  22.743  31.253  1.00  0.00     0.149 C 
ATOM     29  H2  UNL     1      -3.676  24.365  30.544  1.00  0.00     0.162 HD
ENDBRANCH   1  25
TORSDOF 3
ENDMDL
MODEL 3
REMARK VINA RESULT: -6.407275506      1.980      5.678
REMARK  3 active torsions:
REMARK  status: ('A' for Active; 'I' for Inactive)
REMARK    1  A    between atoms: C3_3  and  C5_5 
REMARK       I    between atoms: C5_5  and  N1_7 
REMARK    2  A    between atoms: N1_7  and  C6_9 
REMARK    3  A    between atoms: C6_9  and  C7_10 
REMARK       I    between atoms: C7_10  and  N2_12 
ROOT
HETATM    1  C6  UNL     1      -2.615  26.642  29.680  1.00  0.00     0.356 C 
HETATM    2  N3  UNL     1      -3.507  25.597  30.042  1.00  0.00    -0.366 N 
ATOM      3  H3  UNL     1      -4.496  25.646  29.801  1.00  0.00     0.158 HD
HETATM    4  C9  UNL     1      -2.982  24.482  30.748  1.00  0.00     0.118 C 
HETATM    5  C10 UNL     1      -4.063  23.464  31.082  1.00  0.00     0.019 C 
HETATM    6  C11 UNL     1      -5.340  24.113  31.555  1.00  0.00     0.003 C 
HETATM    7  C12 UNL     1      -6.362  24.340  30.493  1.00  0.00     0.020 C 
HETATM    8  C13 UNL     1      -6.925  25.737  30.536  1.00  0.00     0.122 C 
HETATM    9  N4  UNL     1      -6.725  26.480  29.291  1.00  0.00    -0.360 N 
ATOM     10  H4  UNL     1      -7.264  26.203  28.471  1.00  0.00     0.162 HD
HETATM   11  C14 UNL     1      -5.823  27.561  29.169  1.00  0.00     0.243 C 
HETATM   12  O3  UNL     1      -5.961  28.368  28.225  1.00  0.00    -0.272 OA
HETATM   13  C15 UNL     1      -4.700  27.805  30.109  1.00  0.00     0.340 C 
HETATM   14  N5  UNL     1      -3.432  27.826  29.460  1.00  0.00    -0.012 N 
ATOM     15  H51 UNL     1      -3.549  27.993  28.460  1.00  0.00     0.283 HD
ATOM     16  H52 UNL     1      -2.916  28.665  29.721  1.00  0.00     0.283 HD
ENDROOT
BRANCH   1  17
HETATM   17  N1  UNL     1      -1.496  26.852  30.547  1.00  0.00    -0.300 N 
HETATM   18  C5  UNL     1      -1.456  27.183  31.894  1.00  0.00     0.250 C 
HETATM   19  O1  UNL     1      -2.489  27.352  32.561  1.00  0.00    -0.268 OA
ATOM     20  H1  UNL     1      -0.583  26.742  30.106  1.00  0.00     0.167 HD
BRANCH  18  21
HETATM   21  C3  UNL     1      -0.190  27.349  32.592  1.00  0.00     0.002 C 
HETATM   22  C2  UNL     1       0.608  26.356  32.919  1.00  0.00    -0.019 C 
HETATM   23  C1  UNL     1       0.328  24.929  32.624  1.00  0.00     0.036 C 
HETATM   24  C4  UNL     1       0.231  28.731  32.959  1.00  0.00     0.054 C 
ENDBRANCH  18  21
ENDBRANCH   1  17
BRANCH   1  25
HETATM   25  C7  UNL     1      -2.050  26.271  28.331  1.00  0.00     0.296 C 
HETATM   26  O2  UNL     1      -1.053  25.505  28.234  1.00  0.00    -0.266 OA
HETATM   27  N2  UNL     1      -2.607  26.758  27.135  1.00  0.00    -0.360 N 
HETATM   28  C8  UNL     1      -2.057  26.396  25.824  1.00  0.00     0.149 C 
ATOM     29  H2  UNL     1      -3.416  27.378  27.180  1.00  0.00     0.162 HD
ENDBRANCH   1  25
TORSDOF 3
ENDMDL
MODEL 4
REMARK VINA RESULT: -6.340557551      0.304      1.238
REMARK  3 active torsions:
REMARK  status: ('A' for Active; 'I' for Inactive)
REMARK    1  A    between atoms: C3_3  and  C5_5 
REMARK       I    between atoms: C5_5  and  N1_7 
REMARK    2  A    between atoms: N1_7  and  C6_9 
REMARK    3  A    between atoms: C6_9  and  C7_10 
REMARK       I    between atoms: C7_10  and  N2_12 
ROOT
HETATM    1  C6  UNL     1      -2.699  25.703  29.914  1.00  0.00     0.356 C 
HETATM    2  N3  UNL     1      -1.875  26.456  30.793  1.00  0.00    -0.366 N 
ATOM      3  H3  UNL     1      -1.020  26.056  31.180  1.00  0.00     0.158 HD
HETATM    4  C9  UNL     1      -2.275  27.778  31.119  1.00  0.00     0.118 C 
HETATM    5  C10 UNL     1      -1.304  28.441  32.087  1.00  0.00     0.019 C 
HETATM    6  C11 UNL     1      -0.854  27.506  33.181  1.00  0.00     0.003 C 
HETATM    7  C12 UNL     1       0.431  26.796  32.916  1.00  0.00     0.020 C 
HETATM    8  C13 UNL     1       0.332  25.320  33.200  1.00  0.00     0.122 C 
HETATM    9  N4  UNL     1       0.631  24.486  32.035  1.00  0.00    -0.360 N 
ATOM     10  H4  UNL     1       1.596  24.439  31.709  1.00  0.00     0.162 HD
HETATM   11  C14 UNL     1      -0.350  23.743  31.340  1.00  0.00     0.243 C 
HETATM   12  O3  UNL     1       0.007  22.791  30.612  1.00  0.00    -0.272 OA
HETATM   13  C15 UNL     1      -1.805  24.025  31.420  1.00  0.00     0.340 C 
HETATM   14  N5  UNL     1      -2.383  24.302  30.148  1.00  0.00    -0.012 N 
ATOM     15  H51 UNL     1      -1.786  23.945  29.402  1.00  0.00     0.283 HD
ATOM     16  H52 UNL     1      -3.211  23.725  30.003  1.00  0.00     0.283 HD
ENDROOT
BRANCH   1  17
HETATM   17  N1  UNL     1      -4.098  26.004  29.939  1.00  0.00    -0.300 N 
HETATM   18  C5  UNL     1      -5.177  25.214  30.306  1.00  0.00     0.250 C 
HETATM   19  O1  UNL     1      -5.035  24.042  30.690  1.00  0.00    -0.268 OA
ATOM     20  H1  UNL     1      -4.340  26.949  29.640  1.00  0.00     0.167 HD
BRANCH  18  21
HETATM   21  C3  UNL     1      -6.538  25.727  30.259  1.00  0.00     0.002 C 
HETATM   22  C2  UNL     1      -7.205  26.149  31.311  1.00  0.00    -0.019 C 
HETATM   23  C1  UNL     1      -6.664  26.157  32.693  1.00  0.00     0.036 C 
HETATM   24  C4  UNL     1      -7.220  25.781  28.935  1.00  0.00     0.054 C 
ENDBRANCH  18  21
ENDBRANCH   1  17
BRANCH   1  25
HETATM   25  C7  UNL     1      -2.218  26.009  28.516  1.00  0.00     0.296 C 
HETATM   26  O2  UNL     1      -1.063  25.669  28.139  1.00  0.00    -0.266 OA
HETATM   27  N2  UNL     1      -3.029  26.678  27.583  1.00  0.00    -0.360 N 
HETATM   28  C8  UNL     1      -2.561  26.975  26.225  1.00  0.00     0.149 C 
ATOM     29  H2  UNL     1      -3.969  26.965  27.858  1.00  0.00     0.162 HD
ENDBRANCH   1  25
TORSDOF 3
ENDMDL
MODEL 5
REMARK VINA RESULT: -6.162595254      2.398      4.165
REMARK  3 active torsions:
REMARK  status: ('A' for Active; 'I' for Inactive)
REMARK    1  A    between atoms: C3_3  and  C5_5 
REMARK       I    between atoms: C5_5  and  N1_7 
REMARK    2  A    between atoms: N1_7  and  C6_9 
REMARK    3  A    between atoms: C6_9  and  C7_10 
REMARK       I    between atoms: C7_10  and  N2_12 
ROOT
HETATM    1  C6  UNL     1      -3.788  27.220  31.238  1.00  0.00     0.356 C 
HETATM    2  N3  UNL     1      -3.402  25.872  31.465  1.00  0.00    -0.366 N 
ATOM      3  H3  UNL     1      -2.470  25.646  31.812  1.00  0.00     0.158 HD
HETATM    4  C9  UNL     1      -4.349  24.849  31.197  1.00  0.00     0.118 C 
HETATM    5  C10 UNL     1      -3.778  23.464  31.467  1.00  0.00     0.019 C 
HETATM    6  C11 UNL     1      -2.361  23.319  30.971  1.00  0.00     0.003 C 
HETATM    7  C12 UNL     1      -1.306  23.578  31.992  1.00  0.00     0.020 C 
HETATM    8  C13 UNL     1      -0.230  24.498  31.475  1.00  0.00     0.122 C 
HETATM    9  N4  UNL     1      -0.081  25.717  32.270  1.00  0.00    -0.360 N 
ATOM     10  H4  UNL     1       0.323  25.640  33.204  1.00  0.00     0.162 HD
HETATM   11  C14 UNL     1      -0.469  26.996  31.811  1.00  0.00     0.243 C 
HETATM   12  O3  UNL     1       0.007  28.013  32.360  1.00  0.00    -0.272 OA
HETATM   13  C15 UNL     1      -1.424  27.214  30.695  1.00  0.00     0.340 C 
HETATM   14  N5  UNL     1      -2.558  27.983  31.083  1.00  0.00    -0.012 N 
ATOM     15  H51 UNL     1      -2.357  28.505  31.936  1.00  0.00     0.283 HD
ATOM     16  H52 UNL     1      -2.701  28.755  30.432  1.00  0.00     0.283 HD
ENDROOT
BRANCH   1  17
HETATM   17  N1  UNL     1      -4.751  27.440  30.202  1.00  0.00    -0.300 N 
HETATM   18  C5  UNL     1      -4.664  27.217  28.836  1.00  0.00     0.250 C 
HETATM   19  O1  UNL     1      -3.639  26.759  28.307  1.00  0.00    -0.268 OA
ATOM     20  H1  UNL     1      -5.643  27.821  30.518  1.00  0.00     0.167 HD
BRANCH  18  21
HETATM   21  C3  UNL     1      -5.780  27.514  27.951  1.00  0.00     0.002 C 
HETATM   22  C2  UNL     1      -6.843  26.749  27.822  1.00  0.00    -0.019 C 
HETATM   23  C1  UNL     1      -7.050  25.477  28.559  1.00  0.00     0.036 C 
HETATM   24  C4  UNL     1      -5.719  28.762  27.139  1.00  0.00     0.054 C 
ENDBRANCH  18  21
ENDBRANCH   1  17
BRANCH   1  25
HETATM   25  C7  UNL     1      -4.418  27.705  32.521  1.00  0.00     0.296 C 
HETATM   26  O2  UNL     1      -4.012  27.286  33.640  1.00  0.00    -0.266 OA
HETATM   27  N2  UNL     1      -5.472  28.634  32.524  1.00  0.00    -0.360 N 
HETATM   28  C8  UNL     1      -6.083  29.104  33.773  1.00  0.00     0.149 C 
ATOM     29  H2  UNL     1      -5.821  28.993  31.635  1.00  0.00     0.162 HD
ENDBRANCH   1  25
TORSDOF 3
ENDMDL
