MODEL 1
REMARK VINA RESULT: -8.837894944      0.000      0.000
REMARK  10 active torsions:
REMARK  status: ('A' for Active; 'I' for Inactive)
REMARK    1  A    between atoms: C1_2  and  C2_4 
REMARK    2  A    between atoms: C2_4  and  C3_5 
REMARK    3  A    between atoms: C2_4  and  N5_13 
REMARK    4  A    between atoms: C4_6  and  C5_7 
REMARK    5  A    between atoms: C5_7  and  N2_8 
REMARK    6  A    between atoms: N5_13  and  C7_15 
REMARK    7  A    between atoms: C7_15  and  C8_16 
REMARK    8  A    between atoms: C8_16  and  C9_17 
REMARK    9  A    between atoms: C9_17  and  C10_18 
REMARK       I    between atoms: N6_24  and  C16_26 
REMARK   10  A    between atoms: C16_26  and  C17_28 
ROOT
HETATM    1  C7  UNL     1      72.721  49.968   7.370  1.00  0.00     0.080 C 
HETATM    2  N6  UNL     1      73.211  50.605   6.382  1.00  0.00    -0.317 N 
ATOM      3  H6  UNL     1      72.996  50.240   5.455  1.00  0.00     0.170 HD
HETATM    4  C16 UNL     1      74.014  51.758   6.431  1.00  0.00     0.228 C 
HETATM    5  O2  UNL     1      73.508  52.901   6.264  1.00  0.00    -0.273 OA
ENDROOT
BRANCH   1   6
HETATM    6  N5  UNL     1      71.931  48.820   7.119  1.00  0.00    -0.363 N 
ATOM      7  H5  UNL     1      70.957  48.789   7.423  1.00  0.00     0.162 HD
BRANCH   6   8
HETATM    8  C2  UNL     1      72.547  47.634   6.392  1.00  0.00     0.195 C 
BRANCH   8   9
HETATM    9  C1  UNL     1      72.357  46.511   7.292  1.00  0.00     0.257 C 
HETATM   10  N1  UNL     1      71.822  46.735   8.612  1.00  0.00    -0.060 NA
HETATM   11  O1  UNL     1      72.623  45.324   6.986  1.00  0.00    -0.274 OA
ENDBRANCH   8   9
BRANCH   8  12
HETATM   12  C3  UNL     1      71.958  47.714   5.069  1.00  0.00     0.008 C 
HETATM   13  C4  UNL     1      72.529  48.173   3.824  1.00  0.00     0.015 C 
BRANCH  13  14
HETATM   14  C5  UNL     1      73.613  47.437   3.135  1.00  0.00     0.090 C 
BRANCH  14  15
HETATM   15  N2  UNL     1      74.947  47.577   3.510  1.00  0.00    -0.343 N 
HETATM   16  C6  UNL     1      76.001  47.462   2.795  1.00  0.00     0.200 C 
HETATM   17  N3  UNL     1      75.907  47.149   1.414  1.00  0.00    -0.067 NA
HETATM   18  N4  UNL     1      77.279  47.647   3.379  1.00  0.00    -0.067 NA
ATOM     19  H2  UNL     1      75.105  47.803   4.491  1.00  0.00     0.167 HD
ENDBRANCH  14  15
ENDBRANCH  13  14
ENDBRANCH   8  12
ENDBRANCH   6   8
ENDBRANCH   1   6
BRANCH   1  20
HETATM   20  C8  UNL     1      72.952  50.394   8.794  1.00  0.00     0.076 C 
BRANCH  20  21
HETATM   21  C9  UNL     1      71.649  50.621   9.485  1.00  0.00     0.012 C 
BRANCH  21  22
HETATM   22  C10 UNL     1      71.396  52.026   9.889  1.00  0.00    -0.014 C 
HETATM   23  C11 UNL     1      72.641  52.863   9.716  1.00  0.00     0.004 C 
HETATM   24  C12 UNL     1      72.353  54.320   9.979  1.00  0.00     0.000 C 
HETATM   25  C13 UNL     1      71.795  54.462  11.372  1.00  0.00     0.000 C 
HETATM   26  C14 UNL     1      70.502  53.673  11.438  1.00  0.00     0.000 C 
HETATM   27  C15 UNL     1      70.904  52.199  11.284  1.00  0.00     0.004 C 
ENDBRANCH  21  22
ENDBRANCH  20  21
ENDBRANCH   1  20
BRANCH   4  28
HETATM   28  C17 UNL     1      75.453  51.648   6.677  1.00  0.00     0.104 C 
HETATM   29  C18 UNL     1      75.900  52.570   7.818  1.00  0.00     0.017 C 
HETATM   30  C19 UNL     1      77.329  52.254   8.117  1.00  0.00     0.028 C 
HETATM   31  C20 UNL     1      78.225  52.228   6.923  1.00  0.00     0.232 C 
HETATM   32  N7  UNL     1      77.660  51.598   5.770  1.00  0.00    -0.074 N 
HETATM   33  C21 UNL     1      76.304  52.022   5.477  1.00  0.00     0.246 C 
ATOM     34  H72 UNL     1      78.261  51.730   4.957  1.00  0.00     0.277 HD
ATOM     35  H71 UNL     1      77.709  50.583   5.855  1.00  0.00     0.277 HD
ENDBRANCH   4  28
TORSDOF 10
ENDMDL
MODEL 2
REMARK VINA RESULT: -8.829337019      3.150      7.318
REMARK  10 active torsions:
REMARK  status: ('A' for Active; 'I' for Inactive)
REMARK    1  A    between atoms: C1_2  and  C2_4 
REMARK    2  A    between atoms: C2_4  and  C3_5 
REMARK    3  A    between atoms: C2_4  and  N5_13 
REMARK    4  A    between atoms: C4_6  and  C5_7 
REMARK    5  A    between atoms: C5_7  and  N2_8 
REMARK    6  A    between atoms: N5_13  and  C7_15 
REMARK    7  A    between atoms: C7_15  and  C8_16 
REMARK    8  A    between atoms: C8_16  and  C9_17 
REMARK    9  A    between atoms: C9_17  and  C10_18 
REMARK       I    between atoms: N6_24  and  C16_26 
REMARK   10  A    between atoms: C16_26  and  C17_28 
ROOT
HETATM    1  C7  UNL     1      73.943  49.663   3.726  1.00  0.00     0.080 C 
HETATM    2  N6  UNL     1      74.665  48.626   3.885  1.00  0.00    -0.317 N 
ATOM      3  H6  UNL     1      74.602  48.164   4.791  1.00  0.00     0.170 HD
HETATM    4  C16 UNL     1      75.540  48.050   2.947  1.00  0.00     0.228 C 
HETATM    5  O2  UNL     1      75.176  47.066   2.249  1.00  0.00    -0.273 OA
ENDROOT
BRANCH   1   6
HETATM    6  N5  UNL     1      73.120  50.093   4.795  1.00  0.00    -0.363 N 
ATOM      7  H5  UNL     1      72.142  49.805   4.840  1.00  0.00     0.162 HD
BRANCH   6   8
HETATM    8  C2  UNL     1      73.708  50.990   5.875  1.00  0.00     0.195 C 
BRANCH   8   9
HETATM    9  C1  UNL     1      73.019  52.257   5.717  1.00  0.00     0.257 C 
HETATM   10  N1  UNL     1      73.697  53.486   6.047  1.00  0.00    -0.060 NA
HETATM   11  O1  UNL     1      71.844  52.360   5.290  1.00  0.00    -0.274 OA
ENDBRANCH   8   9
BRANCH   8  12
HETATM   12  C3  UNL     1      73.622  50.169   7.068  1.00  0.00     0.008 C 
HETATM   13  C4  UNL     1      72.463  49.698   7.791  1.00  0.00     0.015 C 
BRANCH  13  14
HETATM   14  C5  UNL     1      71.529  48.702   7.218  1.00  0.00     0.090 C 
BRANCH  14  15
HETATM   15  N2  UNL     1      71.676  47.338   7.459  1.00  0.00    -0.343 N 
HETATM   16  C6  UNL     1      72.376  46.479   6.821  1.00  0.00     0.200 C 
HETATM   17  N3  UNL     1      73.150  46.867   5.696  1.00  0.00    -0.067 NA
HETATM   18  N4  UNL     1      72.387  45.123   7.235  1.00  0.00    -0.067 NA
ATOM     19  H2  UNL     1      71.152  46.974   8.253  1.00  0.00     0.167 HD
ENDBRANCH  14  15
ENDBRANCH  13  14
ENDBRANCH   8  12
ENDBRANCH   6   8
ENDBRANCH   1   6
BRANCH   1  20
HETATM   20  C8  UNL     1      73.933  50.444   2.441  1.00  0.00     0.076 C 
BRANCH  20  21
HETATM   21  C9  UNL     1      74.816  51.641   2.555  1.00  0.00     0.012 C 
BRANCH  21  22
HETATM   22  C10 UNL     1      75.587  51.964   1.329  1.00  0.00    -0.014 C 
HETATM   23  C11 UNL     1      75.407  50.886   0.287  1.00  0.00     0.004 C 
HETATM   24  C12 UNL     1      76.063  51.278  -1.014  1.00  0.00     0.000 C 
HETATM   25  C13 UNL     1      77.524  51.547  -0.761  1.00  0.00     0.000 C 
HETATM   26  C14 UNL     1      77.622  52.700   0.219  1.00  0.00     0.000 C 
HETATM   27  C15 UNL     1      77.047  52.173   1.542  1.00  0.00     0.004 C 
ENDBRANCH  21  22
ENDBRANCH  20  21
ENDBRANCH   1  20
BRANCH   4  28
HETATM   28  C17 UNL     1      76.891  48.586   2.768  1.00  0.00     0.104 C 
HETATM   29  C18 UNL     1      77.512  48.111   1.448  1.00  0.00     0.017 C 
HETATM   30  C19 UNL     1      78.798  48.851   1.267  1.00  0.00     0.028 C 
HETATM   31  C20 UNL     1      79.706  48.823   2.452  1.00  0.00     0.232 C 
HETATM   32  N7  UNL     1      79.046  48.992   3.709  1.00  0.00    -0.074 N 
HETATM   33  C21 UNL     1      77.859  48.172   3.861  1.00  0.00     0.246 C 
ATOM     34  H72 UNL     1      79.694  48.831   4.480  1.00  0.00     0.277 HD
ATOM     35  H71 UNL     1      78.828  49.974   3.872  1.00  0.00     0.277 HD
ENDBRANCH   4  28
TORSDOF 10
ENDMDL
MODEL 3
REMARK VINA RESULT: -8.739564021      3.256      6.213
REMARK  10 active torsions:
REMARK  status: ('A' for Active; 'I' for Inactive)
REMARK    1  A    between atoms: C1_2  and  C2_4 
REMARK    2  A    between atoms: C2_4  and  C3_5 
REMARK    3  A    between atoms: C2_4  and  N5_13 
REMARK    4  A    between atoms: C4_6  and  C5_7 
REMARK    5  A    between atoms: C5_7  and  N2_8 
REMARK    6  A    between atoms: N5_13  and  C7_15 
REMARK    7  A    between atoms: C7_15  and  C8_16 
REMARK    8  A    between atoms: C8_16  and  C9_17 
REMARK    9  A    between atoms: C9_17  and  C10_18 
REMARK       I    between atoms: N6_24  and  C16_26 
REMARK   10  A    between atoms: C16_26  and  C17_28 
ROOT
HETATM    1  C7  UNL     1      75.984  50.692   2.733  1.00  0.00     0.080 C 
HETATM    2  N6  UNL     1      76.435  50.355   1.591  1.00  0.00    -0.317 N 
ATOM      3  H6  UNL     1      75.837  49.751   1.027  1.00  0.00     0.170 HD
HETATM    4  C16 UNL     1      77.667  50.723   1.022  1.00  0.00     0.228 C 
HETATM    5  O2  UNL     1      77.735  51.678   0.201  1.00  0.00    -0.273 OA
ENDROOT
BRANCH   1   6
HETATM    6  N5  UNL     1      74.712  50.217   3.134  1.00  0.00    -0.363 N 
ATOM      7  H5  UNL     1      74.109  50.792   3.723  1.00  0.00     0.162 HD
BRANCH   6   8
HETATM    8  C2  UNL     1      74.253  48.840   2.678  1.00  0.00     0.195 C 
BRANCH   8   9
HETATM    9  C1  UNL     1      75.108  47.911   3.391  1.00  0.00     0.257 C 
HETATM   10  N1  UNL     1      76.102  47.155   2.670  1.00  0.00    -0.060 NA
HETATM   11  O1  UNL     1      75.049  47.724   4.630  1.00  0.00    -0.274 OA
ENDBRANCH   8   9
BRANCH   8  12
HETATM   12  C3  UNL     1      72.812  48.900   2.845  1.00  0.00     0.008 C 
HETATM   13  C4  UNL     1      71.927  48.038   3.593  1.00  0.00     0.015 C 
BRANCH  13  14
HETATM   14  C5  UNL     1      71.948  47.980   5.072  1.00  0.00     0.090 C 
BRANCH  14  15
HETATM   15  N2  UNL     1      72.208  46.794   5.755  1.00  0.00    -0.343 N 
HETATM   16  C6  UNL     1      72.213  46.575   7.015  1.00  0.00     0.200 C 
HETATM   17  N3  UNL     1      71.928  47.620   7.932  1.00  0.00    -0.067 NA
HETATM   18  N4  UNL     1      72.507  45.280   7.509  1.00  0.00    -0.067 NA
ATOM     19  H2  UNL     1      72.424  45.989   5.169  1.00  0.00     0.167 HD
ENDBRANCH  14  15
ENDBRANCH  13  14
ENDBRANCH   8  12
ENDBRANCH   6   8
ENDBRANCH   1   6
BRANCH   1  20
HETATM   20  C8  UNL     1      76.756  51.582   3.669  1.00  0.00     0.076 C 
BRANCH  20  21
HETATM   21  C9  UNL     1      77.467  50.763   4.693  1.00  0.00     0.012 C 
BRANCH  21  22
HETATM   22  C10 UNL     1      77.368  51.280   6.081  1.00  0.00    -0.014 C 
HETATM   23  C11 UNL     1      75.932  51.278   6.548  1.00  0.00     0.004 C 
HETATM   24  C12 UNL     1      75.838  51.656   8.005  1.00  0.00     0.000 C 
HETATM   25  C13 UNL     1      76.469  53.012   8.198  1.00  0.00     0.000 C 
HETATM   26  C14 UNL     1      77.927  52.908   7.798  1.00  0.00     0.000 C 
HETATM   27  C15 UNL     1      77.928  52.645   6.285  1.00  0.00     0.004 C 
ENDBRANCH  21  22
ENDBRANCH  20  21
ENDBRANCH   1  20
BRANCH   4  28
HETATM   28  C17 UNL     1      78.891  50.003   1.376  1.00  0.00     0.104 C 
HETATM   29  C18 UNL     1      80.120  50.615   0.693  1.00  0.00     0.017 C 
HETATM   30  C19 UNL     1      81.328  49.940   1.255  1.00  0.00     0.028 C 
HETATM   31  C20 UNL     1      81.268  48.448   1.252  1.00  0.00     0.232 C 
HETATM   32  N7  UNL     1      80.000  47.904   1.630  1.00  0.00    -0.074 N 
HETATM   33  C21 UNL     1      78.873  48.540   0.974  1.00  0.00     0.246 C 
ATOM     34  H72 UNL     1      79.982  46.897   1.480  1.00  0.00     0.277 HD
ATOM     35  H71 UNL     1      79.887  47.928   2.643  1.00  0.00     0.277 HD
ENDBRANCH   4  28
TORSDOF 10
ENDMDL
MODEL 4
REMARK VINA RESULT: -8.728804131      1.601      4.485
REMARK  10 active torsions:
REMARK  status: ('A' for Active; 'I' for Inactive)
REMARK    1  A    between atoms: C1_2  and  C2_4 
REMARK    2  A    between atoms: C2_4  and  C3_5 
REMARK    3  A    between atoms: C2_4  and  N5_13 
REMARK    4  A    between atoms: C4_6  and  C5_7 
REMARK    5  A    between atoms: C5_7  and  N2_8 
REMARK    6  A    between atoms: N5_13  and  C7_15 
REMARK    7  A    between atoms: C7_15  and  C8_16 
REMARK    8  A    between atoms: C8_16  and  C9_17 
REMARK    9  A    between atoms: C9_17  and  C10_18 
REMARK       I    between atoms: N6_24  and  C16_26 
REMARK   10  A    between atoms: C16_26  and  C17_28 
ROOT
HETATM    1  C7  UNL     1      72.202  49.585   7.117  1.00  0.00     0.080 C 
HETATM    2  N6  UNL     1      72.282  49.676   8.385  1.00  0.00    -0.317 N 
ATOM      3  H6  UNL     1      71.993  48.857   8.918  1.00  0.00     0.170 HD
HETATM    4  C16 UNL     1      72.725  50.784   9.129  1.00  0.00     0.228 C 
HETATM    5  O2  UNL     1      73.909  50.835   9.561  1.00  0.00    -0.273 OA
ENDROOT
BRANCH   1   6
HETATM    6  N5  UNL     1      71.728  48.379   6.547  1.00  0.00    -0.363 N 
ATOM      7  H5  UNL     1      70.739  48.269   6.322  1.00  0.00     0.162 HD
BRANCH   6   8
HETATM    8  C2  UNL     1      72.707  47.247   6.274  1.00  0.00     0.195 C 
BRANCH   8   9
HETATM    9  C1  UNL     1      72.349  46.211   7.224  1.00  0.00     0.257 C 
HETATM   10  N1  UNL     1      71.923  46.575   8.553  1.00  0.00    -0.060 NA
HETATM   11  O1  UNL     1      72.372  44.986   6.958  1.00  0.00    -0.274 OA
ENDBRANCH   8   9
BRANCH   8  12
HETATM   12  C3  UNL     1      72.628  47.082   4.834  1.00  0.00     0.008 C 
HETATM   13  C4  UNL     1      73.351  47.756   3.781  1.00  0.00     0.015 C 
BRANCH  13  14
HETATM   14  C5  UNL     1      74.804  47.563   3.574  1.00  0.00     0.090 C 
BRANCH  14  15
HETATM   15  N2  UNL     1      75.556  48.439   2.795  1.00  0.00    -0.343 N 
HETATM   16  C6  UNL     1      76.149  48.221   1.683  1.00  0.00     0.200 C 
HETATM   17  N3  UNL     1      76.096  46.941   1.073  1.00  0.00    -0.067 NA
HETATM   18  N4  UNL     1      76.869  49.263   1.047  1.00  0.00    -0.067 NA
ATOM     19  H2  UNL     1      75.646  49.386   3.162  1.00  0.00     0.167 HD
ENDBRANCH  14  15
ENDBRANCH  13  14
ENDBRANCH   8  12
ENDBRANCH   6   8
ENDBRANCH   1   6
BRANCH   1  20
HETATM   20  C8  UNL     1      72.598  50.714   6.205  1.00  0.00     0.076 C 
BRANCH  20  21
HETATM   21  C9  UNL     1      73.998  50.525   5.725  1.00  0.00     0.012 C 
BRANCH  21  22
HETATM   22  C10 UNL     1      75.022  51.296   6.473  1.00  0.00    -0.014 C 
HETATM   23  C11 UNL     1      74.632  52.752   6.562  1.00  0.00     0.004 C 
HETATM   24  C12 UNL     1      75.586  53.513   7.448  1.00  0.00     0.000 C 
HETATM   25  C13 UNL     1      76.983  53.359   6.904  1.00  0.00     0.000 C 
HETATM   26  C14 UNL     1      77.336  51.885   6.935  1.00  0.00     0.000 C 
HETATM   27  C15 UNL     1      76.402  51.211   5.918  1.00  0.00     0.004 C 
ENDBRANCH  21  22
ENDBRANCH  20  21
ENDBRANCH   1  20
BRANCH   4  28
HETATM   28  C17 UNL     1      71.817  51.896   9.415  1.00  0.00     0.104 C 
HETATM   29  C18 UNL     1      72.588  53.190   9.702  1.00  0.00     0.017 C 
HETATM   30  C19 UNL     1      71.587  54.296   9.795  1.00  0.00     0.028 C 
HETATM   31  C20 UNL     1      70.434  54.020  10.702  1.00  0.00     0.232 C 
HETATM   32  N7  UNL     1      69.910  52.693  10.608  1.00  0.00    -0.074 N 
HETATM   33  C21 UNL     1      70.928  51.660  10.622  1.00  0.00     0.246 C 
ATOM     34  H72 UNL     1      69.220  52.526  11.340  1.00  0.00     0.277 HD
ATOM     35  H71 UNL     1      69.313  52.599   9.786  1.00  0.00     0.277 HD
ENDBRANCH   4  28
TORSDOF 10
ENDMDL
MODEL 5
REMARK VINA RESULT: -8.553156357      2.666      6.171
REMARK  10 active torsions:
REMARK  status: ('A' for Active; 'I' for Inactive)
REMARK    1  A    between atoms: C1_2  and  C2_4 
REMARK    2  A    between atoms: C2_4  and  C3_5 
REMARK    3  A    between atoms: C2_4  and  N5_13 
REMARK    4  A    between atoms: C4_6  and  C5_7 
REMARK    5  A    between atoms: C5_7  and  N2_8 
REMARK    6  A    between atoms: N5_13  and  C7_15 
REMARK    7  A    between atoms: C7_15  and  C8_16 
REMARK    8  A    between atoms: C8_16  and  C9_17 
REMARK    9  A    between atoms: C9_17  and  C10_18 
REMARK       I    between atoms: N6_24  and  C16_26 
REMARK   10  A    between atoms: C16_26  and  C17_28 
ROOT
HETATM    1  C7  UNL     1      75.415  51.553   7.105  1.00  0.00     0.080 C 
HETATM    2  N6  UNL     1      76.059  52.122   8.046  1.00  0.00    -0.317 N 
ATOM      3  H6  UNL     1      75.697  51.987   8.989  1.00  0.00     0.170 HD
HETATM    4  C16 UNL     1      77.214  52.914   7.925  1.00  0.00     0.228 C 
HETATM    5  O2  UNL     1      78.356  52.420   8.130  1.00  0.00    -0.273 OA
ENDROOT
BRANCH   1   6
HETATM    6  N5  UNL     1      74.267  50.791   7.426  1.00  0.00    -0.363 N 
ATOM      7  H5  UNL     1      74.232  49.795   7.208  1.00  0.00     0.162 HD
BRANCH   6   8
HETATM    8  C2  UNL     1      73.084  51.472   8.099  1.00  0.00     0.195 C 
BRANCH   8   9
HETATM    9  C1  UNL     1      72.266  51.958   7.004  1.00  0.00     0.257 C 
HETATM   10  N1  UNL     1      71.718  53.291   7.058  1.00  0.00    -0.060 NA
HETATM   11  O1  UNL     1      72.006  51.284   5.978  1.00  0.00    -0.274 OA
ENDBRANCH   8   9
BRANCH   8  12
HETATM   12  C3  UNL     1      72.636  50.481   9.061  1.00  0.00     0.008 C 
HETATM   13  C4  UNL     1      71.640  49.443   8.929  1.00  0.00     0.015 C 
BRANCH  13  14
HETATM   14  C5  UNL     1      71.832  48.276   8.039  1.00  0.00     0.090 C 
BRANCH  14  15
HETATM   15  N2  UNL     1      71.529  48.333   6.681  1.00  0.00    -0.343 N 
HETATM   16  C6  UNL     1      72.173  47.843   5.691  1.00  0.00     0.200 C 
HETATM   17  N3  UNL     1      73.377  47.120   5.897  1.00  0.00    -0.067 NA
HETATM   18  N4  UNL     1      71.686  48.018   4.371  1.00  0.00    -0.067 NA
ATOM     19  H2  UNL     1      70.675  48.837   6.443  1.00  0.00     0.167 HD
ENDBRANCH  14  15
ENDBRANCH  13  14
ENDBRANCH   8  12
ENDBRANCH   6   8
ENDBRANCH   1   6
BRANCH   1  20
HETATM   20  C8  UNL     1      75.837  51.662   5.665  1.00  0.00     0.076 C 
BRANCH  20  21
HETATM   21  C9  UNL     1      76.780  50.560   5.317  1.00  0.00     0.012 C 
BRANCH  21  22
HETATM   22  C10 UNL     1      76.385  49.755   4.134  1.00  0.00    -0.014 C 
HETATM   23  C11 UNL     1      74.898  49.854   3.894  1.00  0.00     0.004 C 
HETATM   24  C12 UNL     1      74.511  49.165   2.609  1.00  0.00     0.000 C 
HETATM   25  C13 UNL     1      74.954  47.726   2.677  1.00  0.00     0.000 C 
HETATM   26  C14 UNL     1      76.462  47.708   2.822  1.00  0.00     0.000 C 
HETATM   27  C15 UNL     1      76.755  48.314   4.203  1.00  0.00     0.004 C 
ENDBRANCH  21  22
ENDBRANCH  20  21
ENDBRANCH   1  20
BRANCH   4  28
HETATM   28  C17 UNL     1      77.108  54.328   7.559  1.00  0.00     0.104 C 
HETATM   29  C18 UNL     1      77.944  54.650   6.315  1.00  0.00     0.017 C 
HETATM   30  C19 UNL     1      77.627  56.054   5.914  1.00  0.00     0.028 C 
HETATM   31  C20 UNL     1      77.710  57.053   7.020  1.00  0.00     0.232 C 
HETATM   32  N7  UNL     1      77.164  56.608   8.264  1.00  0.00    -0.074 N 
HETATM   33  C21 UNL     1      77.588  55.273   8.645  1.00  0.00     0.246 C 
ATOM     34  H72 UNL     1      77.369  57.275   9.007  1.00  0.00     0.277 HD
ATOM     35  H71 UNL     1      76.146  56.672   8.253  1.00  0.00     0.277 HD
ENDBRANCH   4  28
TORSDOF 10
ENDMDL
