MODEL 1
REMARK VINA RESULT: -7.094605956      0.000      0.000
REMARK  10 active torsions:
REMARK  status: ('A' for Active; 'I' for Inactive)
REMARK    1  A    between atoms: C11_15  and  O3_16 
REMARK    2  A    between atoms: C12_18  and  N2_19 
REMARK    3  A    between atoms: N2_19  and  C13_21 
REMARK    4  A    between atoms: C13_21  and  C14_22 
REMARK    5  A    between atoms: C14_22  and  C15_23 
REMARK    6  A    between atoms: C15_23  and  C16_24 
REMARK    7  A    between atoms: C16_24  and  C17_25 
REMARK    8  A    between atoms: C17_25  and  C18_26 
REMARK    9  A    between atoms: C18_26  and  C19_27 
REMARK   10  A    between atoms: C19_27  and  N3_28 
ROOT
HETATM    1  C1  UNL     1      17.709  55.551  36.067  1.00  0.00     0.018 C 
HETATM    2  C2  UNL     1      19.045  54.951  36.448  1.00  0.00    -0.009 C 
HETATM    3  C3  UNL     1      20.033  55.142  35.368  1.00  0.00     0.018 C 
HETATM    4  C4  UNL     1      19.436  55.395  37.818  1.00  0.00     0.003 C 
HETATM    5  C5  UNL     1      20.861  55.235  38.218  1.00  0.00     0.006 C 
HETATM    6  C6  UNL     1      20.919  54.168  39.272  1.00  0.00     0.001 C 
HETATM    7  C7  UNL     1      19.512  53.752  39.506  1.00  0.00     0.008 C 
HETATM    8  C8  UNL     1      18.665  54.176  38.329  1.00  0.00     0.029 C 
HETATM    9  C9  UNL     1      18.912  53.521  37.020  1.00  0.00     0.107 C 
HETATM   10  O1  UNL     1      20.204  52.937  37.018  1.00  0.00    -0.289 OA
HETATM   11  C10 UNL     1      20.672  52.130  36.005  1.00  0.00     0.363 C 
HETATM   12  O2  UNL     1      21.904  51.968  35.729  1.00  0.00    -0.238 OA
HETATM   13  N1  UNL     1      19.669  51.462  35.252  1.00  0.00    -0.308 N 
ATOM     14  H1  UNL     1      19.857  51.081  34.325  1.00  0.00     0.167 HD
HETATM   15  C11 UNL     1      18.373  51.353  35.867  1.00  0.00     0.247 C 
HETATM   16  C12 UNL     1      17.869  52.728  36.349  1.00  0.00     0.162 C 
ENDROOT
BRANCH  16  17
HETATM   17  N2  UNL     1      16.623  52.518  36.927  1.00  0.00    -0.411 N 
ATOM     18  H2  UNL     1      15.798  52.832  36.414  1.00  0.00     0.153 HD
BRANCH  17  19
HETATM   19  C13 UNL     1      16.431  51.907  38.157  1.00  0.00     0.114 C 
BRANCH  19  20
HETATM   20  C14 UNL     1      15.333  52.695  38.900  1.00  0.00     0.019 C 
BRANCH  20  21
HETATM   21  C15 UNL     1      15.174  54.051  38.229  1.00  0.00     0.002 C 
BRANCH  21  22
HETATM   22  C16 UNL     1      15.411  55.101  39.283  1.00  0.00     0.000 C 
BRANCH  22  23
HETATM   23  C17 UNL     1      14.637  56.356  39.091  1.00  0.00     0.002 C 
BRANCH  23  24
HETATM   24  C18 UNL     1      14.926  57.188  37.906  1.00  0.00     0.027 C 
BRANCH  24  25
HETATM   25  C19 UNL     1      13.806  57.452  36.979  1.00  0.00     0.229 C 
BRANCH  25  26
HETATM   26  N3  UNL     1      13.462  56.379  36.120  1.00  0.00    -0.079 N 
ATOM     27  H33 UNL     1      14.297  55.847  35.874  1.00  0.00     0.274 HD
ATOM     28  H32 UNL     1      12.943  55.670  36.637  1.00  0.00     0.274 HD
ATOM     29  H31 UNL     1      12.953  56.641  35.276  1.00  0.00     0.274 HD
ENDBRANCH  25  26
ENDBRANCH  24  25
ENDBRANCH  23  24
ENDBRANCH  22  23
ENDBRANCH  21  22
ENDBRANCH  20  21
ENDBRANCH  19  20
ENDBRANCH  17  19
ENDBRANCH  16  17
BRANCH  15  30
HETATM   30  O3  UNL     1      17.410  50.881  34.954  1.00  0.00    -0.374 OA
ATOM     31  H3  UNL     1      17.494  49.944  34.817  1.00  0.00     0.212 HD
ENDBRANCH  15  30
TORSDOF 10
ENDMDL
MODEL 2
REMARK VINA RESULT: -7.094466605      1.592      2.034
REMARK  10 active torsions:
REMARK  status: ('A' for Active; 'I' for Inactive)
REMARK    1  A    between atoms: C11_15  and  O3_16 
REMARK    2  A    between atoms: C12_18  and  N2_19 
REMARK    3  A    between atoms: N2_19  and  C13_21 
REMARK    4  A    between atoms: C13_21  and  C14_22 
REMARK    5  A    between atoms: C14_22  and  C15_23 
REMARK    6  A    between atoms: C15_23  and  C16_24 
REMARK    7  A    between atoms: C16_24  and  C17_25 
REMARK    8  A    between atoms: C17_25  and  C18_26 
REMARK    9  A    between atoms: C18_26  and  C19_27 
REMARK   10  A    between atoms: C19_27  and  N3_28 
ROOT
HETATM    1  C1  UNL     1      18.507  55.879  36.311  1.00  0.00     0.018 C 
HETATM    2  C2  UNL     1      19.434  54.758  36.730  1.00  0.00    -0.009 C 
HETATM    3  C3  UNL     1      20.122  54.181  35.559  1.00  0.00     0.018 C 
HETATM    4  C4  UNL     1      20.286  55.196  37.875  1.00  0.00     0.003 C 
HETATM    5  C5  UNL     1      21.504  54.396  38.178  1.00  0.00     0.006 C 
HETATM    6  C6  UNL     1      21.273  53.695  39.485  1.00  0.00     0.001 C 
HETATM    7  C7  UNL     1      19.933  54.136  39.951  1.00  0.00     0.008 C 
HETATM    8  C8  UNL     1      19.158  54.695  38.781  1.00  0.00     0.029 C 
HETATM    9  C9  UNL     1      18.758  53.760  37.698  1.00  0.00     0.107 C 
HETATM   10  O1  UNL     1      19.570  52.599  37.752  1.00  0.00    -0.289 OA
HETATM   11  C10 UNL     1      19.351  51.482  36.976  1.00  0.00     0.363 C 
HETATM   12  O2  UNL     1      20.254  50.646  36.651  1.00  0.00    -0.238 OA
HETATM   13  N1  UNL     1      18.010  51.304  36.538  1.00  0.00    -0.308 N 
ATOM     14  H1  UNL     1      17.779  50.704  35.747  1.00  0.00     0.167 HD
HETATM   15  C11 UNL     1      16.998  52.017  37.270  1.00  0.00     0.247 C 
HETATM   16  C12 UNL     1      17.343  53.517  37.378  1.00  0.00     0.162 C 
ENDROOT
BRANCH  16  17
HETATM   17  N2  UNL     1      16.315  54.113  38.099  1.00  0.00    -0.411 N 
ATOM     18  H2  UNL     1      16.257  53.919  39.099  1.00  0.00     0.153 HD
BRANCH  17  19
HETATM   19  C13 UNL     1      15.363  54.954  37.541  1.00  0.00     0.114 C 
BRANCH  19  20
HETATM   20  C14 UNL     1      15.450  56.306  38.280  1.00  0.00     0.019 C 
BRANCH  20  21
HETATM   21  C15 UNL     1      14.889  56.126  39.683  1.00  0.00     0.002 C 
BRANCH  21  22
HETATM   22  C16 UNL     1      14.529  57.496  40.197  1.00  0.00     0.000 C 
BRANCH  22  23
HETATM   23  C17 UNL     1      14.547  58.567  39.166  1.00  0.00     0.002 C 
BRANCH  23  24
HETATM   24  C18 UNL     1      13.268  59.193  38.777  1.00  0.00     0.027 C 
BRANCH  24  25
HETATM   25  C19 UNL     1      12.630  58.706  37.536  1.00  0.00     0.229 C 
BRANCH  25  26
HETATM   26  N3  UNL     1      12.275  59.710  36.601  1.00  0.00    -0.079 N 
ATOM     27  H33 UNL     1      11.948  60.543  37.090  1.00  0.00     0.274 HD
ATOM     28  H32 UNL     1      13.111  60.081  36.152  1.00  0.00     0.274 HD
ATOM     29  H31 UNL     1      11.594  59.429  35.896  1.00  0.00     0.274 HD
ENDBRANCH  25  26
ENDBRANCH  24  25
ENDBRANCH  23  24
ENDBRANCH  22  23
ENDBRANCH  21  22
ENDBRANCH  20  21
ENDBRANCH  19  20
ENDBRANCH  17  19
ENDBRANCH  16  17
BRANCH  15  30
HETATM   30  O3  UNL     1      15.751  51.949  36.618  1.00  0.00    -0.374 OA
ATOM     31  H3  UNL     1      15.243  52.739  36.760  1.00  0.00     0.212 HD
ENDBRANCH  15  30
TORSDOF 10
ENDMDL
MODEL 3
REMARK VINA RESULT: -7.072914023      3.766      6.550
REMARK  10 active torsions:
REMARK  status: ('A' for Active; 'I' for Inactive)
REMARK    1  A    between atoms: C11_15  and  O3_16 
REMARK    2  A    between atoms: C12_18  and  N2_19 
REMARK    3  A    between atoms: N2_19  and  C13_21 
REMARK    4  A    between atoms: C13_21  and  C14_22 
REMARK    5  A    between atoms: C14_22  and  C15_23 
REMARK    6  A    between atoms: C15_23  and  C16_24 
REMARK    7  A    between atoms: C16_24  and  C17_25 
REMARK    8  A    between atoms: C17_25  and  C18_26 
REMARK    9  A    between atoms: C18_26  and  C19_27 
REMARK   10  A    between atoms: C19_27  and  N3_28 
ROOT
HETATM    1  C1  UNL     1      17.127  51.891  38.000  1.00  0.00     0.018 C 
HETATM    2  C2  UNL     1      16.656  53.182  37.366  1.00  0.00    -0.009 C 
HETATM    3  C3  UNL     1      16.403  52.996  35.924  1.00  0.00     0.018 C 
HETATM    4  C4  UNL     1      15.561  53.786  38.180  1.00  0.00     0.003 C 
HETATM    5  C5  UNL     1      14.716  54.830  37.539  1.00  0.00     0.006 C 
HETATM    6  C6  UNL     1      15.026  56.138  38.207  1.00  0.00     0.001 C 
HETATM    7  C7  UNL     1      16.020  55.826  39.267  1.00  0.00     0.008 C 
HETATM    8  C8  UNL     1      16.666  54.494  38.968  1.00  0.00     0.029 C 
HETATM    9  C9  UNL     1      17.532  54.392  37.766  1.00  0.00     0.107 C 
HETATM   10  O1  UNL     1      17.230  55.453  36.874  1.00  0.00    -0.289 OA
HETATM   11  C10 UNL     1      17.962  55.722  35.738  1.00  0.00     0.363 C 
HETATM   12  O2  UNL     1      17.501  56.319  34.713  1.00  0.00    -0.238 OA
HETATM   13  N1  UNL     1      19.312  55.279  35.770  1.00  0.00    -0.308 N 
ATOM     14  H1  UNL     1      19.858  55.158  34.918  1.00  0.00     0.167 HD
HETATM   15  C11 UNL     1      19.867  55.011  37.070  1.00  0.00     0.247 C 
HETATM   16  C12 UNL     1      18.961  54.057  37.875  1.00  0.00     0.162 C 
ENDROOT
BRANCH  16  17
HETATM   17  N2  UNL     1      19.577  53.864  39.106  1.00  0.00    -0.411 N 
ATOM     18  H2  UNL     1      19.385  52.996  39.606  1.00  0.00     0.153 HD
BRANCH  17  19
HETATM   19  C13 UNL     1      20.435  54.780  39.696  1.00  0.00     0.114 C 
BRANCH  19  20
HETATM   20  C14 UNL     1      21.636  53.994  40.259  1.00  0.00     0.019 C 
BRANCH  20  21
HETATM   21  C15 UNL     1      22.917  54.690  39.822  1.00  0.00     0.002 C 
BRANCH  21  22
HETATM   22  C16 UNL     1      22.876  56.089  40.378  1.00  0.00     0.000 C 
BRANCH  22  23
HETATM   23  C17 UNL     1      24.123  56.519  41.064  1.00  0.00     0.002 C 
BRANCH  23  24
HETATM   24  C18 UNL     1      24.103  57.773  41.843  1.00  0.00     0.027 C 
BRANCH  24  25
HETATM   25  C19 UNL     1      25.273  58.052  42.700  1.00  0.00     0.229 C 
BRANCH  25  26
HETATM   26  N3  UNL     1      25.345  59.368  43.221  1.00  0.00    -0.079 N 
ATOM     27  H33 UNL     1      24.505  59.577  43.761  1.00  0.00     0.274 HD
ATOM     28  H32 UNL     1      26.048  59.415  43.957  1.00  0.00     0.274 HD
ATOM     29  H31 UNL     1      25.510  60.102  42.532  1.00  0.00     0.274 HD
ENDBRANCH  25  26
ENDBRANCH  24  25
ENDBRANCH  23  24
ENDBRANCH  22  23
ENDBRANCH  21  22
ENDBRANCH  20  21
ENDBRANCH  19  20
ENDBRANCH  17  19
ENDBRANCH  16  17
BRANCH  15  30
HETATM   30  O3  UNL     1      21.118  54.370  36.970  1.00  0.00    -0.374 OA
ATOM     31  H3  UNL     1      21.104  53.518  37.390  1.00  0.00     0.212 HD
ENDBRANCH  15  30
TORSDOF 10
ENDMDL
MODEL 4
REMARK VINA RESULT: -7.034081692      1.317      1.569
REMARK  10 active torsions:
REMARK  status: ('A' for Active; 'I' for Inactive)
REMARK    1  A    between atoms: C11_15  and  O3_16 
REMARK    2  A    between atoms: C12_18  and  N2_19 
REMARK    3  A    between atoms: N2_19  and  C13_21 
REMARK    4  A    between atoms: C13_21  and  C14_22 
REMARK    5  A    between atoms: C14_22  and  C15_23 
REMARK    6  A    between atoms: C15_23  and  C16_24 
REMARK    7  A    between atoms: C16_24  and  C17_25 
REMARK    8  A    between atoms: C17_25  and  C18_26 
REMARK    9  A    between atoms: C18_26  and  C19_27 
REMARK   10  A    between atoms: C19_27  and  N3_28 
ROOT
HETATM    1  C1  UNL     1      17.672  55.544  36.077  1.00  0.00     0.018 C 
HETATM    2  C2  UNL     1      19.017  54.956  36.448  1.00  0.00    -0.009 C 
HETATM    3  C3  UNL     1      19.996  55.161  35.363  1.00  0.00     0.018 C 
HETATM    4  C4  UNL     1      19.412  55.399  37.818  1.00  0.00     0.003 C 
HETATM    5  C5  UNL     1      20.840  55.252  38.209  1.00  0.00     0.006 C 
HETATM    6  C6  UNL     1      20.915  54.182  39.259  1.00  0.00     0.001 C 
HETATM    7  C7  UNL     1      19.513  53.751  39.500  1.00  0.00     0.008 C 
HETATM    8  C8  UNL     1      18.655  54.171  38.329  1.00  0.00     0.029 C 
HETATM    9  C9  UNL     1      18.901  53.523  37.016  1.00  0.00     0.107 C 
HETATM   10  O1  UNL     1      20.199  52.951  37.005  1.00  0.00    -0.289 OA
HETATM   11  C10 UNL     1      20.669  52.152  35.986  1.00  0.00     0.363 C 
HETATM   12  O2  UNL     1      21.901  52.004  35.702  1.00  0.00    -0.238 OA
HETATM   13  N1  UNL     1      19.668  51.477  35.237  1.00  0.00    -0.308 N 
ATOM     14  H1  UNL     1      19.855  51.101  34.308  1.00  0.00     0.167 HD
HETATM   15  C11 UNL     1      18.377  51.353  35.859  1.00  0.00     0.247 C 
HETATM   16  C12 UNL     1      17.862  52.722  36.348  1.00  0.00     0.162 C 
ENDROOT
BRANCH  16  17
HETATM   17  N2  UNL     1      16.621  52.497  36.932  1.00  0.00    -0.411 N 
ATOM     18  H2  UNL     1      15.789  52.762  36.405  1.00  0.00     0.153 HD
BRANCH  17  19
HETATM   19  C13 UNL     1      16.446  51.935  38.189  1.00  0.00     0.114 C 
BRANCH  19  20
HETATM   20  C14 UNL     1      15.314  52.714  38.890  1.00  0.00     0.019 C 
BRANCH  20  21
HETATM   21  C15 UNL     1      15.169  54.069  38.213  1.00  0.00     0.002 C 
BRANCH  21  22
HETATM   22  C16 UNL     1      15.489  55.119  39.245  1.00  0.00     0.000 C 
BRANCH  22  23
HETATM   23  C17 UNL     1      14.948  56.470  38.941  1.00  0.00     0.002 C 
BRANCH  23  24
HETATM   24  C18 UNL     1      14.530  57.332  40.064  1.00  0.00     0.027 C 
BRANCH  24  25
HETATM   25  C19 UNL     1      14.591  56.747  41.420  1.00  0.00     0.229 C 
BRANCH  25  26
HETATM   26  N3  UNL     1      13.346  56.630  42.088  1.00  0.00    -0.079 N 
ATOM     27  H33 UNL     1      13.190  55.663  42.370  1.00  0.00     0.274 HD
ATOM     28  H32 UNL     1      13.397  57.078  43.003  1.00  0.00     0.274 HD
ATOM     29  H31 UNL     1      12.539  56.979  41.572  1.00  0.00     0.274 HD
ENDBRANCH  25  26
ENDBRANCH  24  25
ENDBRANCH  23  24
ENDBRANCH  22  23
ENDBRANCH  21  22
ENDBRANCH  20  21
ENDBRANCH  19  20
ENDBRANCH  17  19
ENDBRANCH  16  17
BRANCH  15  30
HETATM   30  O3  UNL     1      17.414  50.875  34.949  1.00  0.00    -0.374 OA
ATOM     31  H3  UNL     1      16.536  51.130  35.210  1.00  0.00     0.212 HD
ENDBRANCH  15  30
TORSDOF 10
ENDMDL
MODEL 5
REMARK VINA RESULT: -7.024543658      2.079      2.602
REMARK  10 active torsions:
REMARK  status: ('A' for Active; 'I' for Inactive)
REMARK    1  A    between atoms: C11_15  and  O3_16 
REMARK    2  A    between atoms: C12_18  and  N2_19 
REMARK    3  A    between atoms: N2_19  and  C13_21 
REMARK    4  A    between atoms: C13_21  and  C14_22 
REMARK    5  A    between atoms: C14_22  and  C15_23 
REMARK    6  A    between atoms: C15_23  and  C16_24 
REMARK    7  A    between atoms: C16_24  and  C17_25 
REMARK    8  A    between atoms: C17_25  and  C18_26 
REMARK    9  A    between atoms: C18_26  and  C19_27 
REMARK   10  A    between atoms: C19_27  and  N3_28 
ROOT
HETATM    1  C1  UNL     1      18.347  55.749  36.424  1.00  0.00     0.018 C 
HETATM    2  C2  UNL     1      19.369  54.692  36.786  1.00  0.00    -0.009 C 
HETATM    3  C3  UNL     1      20.081  54.218  35.583  1.00  0.00     0.018 C 
HETATM    4  C4  UNL     1      20.201  55.152  37.936  1.00  0.00     0.003 C 
HETATM    5  C5  UNL     1      21.484  54.443  38.190  1.00  0.00     0.006 C 
HETATM    6  C6  UNL     1      21.333  53.675  39.471  1.00  0.00     0.001 C 
HETATM    7  C7  UNL     1      19.969  53.988  39.972  1.00  0.00     0.008 C 
HETATM    8  C8  UNL     1      19.132  54.527  38.836  1.00  0.00     0.029 C 
HETATM    9  C9  UNL     1      18.791  53.605  37.722  1.00  0.00     0.107 C 
HETATM   10  O1  UNL     1      19.695  52.512  37.718  1.00  0.00    -0.289 OA
HETATM   11  C10 UNL     1      19.553  51.412  36.902  1.00  0.00     0.363 C 
HETATM   12  O2  UNL     1      20.516  50.665  36.531  1.00  0.00    -0.238 OA
HETATM   13  N1  UNL     1      18.225  51.144  36.474  1.00  0.00    -0.308 N 
ATOM     14  H1  UNL     1      18.029  50.557  35.663  1.00  0.00     0.167 HD
HETATM   15  C11 UNL     1      17.170  51.743  37.247  1.00  0.00     0.247 C 
HETATM   16  C12 UNL     1      17.395  53.261  37.411  1.00  0.00     0.162 C 
ENDROOT
BRANCH  16  17
HETATM   17  N2  UNL     1      16.334  53.743  38.168  1.00  0.00    -0.411 N 
ATOM     18  H2  UNL     1      16.079  53.232  39.014  1.00  0.00     0.153 HD
BRANCH  17  19
HETATM   19  C13 UNL     1      15.602  54.876  37.845  1.00  0.00     0.114 C 
BRANCH  19  20
HETATM   20  C14 UNL     1      15.541  55.764  39.104  1.00  0.00     0.019 C 
BRANCH  20  21
HETATM   21  C15 UNL     1      14.795  57.044  38.757  1.00  0.00     0.002 C 
BRANCH  21  22
HETATM   22  C16 UNL     1      14.418  57.706  40.056  1.00  0.00     0.000 C 
BRANCH  22  23
HETATM   23  C17 UNL     1      14.570  56.842  41.257  1.00  0.00     0.002 C 
BRANCH  23  24
HETATM   24  C18 UNL     1      13.357  56.453  42.003  1.00  0.00     0.027 C 
BRANCH  24  25
HETATM   25  C19 UNL     1      12.814  55.103  41.749  1.00  0.00     0.229 C 
BRANCH  25  26
HETATM   26  N3  UNL     1      11.759  54.701  42.606  1.00  0.00    -0.079 N 
ATOM     27  H33 UNL     1      10.948  55.304  42.469  1.00  0.00     0.274 HD
ATOM     28  H32 UNL     1      11.376  53.809  42.294  1.00  0.00     0.274 HD
ATOM     29  H31 UNL     1      11.996  54.652  43.597  1.00  0.00     0.274 HD
ENDBRANCH  25  26
ENDBRANCH  24  25
ENDBRANCH  23  24
ENDBRANCH  22  23
ENDBRANCH  21  22
ENDBRANCH  20  21
ENDBRANCH  19  20
ENDBRANCH  17  19
ENDBRANCH  16  17
BRANCH  15  30
HETATM   30  O3  UNL     1      15.922  51.599  36.610  1.00  0.00    -0.374 OA
ATOM     31  H3  UNL     1      15.227  52.000  37.118  1.00  0.00     0.212 HD
ENDBRANCH  15  30
TORSDOF 10
ENDMDL
