MODEL 1
REMARK VINA RESULT: -6.922533138      0.000      0.000
REMARK  3 active torsions:
REMARK  status: ('A' for Active; 'I' for Inactive)
REMARK    1  A    between atoms: N1_1  and  C1_4 
REMARK    2  A    between atoms: C2_9  and  C3_10 
REMARK       I    between atoms: C3_10  and  N4_12 
REMARK    3  A    between atoms: N4_12  and  N5_14 
ROOT
HETATM    1  C1  UNL     1     -12.968  59.619   7.981  1.00  0.00     0.693 A 
HETATM    2  N2  UNL     1     -12.541  59.374   9.233  1.00  0.00    -0.132 N 
ATOM      3  H2  UNL     1     -11.540  59.383   9.427  1.00  0.00     0.205 HD
HETATM    4  N3  UNL     1     -13.395  59.118  10.231  1.00  0.00    -0.277 N 
ATOM      5  H3  UNL     1     -13.027  58.938  11.165  1.00  0.00     0.188 HD
HETATM    6  C2  UNL     1     -14.727  59.091  10.034  1.00  0.00     0.187 A 
HETATM    7  C4  UNL     1     -15.167  59.343   8.752  1.00  0.00     0.293 A 
HETATM    8  O2  UNL     1     -16.395  59.323   8.550  1.00  0.00    -0.265 OA
HETATM    9  N6  UNL     1     -14.291  59.601   7.748  1.00  0.00    -0.153 N 
ATOM     10  H6  UNL     1     -14.641  59.784   6.808  1.00  0.00     0.187 HD
ENDROOT
BRANCH   6  11
HETATM   11  C3  UNL     1     -15.658  58.811  11.131  1.00  0.00     0.293 C 
HETATM   12  O1  UNL     1     -15.633  57.714  11.708  1.00  0.00    -0.264 OA
HETATM   13  N4  UNL     1     -16.605  59.769  11.566  1.00  0.00    -0.271 N 
ATOM     14  H4  UNL     1     -16.639  60.677  11.102  1.00  0.00     0.189 HD
BRANCH  13  15
HETATM   15  N5  UNL     1     -17.479  59.516  12.590  1.00  0.00    -0.342 N 
ATOM     16  H52 UNL     1     -17.109  59.088  13.439  1.00  0.00     0.176 HD
ATOM     17  H51 UNL     1     -18.472  59.741  12.524  1.00  0.00     0.176 HD
ENDBRANCH  13  15
ENDBRANCH   6  11
BRANCH   1  18
HETATM   18  N1  UNL     1     -12.122  59.866   7.027  1.00  0.00    -0.233 N 
ATOM     19  H12 UNL     1     -11.556  59.123   6.617  1.00  0.00     0.174 HD
ATOM     20  H11 UNL     1     -12.004  60.813   6.667  1.00  0.00     0.174 HD
ENDBRANCH   1  18
TORSDOF 3
ENDMDL
MODEL 2
REMARK VINA RESULT: -6.722929820      1.872      4.847
REMARK  3 active torsions:
REMARK  status: ('A' for Active; 'I' for Inactive)
REMARK    1  A    between atoms: N1_1  and  C1_4 
REMARK    2  A    between atoms: C2_9  and  C3_10 
REMARK       I    between atoms: C3_10  and  N4_12 
REMARK    3  A    between atoms: N4_12  and  N5_14 
ROOT
HETATM    1  C1  UNL     1     -16.270  59.187  11.171  1.00  0.00     0.693 A 
HETATM    2  N2  UNL     1     -16.628  58.939   9.898  1.00  0.00    -0.132 N 
ATOM      3  H2  UNL     1     -17.600  58.709   9.692  1.00  0.00     0.205 HD
HETATM    4  N3  UNL     1     -15.745  58.987   8.895  1.00  0.00    -0.277 N 
ATOM      5  H3  UNL     1     -16.061  58.793   7.946  1.00  0.00     0.188 HD
HETATM    6  C2  UNL     1     -14.449  59.285   9.107  1.00  0.00     0.187 A 
HETATM    7  C4  UNL     1     -14.078  59.540  10.410  1.00  0.00     0.293 A 
HETATM    8  O2  UNL     1     -12.884  59.818  10.626  1.00  0.00    -0.265 OA
HETATM    9  N6  UNL     1     -14.984  59.488  11.419  1.00  0.00    -0.153 N 
ATOM     10  H6  UNL     1     -14.686  59.680  12.375  1.00  0.00     0.187 HD
ENDROOT
BRANCH   6  11
HETATM   11  C3  UNL     1     -13.484  59.337   8.004  1.00  0.00     0.293 C 
HETATM   12  O1  UNL     1     -13.554  60.236   7.153  1.00  0.00    -0.264 OA
HETATM   13  N4  UNL     1     -12.451  58.378   7.874  1.00  0.00    -0.271 N 
ATOM     14  H4  UNL     1     -12.379  57.632   8.566  1.00  0.00     0.189 HD
BRANCH  13  15
HETATM   15  N5  UNL     1     -11.545  58.419   6.848  1.00  0.00    -0.342 N 
ATOM     16  H52 UNL     1     -11.739  59.041   6.064  1.00  0.00     0.176 HD
ATOM     17  H51 UNL     1     -10.696  57.852   6.851  1.00  0.00     0.176 HD
ENDBRANCH  13  15
ENDBRANCH   6  11
BRANCH   1  18
HETATM   18  N1  UNL     1     -17.144  59.135  12.130  1.00  0.00    -0.233 N 
ATOM     19  H12 UNL     1     -18.122  58.916  11.941  1.00  0.00     0.174 HD
ATOM     20  H11 UNL     1     -16.870  59.314  13.096  1.00  0.00     0.174 HD
ENDBRANCH   1  18
TORSDOF 3
ENDMDL
MODEL 3
REMARK VINA RESULT: -6.656345207      1.272      1.855
REMARK  3 active torsions:
REMARK  status: ('A' for Active; 'I' for Inactive)
REMARK    1  A    between atoms: N1_1  and  C1_4 
REMARK    2  A    between atoms: C2_9  and  C3_10 
REMARK       I    between atoms: C3_10  and  N4_12 
REMARK    3  A    between atoms: N4_12  and  N5_14 
ROOT
HETATM    1  C1  UNL     1     -13.600  59.881   7.341  1.00  0.00     0.693 A 
HETATM    2  N2  UNL     1     -14.874  59.449   7.284  1.00  0.00    -0.132 N 
ATOM      3  H2  UNL     1     -15.327  59.359   6.375  1.00  0.00     0.205 HD
HETATM    4  N3  UNL     1     -15.562  59.137   8.387  1.00  0.00    -0.277 N 
ATOM      5  H3  UNL     1     -16.525  58.814   8.297  1.00  0.00     0.188 HD
HETATM    6  C2  UNL     1     -15.017  59.237   9.614  1.00  0.00     0.187 A 
HETATM    7  C4  UNL     1     -13.712  59.678   9.677  1.00  0.00     0.293 A 
HETATM    8  O2  UNL     1     -13.190  59.777  10.802  1.00  0.00    -0.265 OA
HETATM    9  N6  UNL     1     -13.024  59.992   8.550  1.00  0.00    -0.153 N 
ATOM     10  H6  UNL     1     -12.060  60.317   8.621  1.00  0.00     0.187 HD
ENDROOT
BRANCH   6  11
HETATM   11  C3  UNL     1     -15.775  58.892  10.821  1.00  0.00     0.293 C 
HETATM   12  O1  UNL     1     -15.752  57.735  11.265  1.00  0.00    -0.264 OA
HETATM   13  N4  UNL     1     -16.548  59.855  11.515  1.00  0.00    -0.271 N 
ATOM     14  H4  UNL     1     -16.577  60.812  11.163  1.00  0.00     0.189 HD
BRANCH  13  15
HETATM   15  N5  UNL     1     -17.258  59.542  12.643  1.00  0.00    -0.342 N 
ATOM     16  H52 UNL     1     -17.864  60.260  13.040  1.00  0.00     0.176 HD
ATOM     17  H51 UNL     1     -17.196  58.626  13.086  1.00  0.00     0.176 HD
ENDBRANCH  13  15
ENDBRANCH   6  11
BRANCH   1  18
HETATM   18  N1  UNL     1     -12.950  60.178   6.257  1.00  0.00    -0.233 N 
ATOM     19  H12 UNL     1     -12.016  59.808   6.083  1.00  0.00     0.174 HD
ATOM     20  H11 UNL     1     -13.363  60.792   5.554  1.00  0.00     0.174 HD
ENDBRANCH   1  18
TORSDOF 3
ENDMDL
MODEL 4
REMARK VINA RESULT: -6.631719417      2.510      4.489
REMARK  3 active torsions:
REMARK  status: ('A' for Active; 'I' for Inactive)
REMARK    1  A    between atoms: N1_1  and  C1_4 
REMARK    2  A    between atoms: C2_9  and  C3_10 
REMARK       I    between atoms: C3_10  and  N4_12 
REMARK    3  A    between atoms: N4_12  and  N5_14 
ROOT
HETATM    1  C1  UNL     1     -17.499  58.588   8.199  1.00  0.00     0.693 A 
HETATM    2  N2  UNL     1     -16.933  58.846   9.393  1.00  0.00    -0.132 N 
ATOM      3  H2  UNL     1     -17.525  58.891  10.223  1.00  0.00     0.205 HD
HETATM    4  N3  UNL     1     -15.617  59.047   9.521  1.00  0.00    -0.277 N 
ATOM      5  H3  UNL     1     -15.232  59.239  10.445  1.00  0.00     0.188 HD
HETATM    6  C2  UNL     1     -14.788  59.001   8.461  1.00  0.00     0.187 A 
HETATM    7  C4  UNL     1     -15.363  58.735   7.236  1.00  0.00     0.293 A 
HETATM    8  O2  UNL     1     -14.613  58.689   6.244  1.00  0.00    -0.265 OA
HETATM    9  N6  UNL     1     -16.700  58.534   7.120  1.00  0.00    -0.153 N 
ATOM     10  H6  UNL     1     -17.103  58.340   6.203  1.00  0.00     0.187 HD
ENDROOT
BRANCH   6  11
HETATM   11  C3  UNL     1     -13.345  59.221   8.606  1.00  0.00     0.293 C 
HETATM   12  O1  UNL     1     -12.921  60.132   9.331  1.00  0.00    -0.264 OA
HETATM   13  N4  UNL     1     -12.398  58.410   7.935  1.00  0.00    -0.271 N 
ATOM     14  H4  UNL     1     -12.730  57.655   7.335  1.00  0.00     0.189 HD
BRANCH  13  15
HETATM   15  N5  UNL     1     -11.049  58.607   8.065  1.00  0.00    -0.342 N 
ATOM     16  H52 UNL     1     -10.451  57.785   8.140  1.00  0.00     0.176 HD
ATOM     17  H51 UNL     1     -10.637  59.540   8.088  1.00  0.00     0.176 HD
ENDBRANCH  13  15
ENDBRANCH   6  11
BRANCH   1  18
HETATM   18  N1  UNL     1     -18.779  58.396   8.098  1.00  0.00    -0.233 N 
ATOM     19  H12 UNL     1     -19.158  57.481   7.853  1.00  0.00     0.174 HD
ATOM     20  H11 UNL     1     -19.436  59.159   8.263  1.00  0.00     0.174 HD
ENDBRANCH   1  18
TORSDOF 3
ENDMDL
MODEL 5
REMARK VINA RESULT: -6.512012644      1.594      4.493
REMARK  3 active torsions:
REMARK  status: ('A' for Active; 'I' for Inactive)
REMARK    1  A    between atoms: N1_1  and  C1_4 
REMARK    2  A    between atoms: C2_9  and  C3_10 
REMARK       I    between atoms: C3_10  and  N4_12 
REMARK    3  A    between atoms: N4_12  and  N5_14 
ROOT
HETATM    1  C1  UNL     1     -16.552  59.175  11.685  1.00  0.00     0.693 A 
HETATM    2  N2  UNL     1     -15.259  59.423  11.965  1.00  0.00    -0.132 N 
ATOM      3  H2  UNL     1     -14.980  59.563  12.936  1.00  0.00     0.205 HD
HETATM    4  N3  UNL     1     -14.330  59.490  11.005  1.00  0.00    -0.277 N 
ATOM      5  H3  UNL     1     -13.363  59.680  11.263  1.00  0.00     0.188 HD
HETATM    6  C2  UNL     1     -14.640  59.314   9.706  1.00  0.00     0.187 A 
HETATM    7  C4  UNL     1     -15.964  59.060   9.415  1.00  0.00     0.293 A 
HETATM    8  O2  UNL     1     -16.271  58.894   8.221  1.00  0.00    -0.265 OA
HETATM    9  N6  UNL     1     -16.897  58.994  10.399  1.00  0.00    -0.153 N 
ATOM     10  H6  UNL     1     -17.870  58.805  10.159  1.00  0.00     0.187 HD
ENDROOT
BRANCH   6  11
HETATM   11  C3  UNL     1     -13.619  59.388   8.657  1.00  0.00     0.293 C 
HETATM   12  O1  UNL     1     -12.974  60.432   8.485  1.00  0.00    -0.264 OA
HETATM   13  N4  UNL     1     -13.334  58.285   7.817  1.00  0.00    -0.271 N 
ATOM     14  H4  UNL     1     -13.855  57.418   7.946  1.00  0.00     0.189 HD
BRANCH  13  15
HETATM   15  N5  UNL     1     -12.381  58.344   6.835  1.00  0.00    -0.342 N 
ATOM     16  H52 UNL     1     -12.210  59.246   6.390  1.00  0.00     0.176 HD
ATOM     17  H51 UNL     1     -11.849  57.524   6.545  1.00  0.00     0.176 HD
ENDBRANCH  13  15
ENDBRANCH   6  11
BRANCH   1  18
HETATM   18  N1  UNL     1     -17.437  59.114  12.633  1.00  0.00    -0.233 N 
ATOM     19  H12 UNL     1     -17.159  59.077  13.613  1.00  0.00     0.174 HD
ATOM     20  H11 UNL     1     -18.434  59.102  12.416  1.00  0.00     0.174 HD
ENDBRANCH   1  18
TORSDOF 3
ENDMDL
