MODEL 1
REMARK VINA RESULT: -9.696553559      0.000      0.000
REMARK  13 active torsions:
REMARK  status: ('A' for Active; 'I' for Inactive)
REMARK    1  A    between atoms: C1_2  and  C2_3 
REMARK       I    between atoms: C1_2  and  N5_30 
REMARK    2  A    between atoms: C2_3  and  C3_4 
REMARK    3  A    between atoms: C3_4  and  C4_5 
REMARK    4  A    between atoms: C4_5  and  N1_6 
REMARK    5  A    between atoms: N1_6  and  C5_8 
REMARK    6  A    between atoms: C5_8  and  C6_9 
REMARK    7  A    between atoms: C6_9  and  N2_10 
REMARK    8  A    between atoms: C6_9  and  C10_16 
REMARK    9  A    between atoms: N2_10  and  C7_13 
REMARK   10  A    between atoms: C13_19  and  N3_20 
REMARK   11  A    between atoms: N6_33  and  C22_34 
REMARK   12  A    between atoms: C22_34  and  O2_35 
REMARK   13  A    between atoms: C22_34  and  C23_37 
ROOT
HETATM    1  C4  UNL     1      18.385  24.531  14.707  1.00  0.00     0.114 C 
ENDROOT
BRANCH   1   2
HETATM    2  C3  UNL     1      18.872  25.570  13.805  1.00  0.00     0.028 C 
BRANCH   2   3
HETATM    3  C2  UNL     1      19.352  26.870  14.308  1.00  0.00     0.104 C 
BRANCH   3   4
HETATM    4  C1  UNL     1      20.805  27.080  14.334  1.00  0.00     0.219 C 
HETATM    5  O1  UNL     1      21.366  27.561  13.304  1.00  0.00    -0.273 OA
HETATM    6  N5  UNL     1      21.605  26.770  15.455  1.00  0.00    -0.349 N 
HETATM    7  C20 UNL     1      21.110  26.236  16.698  1.00  0.00     0.145 C 
HETATM    8  C34 UNL     1      23.062  26.997  15.431  1.00  0.00     0.145 C 
HETATM    9  C21 UNL     1      21.542  27.291  17.746  1.00  0.00     0.139 C 
HETATM   10  N6  UNL     1      22.913  27.320  17.888  1.00  0.00    -0.384 N 
HETATM   11  C33 UNL     1      23.544  27.733  16.638  1.00  0.00     0.139 C 
BRANCH  10  12
HETATM   12  C22 UNL     1      23.714  26.657  18.779  1.00  0.00     0.224 C 
BRANCH  12  13
HETATM   13  O2  UNL     1      24.788  27.515  19.177  1.00  0.00    -0.376 OA
ATOM     14  H2  UNL     1      25.528  26.984  19.448  1.00  0.00     0.212 HD
ENDBRANCH  12  13
BRANCH  12  15
HETATM   15  C23 UNL     1      23.185  26.087  20.066  1.00  0.00     0.004 C 
HETATM   16  C24 UNL     1      24.415  25.883  21.011  1.00  0.00     0.018 C 
HETATM   17  C25 UNL     1      23.912  25.347  22.308  1.00  0.00    -0.013 C 
HETATM   18  C26 UNL     1      23.317  23.960  22.129  1.00  0.00     0.009 C 
HETATM   19  C30 UNL     1      22.906  26.235  22.972  1.00  0.00     0.009 C 
HETATM   20  C27 UNL     1      22.133  24.119  21.196  1.00  0.00    -0.013 C 
HETATM   21  C28 UNL     1      21.113  25.029  21.792  1.00  0.00     0.009 C 
HETATM   22  C32 UNL     1      22.675  24.688  19.886  1.00  0.00     0.018 C 
HETATM   23  C29 UNL     1      21.730  26.376  22.011  1.00  0.00    -0.013 C 
HETATM   24  C31 UNL     1      22.262  27.019  20.770  1.00  0.00     0.018 C 
ENDBRANCH  12  15
ENDBRANCH  10  12
ENDBRANCH   3   4
ENDBRANCH   2   3
ENDBRANCH   1   2
BRANCH   1  25
HETATM   25  N1  UNL     1      17.560  24.865  15.804  1.00  0.00    -0.419 N 
ATOM     26  H1  UNL     1      16.961  25.691  15.800  1.00  0.00     0.153 HD
BRANCH  25  27
HETATM   27  C5  UNL     1      17.617  23.978  16.912  1.00  0.00     0.151 C 
BRANCH  27  28
HETATM   28  C6  UNL     1      17.678  22.542  16.565  1.00  0.00     0.236 C 
BRANCH  28  29
HETATM   29  N2  UNL     1      18.326  21.758  17.637  1.00  0.00    -0.061 N 
ATOM     30  H22 UNL     1      17.689  21.065  18.030  1.00  0.00     0.278 HD
ATOM     31  H21 UNL     1      19.034  21.127  17.264  1.00  0.00     0.278 HD
BRANCH  29  32
HETATM   32  C7  UNL     1      18.872  22.619  18.666  1.00  0.00     0.187 A 
HETATM   33  C8  UNL     1      19.472  21.955  19.912  1.00  0.00     0.035 A 
HETATM   34  C9  UNL     1      18.229  22.793  19.965  1.00  0.00     0.035 A 
ENDBRANCH  29  32
ENDBRANCH  28  29
BRANCH  28  35
HETATM   35  C10 UNL     1      16.317  21.907  16.371  1.00  0.00    -0.026 A 
HETATM   36  C11 UNL     1      15.588  21.549  17.492  1.00  0.00     0.011 A 
HETATM   37  C12 UNL     1      14.314  21.013  17.369  1.00  0.00     0.030 A 
HETATM   38  C13 UNL     1      13.724  20.815  16.147  1.00  0.00     0.030 A 
HETATM   39  C18 UNL     1      14.438  21.167  15.026  1.00  0.00     0.030 A 
HETATM   40  C19 UNL     1      15.732  21.712  15.151  1.00  0.00     0.011 A 
BRANCH  38  41
HETATM   41  N3  UNL     1      12.386  20.291  15.978  1.00  0.00    -0.378 N 
HETATM   42  C14 UNL     1      11.551  20.670  14.887  1.00  0.00     0.150 C 
HETATM   43  C15 UNL     1      10.105  20.844  15.213  1.00  0.00     0.252 C 
HETATM   44  N4  UNL     1       9.696  20.123  16.399  1.00  0.00    -0.072 N 
HETATM   45  C16 UNL     1      10.512  18.937  16.612  1.00  0.00     0.252 C 
ATOM     46  H42 UNL     1       9.695  20.727  17.220  1.00  0.00     0.277 HD
ATOM     47  H41 UNL     1       8.703  19.892  16.371  1.00  0.00     0.277 HD
HETATM   48  C17 UNL     1      11.890  19.375  16.986  1.00  0.00     0.150 C 
ENDBRANCH  38  41
ENDBRANCH  28  35
ENDBRANCH  27  28
ENDBRANCH  25  27
ENDBRANCH   1  25
TORSDOF 13
ENDMDL
MODEL 2
REMARK VINA RESULT: -9.406583417      1.972      2.491
REMARK  13 active torsions:
REMARK  status: ('A' for Active; 'I' for Inactive)
REMARK    1  A    between atoms: C1_2  and  C2_3 
REMARK       I    between atoms: C1_2  and  N5_30 
REMARK    2  A    between atoms: C2_3  and  C3_4 
REMARK    3  A    between atoms: C3_4  and  C4_5 
REMARK    4  A    between atoms: C4_5  and  N1_6 
REMARK    5  A    between atoms: N1_6  and  C5_8 
REMARK    6  A    between atoms: C5_8  and  C6_9 
REMARK    7  A    between atoms: C6_9  and  N2_10 
REMARK    8  A    between atoms: C6_9  and  C10_16 
REMARK    9  A    between atoms: N2_10  and  C7_13 
REMARK   10  A    between atoms: C13_19  and  N3_20 
REMARK   11  A    between atoms: N6_33  and  C22_34 
REMARK   12  A    between atoms: C22_34  and  O2_35 
REMARK   13  A    between atoms: C22_34  and  C23_37 
ROOT
HETATM    1  C4  UNL     1      17.836  23.831  15.436  1.00  0.00     0.114 C 
ENDROOT
BRANCH   1   2
HETATM    2  C3  UNL     1      18.438  24.701  14.430  1.00  0.00     0.028 C 
BRANCH   2   3
HETATM    3  C2  UNL     1      18.727  26.120  14.707  1.00  0.00     0.104 C 
BRANCH   3   4
HETATM    4  C1  UNL     1      20.129  26.547  14.604  1.00  0.00     0.219 C 
HETATM    5  O1  UNL     1      20.516  27.098  13.530  1.00  0.00    -0.273 OA
HETATM    6  N5  UNL     1      21.064  26.371  15.647  1.00  0.00    -0.349 N 
HETATM    7  C20 UNL     1      20.768  25.779  16.927  1.00  0.00     0.145 C 
HETATM    8  C34 UNL     1      22.461  26.815  15.493  1.00  0.00     0.145 C 
HETATM    9  C21 UNL     1      21.128  26.897  17.936  1.00  0.00     0.139 C 
HETATM   10  N6  UNL     1      22.487  27.133  17.955  1.00  0.00    -0.384 N 
HETATM   11  C33 UNL     1      22.933  27.625  16.655  1.00  0.00     0.139 C 
BRANCH  10  12
HETATM   12  C22 UNL     1      23.455  26.606  18.767  1.00  0.00     0.224 C 
BRANCH  12  13
HETATM   13  O2  UNL     1      24.460  27.596  19.005  1.00  0.00    -0.376 OA
ATOM     14  H2  UNL     1      24.722  27.563  19.918  1.00  0.00     0.212 HD
ENDBRANCH  12  13
BRANCH  12  15
HETATM   15  C23 UNL     1      23.145  26.044  20.127  1.00  0.00     0.004 C 
HETATM   16  C24 UNL     1      24.514  25.843  20.857  1.00  0.00     0.018 C 
HETATM   17  C25 UNL     1      24.231  25.314  22.222  1.00  0.00    -0.013 C 
HETATM   18  C26 UNL     1      23.615  23.926  22.150  1.00  0.00     0.009 C 
HETATM   19  C30 UNL     1      23.348  26.206  23.038  1.00  0.00     0.009 C 
HETATM   20  C27 UNL     1      22.293  24.082  21.424  1.00  0.00    -0.013 C 
HETATM   21  C28 UNL     1      21.386  24.996  22.176  1.00  0.00     0.009 C 
HETATM   22  C32 UNL     1      22.612  24.645  20.040  1.00  0.00     0.018 C 
HETATM   23  C29 UNL     1      22.030  26.344  22.283  1.00  0.00    -0.013 C 
HETATM   24  C31 UNL     1      22.350  26.980  20.968  1.00  0.00     0.018 C 
ENDBRANCH  12  15
ENDBRANCH  10  12
ENDBRANCH   3   4
ENDBRANCH   2   3
ENDBRANCH   1   2
BRANCH   1  25
HETATM   25  N1  UNL     1      16.682  24.242  16.139  1.00  0.00    -0.419 N 
ATOM     26  H1  UNL     1      16.445  25.226  16.264  1.00  0.00     0.153 HD
BRANCH  25  27
HETATM   27  C5  UNL     1      15.872  23.198  16.661  1.00  0.00     0.151 C 
BRANCH  27  28
HETATM   28  C6  UNL     1      16.420  22.515  17.853  1.00  0.00     0.236 C 
BRANCH  28  29
HETATM   29  N2  UNL     1      16.597  23.458  18.977  1.00  0.00    -0.061 N 
ATOM     30  H22 UNL     1      16.072  24.320  18.828  1.00  0.00     0.278 HD
ATOM     31  H21 UNL     1      16.123  23.129  19.819  1.00  0.00     0.278 HD
BRANCH  29  32
HETATM   32  C7  UNL     1      17.998  23.726  19.228  1.00  0.00     0.187 A 
HETATM   33  C8  UNL     1      18.799  22.680  20.014  1.00  0.00     0.035 A 
HETATM   34  C9  UNL     1      18.508  24.048  20.557  1.00  0.00     0.035 A 
ENDBRANCH  29  32
ENDBRANCH  28  29
BRANCH  28  35
HETATM   35  C10 UNL     1      15.524  21.418  18.388  1.00  0.00    -0.026 A 
HETATM   36  C11 UNL     1      14.719  20.727  17.498  1.00  0.00     0.011 A 
HETATM   37  C12 UNL     1      13.920  19.678  17.929  1.00  0.00     0.030 A 
HETATM   38  C13 UNL     1      13.890  19.280  19.241  1.00  0.00     0.030 A 
HETATM   39  C18 UNL     1      14.685  19.958  20.135  1.00  0.00     0.030 A 
HETATM   40  C19 UNL     1      15.497  21.024  19.696  1.00  0.00     0.011 A 
BRANCH  38  41
HETATM   41  N3  UNL     1      13.097  18.171  19.724  1.00  0.00    -0.378 N 
HETATM   42  C14 UNL     1      12.552  17.185  18.850  1.00  0.00     0.150 C 
HETATM   43  C15 UNL     1      11.183  16.703  19.198  1.00  0.00     0.252 C 
HETATM   44  N4  UNL     1      10.845  16.899  20.591  1.00  0.00    -0.072 N 
HETATM   45  C16 UNL     1      12.028  16.878  21.438  1.00  0.00     0.252 C 
ATOM     46  H42 UNL     1      10.305  17.754  20.726  1.00  0.00     0.277 HD
ATOM     47  H41 UNL     1      10.150  16.222  20.905  1.00  0.00     0.277 HD
HETATM   48  C17 UNL     1      12.835  18.101  21.149  1.00  0.00     0.150 C 
ENDBRANCH  38  41
ENDBRANCH  28  35
ENDBRANCH  27  28
ENDBRANCH  25  27
ENDBRANCH   1  25
TORSDOF 13
ENDMDL
MODEL 3
REMARK VINA RESULT: -9.386507459      4.568      8.182
REMARK  13 active torsions:
REMARK  status: ('A' for Active; 'I' for Inactive)
REMARK    1  A    between atoms: C1_2  and  C2_3 
REMARK       I    between atoms: C1_2  and  N5_30 
REMARK    2  A    between atoms: C2_3  and  C3_4 
REMARK    3  A    between atoms: C3_4  and  C4_5 
REMARK    4  A    between atoms: C4_5  and  N1_6 
REMARK    5  A    between atoms: N1_6  and  C5_8 
REMARK    6  A    between atoms: C5_8  and  C6_9 
REMARK    7  A    between atoms: C6_9  and  N2_10 
REMARK    8  A    between atoms: C6_9  and  C10_16 
REMARK    9  A    between atoms: N2_10  and  C7_13 
REMARK   10  A    between atoms: C13_19  and  N3_20 
REMARK   11  A    between atoms: N6_33  and  C22_34 
REMARK   12  A    between atoms: C22_34  and  O2_35 
REMARK   13  A    between atoms: C22_34  and  C23_37 
ROOT
HETATM    1  C4  UNL     1      12.588  19.435  16.973  1.00  0.00     0.114 C 
ENDROOT
BRANCH   1   2
HETATM    2  C3  UNL     1      13.848  20.003  17.444  1.00  0.00     0.028 C 
BRANCH   2   3
HETATM    3  C2  UNL     1      13.909  20.874  18.632  1.00  0.00     0.104 C 
BRANCH   3   4
HETATM    4  C1  UNL     1      15.235  21.112  19.216  1.00  0.00     0.219 C 
HETATM    5  O1  UNL     1      15.695  20.264  20.038  1.00  0.00    -0.273 OA
HETATM    6  N5  UNL     1      16.019  22.243  18.903  1.00  0.00    -0.349 N 
HETATM    7  C20 UNL     1      15.639  23.278  17.977  1.00  0.00     0.145 C 
HETATM    8  C34 UNL     1      17.345  22.438  19.518  1.00  0.00     0.145 C 
HETATM    9  C21 UNL     1      16.770  23.256  16.920  1.00  0.00     0.139 C 
HETATM   10  N6  UNL     1      17.966  23.679  17.460  1.00  0.00    -0.384 N 
HETATM   11  C33 UNL     1      18.399  22.764  18.512  1.00  0.00     0.139 C 
BRANCH  10  12
HETATM   12  C22 UNL     1      18.522  24.929  17.480  1.00  0.00     0.224 C 
BRANCH  12  13
HETATM   13  O2  UNL     1      19.387  25.043  18.615  1.00  0.00    -0.376 OA
ATOM     14  H2  UNL     1      20.173  25.513  18.364  1.00  0.00     0.212 HD
ENDBRANCH  12  13
BRANCH  12  15
HETATM   15  C23 UNL     1      19.330  25.469  16.332  1.00  0.00     0.004 C 
HETATM   16  C24 UNL     1      20.255  24.305  15.843  1.00  0.00     0.018 C 
HETATM   17  C25 UNL     1      21.046  24.806  14.683  1.00  0.00    -0.013 C 
HETATM   18  C26 UNL     1      21.997  25.913  15.110  1.00  0.00     0.009 C 
HETATM   19  C30 UNL     1      20.200  25.292  13.547  1.00  0.00     0.009 C 
HETATM   20  C27 UNL     1      21.130  27.050  15.613  1.00  0.00    -0.013 C 
HETATM   21  C28 UNL     1      20.235  27.548  14.530  1.00  0.00     0.009 C 
HETATM   22  C32 UNL     1      20.318  26.503  16.786  1.00  0.00     0.018 C 
HETATM   23  C29 UNL     1      19.341  26.432  14.084  1.00  0.00    -0.013 C 
HETATM   24  C31 UNL     1      18.488  25.856  15.168  1.00  0.00     0.018 C 
ENDBRANCH  12  15
ENDBRANCH  10  12
ENDBRANCH   3   4
ENDBRANCH   2   3
ENDBRANCH   1   2
BRANCH   1  25
HETATM   25  N1  UNL     1      11.377  19.733  17.637  1.00  0.00    -0.419 N 
ATOM     26  H1  UNL     1      11.129  20.683  17.913  1.00  0.00     0.153 HD
BRANCH  25  27
HETATM   27  C5  UNL     1      10.526  18.624  17.897  1.00  0.00     0.151 C 
BRANCH  27  28
HETATM   28  C6  UNL     1      11.176  17.479  18.569  1.00  0.00     0.236 C 
BRANCH  28  29
HETATM   29  N2  UNL     1      10.986  17.539  20.034  1.00  0.00    -0.061 N 
ATOM     30  H22 UNL     1      10.638  18.451  20.329  1.00  0.00     0.278 HD
ATOM     31  H21 UNL     1      10.198  16.965  20.332  1.00  0.00     0.278 HD
BRANCH  29  32
HETATM   32  C7  UNL     1      12.200  17.181  20.739  1.00  0.00     0.187 A 
HETATM   33  C8  UNL     1      12.987  18.304  21.427  1.00  0.00     0.035 A 
HETATM   34  C9  UNL     1      13.527  17.546  20.251  1.00  0.00     0.035 A 
ENDBRANCH  29  32
ENDBRANCH  28  29
BRANCH  28  35
HETATM   35  C10 UNL     1      10.620  16.135  18.148  1.00  0.00    -0.026 A 
HETATM   36  C11 UNL     1      11.031  15.597  16.940  1.00  0.00     0.011 A 
HETATM   37  C12 UNL     1      10.593  14.345  16.535  1.00  0.00     0.030 A 
HETATM   38  C13 UNL     1       9.742  13.589  17.301  1.00  0.00     0.030 A 
HETATM   39  C18 UNL     1       9.328  14.112  18.503  1.00  0.00     0.030 A 
HETATM   40  C19 UNL     1       9.773  15.385  18.915  1.00  0.00     0.011 A 
BRANCH  38  41
HETATM   41  N3  UNL     1       9.289  12.267  16.929  1.00  0.00    -0.378 N 
HETATM   42  C14 UNL     1       8.273  11.577  17.654  1.00  0.00     0.150 C 
HETATM   43  C15 UNL     1       8.483  10.108  17.815  1.00  0.00     0.252 C 
HETATM   44  N4  UNL     1       9.358   9.543  16.812  1.00  0.00    -0.072 N 
HETATM   45  C16 UNL     1       9.302  10.294  15.567  1.00  0.00     0.252 C 
ATOM     46  H42 UNL     1      10.315   9.462  17.156  1.00  0.00     0.277 HD
ATOM     47  H41 UNL     1       9.161   8.553  16.660  1.00  0.00     0.277 HD
HETATM   48  C17 UNL     1       9.929  11.630  15.795  1.00  0.00     0.150 C 
ENDBRANCH  38  41
ENDBRANCH  28  35
ENDBRANCH  27  28
ENDBRANCH  25  27
ENDBRANCH   1  25
TORSDOF 13
ENDMDL
MODEL 4
REMARK VINA RESULT: -9.272622489      0.707      1.660
REMARK  13 active torsions:
REMARK  status: ('A' for Active; 'I' for Inactive)
REMARK    1  A    between atoms: C1_2  and  C2_3 
REMARK       I    between atoms: C1_2  and  N5_30 
REMARK    2  A    between atoms: C2_3  and  C3_4 
REMARK    3  A    between atoms: C3_4  and  C4_5 
REMARK    4  A    between atoms: C4_5  and  N1_6 
REMARK    5  A    between atoms: N1_6  and  C5_8 
REMARK    6  A    between atoms: C5_8  and  C6_9 
REMARK    7  A    between atoms: C6_9  and  N2_10 
REMARK    8  A    between atoms: C6_9  and  C10_16 
REMARK    9  A    between atoms: N2_10  and  C7_13 
REMARK   10  A    between atoms: C13_19  and  N3_20 
REMARK   11  A    between atoms: N6_33  and  C22_34 
REMARK   12  A    between atoms: C22_34  and  O2_35 
REMARK   13  A    between atoms: C22_34  and  C23_37 
ROOT
HETATM    1  C4  UNL     1      18.335  24.555  14.754  1.00  0.00     0.114 C 
ENDROOT
BRANCH   1   2
HETATM    2  C3  UNL     1      18.887  25.575  13.868  1.00  0.00     0.028 C 
BRANCH   2   3
HETATM    3  C2  UNL     1      19.339  26.882  14.378  1.00  0.00     0.104 C 
BRANCH   3   4
HETATM    4  C1  UNL     1      20.786  27.129  14.388  1.00  0.00     0.219 C 
HETATM    5  O1  UNL     1      21.318  27.656  13.364  1.00  0.00    -0.273 OA
HETATM    6  N5  UNL     1      21.612  26.808  15.486  1.00  0.00    -0.349 N 
HETATM    7  C20 UNL     1      21.151  26.225  16.720  1.00  0.00     0.145 C 
HETATM    8  C34 UNL     1      23.062  27.074  15.447  1.00  0.00     0.145 C 
HETATM    9  C21 UNL     1      21.573  27.259  17.792  1.00  0.00     0.139 C 
HETATM   10  N6  UNL     1      22.946  27.320  17.914  1.00  0.00    -0.384 N 
HETATM   11  C33 UNL     1      23.545  27.786  16.667  1.00  0.00     0.139 C 
BRANCH  10  12
HETATM   12  C22 UNL     1      23.778  26.652  18.772  1.00  0.00     0.224 C 
BRANCH  12  13
HETATM   13  O2  UNL     1      24.906  27.479  19.073  1.00  0.00    -0.376 OA
ATOM     14  H2  UNL     1      24.864  27.744  19.985  1.00  0.00     0.212 HD
ENDBRANCH  12  13
BRANCH  12  15
HETATM   15  C23 UNL     1      23.312  26.141  20.108  1.00  0.00     0.004 C 
HETATM   16  C24 UNL     1      22.603  24.771  19.847  1.00  0.00     0.018 C 
HETATM   17  C25 UNL     1      22.158  24.229  21.162  1.00  0.00    -0.013 C 
HETATM   18  C26 UNL     1      21.091  25.115  21.784  1.00  0.00     0.009 C 
HETATM   19  C30 UNL     1      23.277  24.041  22.141  1.00  0.00     0.009 C 
HETATM   20  C27 UNL     1      21.741  26.461  22.028  1.00  0.00    -0.013 C 
HETATM   21  C28 UNL     1      22.891  26.328  22.968  1.00  0.00     0.009 C 
HETATM   22  C32 UNL     1      22.204  26.983  20.668  1.00  0.00     0.018 C 
HETATM   23  C29 UNL     1      23.910  25.411  22.364  1.00  0.00    -0.013 C 
HETATM   24  C31 UNL     1      24.438  25.863  21.040  1.00  0.00     0.018 C 
ENDBRANCH  12  15
ENDBRANCH  10  12
ENDBRANCH   3   4
ENDBRANCH   2   3
ENDBRANCH   1   2
BRANCH   1  25
HETATM   25  N1  UNL     1      17.581  24.926  15.890  1.00  0.00    -0.419 N 
ATOM     26  H1  UNL     1      17.042  25.791  15.923  1.00  0.00     0.153 HD
BRANCH  25  27
HETATM   27  C5  UNL     1      17.620  24.017  16.981  1.00  0.00     0.151 C 
BRANCH  27  28
HETATM   28  C6  UNL     1      17.729  22.591  16.607  1.00  0.00     0.236 C 
BRANCH  28  29
HETATM   29  N2  UNL     1      18.390  21.807  17.672  1.00  0.00    -0.061 N 
ATOM     30  H22 UNL     1      17.780  21.069  18.025  1.00  0.00     0.278 HD
ATOM     31  H21 UNL     1      19.139  21.225  17.297  1.00  0.00     0.278 HD
BRANCH  29  32
HETATM   32  C7  UNL     1      18.865  22.660  18.741  1.00  0.00     0.187 A 
HETATM   33  C8  UNL     1      19.488  21.989  19.972  1.00  0.00     0.035 A 
HETATM   34  C9  UNL     1      18.192  22.743  20.035  1.00  0.00     0.035 A 
ENDBRANCH  29  32
ENDBRANCH  28  29
BRANCH  28  35
HETATM   35  C10 UNL     1      16.391  21.918  16.386  1.00  0.00    -0.026 A 
HETATM   36  C11 UNL     1      15.958  21.717  15.087  1.00  0.00     0.011 A 
HETATM   37  C12 UNL     1      14.765  21.057  14.830  1.00  0.00     0.030 A 
HETATM   38  C13 UNL     1      13.968  20.578  15.838  1.00  0.00     0.030 A 
HETATM   39  C18 UNL     1      14.388  20.771  17.133  1.00  0.00     0.030 A 
HETATM   40  C19 UNL     1      15.600  21.442  17.394  1.00  0.00     0.011 A 
BRANCH  38  41
HETATM   41  N3  UNL     1      12.735  19.857  15.611  1.00  0.00    -0.378 N 
HETATM   42  C14 UNL     1      11.859  19.491  16.675  1.00  0.00     0.150 C 
HETATM   43  C15 UNL     1      11.218  18.149  16.548  1.00  0.00     0.252 C 
HETATM   44  N4  UNL     1      11.161  17.670  15.184  1.00  0.00    -0.072 N 
HETATM   45  C16 UNL     1      11.102  18.769  14.232  1.00  0.00     0.252 C 
ATOM     46  H42 UNL     1      11.936  17.040  14.978  1.00  0.00     0.277 HD
ATOM     47  H41 UNL     1      10.388  17.019  15.049  1.00  0.00     0.277 HD
HETATM   48  C17 UNL     1      12.418  19.476  14.249  1.00  0.00     0.150 C 
ENDBRANCH  38  41
ENDBRANCH  28  35
ENDBRANCH  27  28
ENDBRANCH  25  27
ENDBRANCH   1  25
TORSDOF 13
ENDMDL
MODEL 5
REMARK VINA RESULT: -9.206925773      4.315      8.008
REMARK  13 active torsions:
REMARK  status: ('A' for Active; 'I' for Inactive)
REMARK    1  A    between atoms: C1_2  and  C2_3 
REMARK       I    between atoms: C1_2  and  N5_30 
REMARK    2  A    between atoms: C2_3  and  C3_4 
REMARK    3  A    between atoms: C3_4  and  C4_5 
REMARK    4  A    between atoms: C4_5  and  N1_6 
REMARK    5  A    between atoms: N1_6  and  C5_8 
REMARK    6  A    between atoms: C5_8  and  C6_9 
REMARK    7  A    between atoms: C6_9  and  N2_10 
REMARK    8  A    between atoms: C6_9  and  C10_16 
REMARK    9  A    between atoms: N2_10  and  C7_13 
REMARK   10  A    between atoms: C13_19  and  N3_20 
REMARK   11  A    between atoms: N6_33  and  C22_34 
REMARK   12  A    between atoms: C22_34  and  O2_35 
REMARK   13  A    between atoms: C22_34  and  C23_37 
ROOT
HETATM    1  C4  UNL     1      11.499  19.639  15.882  1.00  0.00     0.114 C 
ENDROOT
BRANCH   1   2
HETATM    2  C3  UNL     1      12.518  20.629  15.551  1.00  0.00     0.028 C 
BRANCH   2   3
HETATM    3  C2  UNL     1      13.938  20.422  15.890  1.00  0.00     0.104 C 
BRANCH   3   4
HETATM    4  C1  UNL     1      14.415  21.010  17.148  1.00  0.00     0.219 C 
HETATM    5  O1  UNL     1      14.041  20.487  18.241  1.00  0.00    -0.273 OA
HETATM    6  N5  UNL     1      15.273  22.130  17.196  1.00  0.00    -0.349 N 
HETATM    7  C20 UNL     1      15.794  22.817  16.041  1.00  0.00     0.145 C 
HETATM    8  C34 UNL     1      15.723  22.685  18.485  1.00  0.00     0.145 C 
HETATM    9  C21 UNL     1      17.328  22.701  16.210  1.00  0.00     0.139 C 
HETATM   10  N6  UNL     1      17.768  23.433  17.293  1.00  0.00    -0.384 N 
HETATM   11  C33 UNL     1      17.200  22.902  18.528  1.00  0.00     0.139 C 
BRANCH  10  12
HETATM   12  C22 UNL     1      18.237  24.718  17.348  1.00  0.00     0.224 C 
BRANCH  12  13
HETATM   13  O2  UNL     1      18.993  24.893  18.550  1.00  0.00    -0.376 OA
ATOM     14  H2  UNL     1      18.908  24.116  19.088  1.00  0.00     0.212 HD
ENDBRANCH  12  13
BRANCH  12  15
HETATM   15  C23 UNL     1      19.102  25.305  16.266  1.00  0.00     0.004 C 
HETATM   16  C24 UNL     1      20.118  24.192  15.844  1.00  0.00     0.018 C 
HETATM   17  C25 UNL     1      20.969  24.740  14.750  1.00  0.00    -0.013 C 
HETATM   18  C26 UNL     1      21.827  25.890  15.252  1.00  0.00     0.009 C 
HETATM   19  C30 UNL     1      20.188  25.190  13.554  1.00  0.00     0.009 C 
HETATM   20  C27 UNL     1      20.870  26.979  15.691  1.00  0.00    -0.013 C 
HETATM   21  C28 UNL     1      20.035  27.439  14.544  1.00  0.00     0.009 C 
HETATM   22  C32 UNL     1      19.999  26.383  16.797  1.00  0.00     0.018 C 
HETATM   23  C29 UNL     1      19.235  26.283  14.028  1.00  0.00    -0.013 C 
HETATM   24  C31 UNL     1      18.331  25.658  15.043  1.00  0.00     0.018 C 
ENDBRANCH  12  15
ENDBRANCH  10  12
ENDBRANCH   3   4
ENDBRANCH   2   3
ENDBRANCH   1   2
BRANCH   1  25
HETATM   25  N1  UNL     1      10.663  19.820  17.007  1.00  0.00    -0.419 N 
ATOM     26  H1  UNL     1       9.922  20.521  17.025  1.00  0.00     0.153 HD
BRANCH  25  27
HETATM   27  C5  UNL     1      10.921  18.965  18.112  1.00  0.00     0.151 C 
BRANCH  27  28
HETATM   28  C6  UNL     1      11.689  17.742  17.794  1.00  0.00     0.236 C 
BRANCH  28  29
HETATM   29  N2  UNL     1      12.783  17.528  18.764  1.00  0.00    -0.061 N 
ATOM     30  H22 UNL     1      13.001  16.537  18.870  1.00  0.00     0.278 HD
ATOM     31  H21 UNL     1      13.679  17.847  18.395  1.00  0.00     0.278 HD
BRANCH  29  32
HETATM   32  C7  UNL     1      12.487  18.145  20.041  1.00  0.00     0.187 A 
HETATM   33  C8  UNL     1      13.628  18.270  21.059  1.00  0.00     0.035 A 
HETATM   34  C9  UNL     1      12.439  17.384  21.286  1.00  0.00     0.035 A 
ENDBRANCH  29  32
ENDBRANCH  28  29
BRANCH  28  35
HETATM   35  C10 UNL     1      10.859  16.477  17.842  1.00  0.00    -0.026 A 
HETATM   36  C11 UNL     1       9.862  16.374  18.797  1.00  0.00     0.011 A 
HETATM   37  C12 UNL     1       9.039  15.258  18.848  1.00  0.00     0.030 A 
HETATM   38  C13 UNL     1       9.172  14.217  17.966  1.00  0.00     0.030 A 
HETATM   39  C18 UNL     1      10.159  14.307  17.012  1.00  0.00     0.030 A 
HETATM   40  C19 UNL     1      10.995  15.441  16.961  1.00  0.00     0.011 A 
BRANCH  38  41
HETATM   41  N3  UNL     1       8.314  13.052  17.964  1.00  0.00    -0.378 N 
HETATM   42  C14 UNL     1       8.792  11.754  17.620  1.00  0.00     0.150 C 
HETATM   43  C15 UNL     1       7.850  10.913  16.823  1.00  0.00     0.252 C 
HETATM   44  N4  UNL     1       6.467  11.310  16.968  1.00  0.00    -0.072 N 
HETATM   45  C16 UNL     1       6.219  11.926  18.263  1.00  0.00     0.252 C 
ATOM     46  H42 UNL     1       6.173  11.918  16.204  1.00  0.00     0.277 HD
ATOM     47  H41 UNL     1       5.835  10.528  16.799  1.00  0.00     0.277 HD
HETATM   48  C17 UNL     1       6.917  13.246  18.298  1.00  0.00     0.150 C 
ENDBRANCH  38  41
ENDBRANCH  28  35
ENDBRANCH  27  28
ENDBRANCH  25  27
ENDBRANCH   1  25
TORSDOF 13
ENDMDL
