MODEL 1
REMARK VINA RESULT: -7.398172068      0.000      0.000
REMARK  15 active torsions:
REMARK  status: ('A' for Active; 'I' for Inactive)
REMARK    1  A    between atoms: O1_2  and  N1_3 
REMARK    2  A    between atoms: N1_3  and  C3_5 
REMARK    3  A    between atoms: C3_5  and  C4_6 
REMARK    4  A    between atoms: C3_5  and  C5_9 
REMARK    5  A    between atoms: C4_6  and  O2_7 
REMARK    6  A    between atoms: C5_9  and  C7_11 
REMARK    7  A    between atoms: C7_11  and  N2_12 
REMARK    8  A    between atoms: N2_12  and  N3_13 
REMARK    9  A    between atoms: N2_12  and  C9_18 
REMARK   10  A    between atoms: N3_13  and  C8_15 
REMARK   11  A    between atoms: C9_18  and  N5_19 
REMARK       I    between atoms: N5_19  and  C10_21 
REMARK       I    between atoms: C10_21  and  N7_25 
REMARK   12  A    between atoms: C15_32  and  C16_33 
REMARK   13  A    between atoms: C20_37  and  C21_38 
REMARK   14  A    between atoms: C20_37  and  C25_42 
REMARK   15  A    between atoms: C21_38  and  C22_39 
ROOT
HETATM    1  C9  UNL     1      20.734  25.714  18.211  1.00  0.00     0.146 C 
HETATM    2  C20 UNL     1      21.609  26.266  17.203  1.00  0.00     0.021 C 
ENDROOT
BRANCH   1   3
HETATM    3  N2  UNL     1      19.792  24.616  18.040  1.00  0.00    -0.273 N 
BRANCH   3   4
HETATM    4  C7  UNL     1      18.477  24.907  17.518  1.00  0.00     0.157 C 
BRANCH   4   5
HETATM    5  C5  UNL     1      17.874  23.953  16.579  1.00  0.00     0.028 C 
HETATM    6  C6  UNL     1      17.343  24.784  15.391  1.00  0.00     0.014 C 
BRANCH   5   7
HETATM    7  C3  UNL     1      16.585  23.326  17.152  1.00  0.00     0.137 C 
BRANCH   7   8
HETATM    8  N1  UNL     1      15.716  22.856  16.158  1.00  0.00    -0.292 N 
HETATM    9  C2  UNL     1      16.006  21.678  15.453  1.00  0.00     0.178 C 
BRANCH   8  10
HETATM   10  O1  UNL     1      14.583  23.461  15.920  1.00  0.00    -0.288 OA
HETATM   11  C1  UNL     1      13.563  22.678  15.435  1.00  0.00     0.237 C 
ENDBRANCH   8  10
ENDBRANCH   7   8
BRANCH   7  12
HETATM   12  C4  UNL     1      15.959  24.345  18.083  1.00  0.00     0.191 C 
BRANCH  12  13
HETATM   13  O2  UNL     1      14.728  23.936  18.579  1.00  0.00    -0.399 OA
ATOM     14  H2  UNL     1      14.522  24.326  19.420  1.00  0.00     0.209 HD
ENDBRANCH  12  13
ENDBRANCH   7  12
ENDBRANCH   5   7
ENDBRANCH   4   5
ENDBRANCH   3   4
BRANCH   3  15
HETATM   15  N3  UNL     1      20.066  23.296  18.363  1.00  0.00    -0.275 N 
ATOM     16  H3  UNL     1      20.658  22.788  17.706  1.00  0.00     0.189 HD
BRANCH  15  17
HETATM   17  C8  UNL     1      19.626  22.570  19.487  1.00  0.00     0.199 C 
HETATM   18  N4  UNL     1      20.025  22.687  20.820  1.00  0.00    -0.068 NA
HETATM   19  S1  UNL     1      18.474  21.400  19.241  1.00  0.00    -0.043 SA
ENDBRANCH  15  17
ENDBRANCH   3  15
ENDBRANCH   1   3
BRANCH   1  20
HETATM   20  N5  UNL     1      20.730  26.215  19.398  1.00  0.00    -0.175 N 
HETATM   21  C10 UNL     1      21.217  25.744  20.599  1.00  0.00     0.677 C 
HETATM   22  N6  UNL     1      20.393  25.523  21.561  1.00  0.00    -0.234 N 
HETATM   23  N7  UNL     1      22.576  25.478  20.878  1.00  0.00    -0.199 N 
ATOM     24  H62 UNL     1      19.411  25.715  21.360  1.00  0.00     0.174 HD
ATOM     25  H61 UNL     1      20.754  25.175  22.449  1.00  0.00     0.174 HD
HETATM   26  C11 UNL     1      23.264  25.652  21.892  1.00  0.00     0.011 C 
ATOM     27  H7  UNL     1      23.085  25.066  20.097  1.00  0.00     0.183 HD
HETATM   28  C12 UNL     1      24.710  25.245  21.834  1.00  0.00     0.131 C 
HETATM   29  C19 UNL     1      22.770  26.225  23.159  1.00  0.00     0.058 C 
HETATM   30  C13 UNL     1      24.949  24.392  23.035  1.00  0.00     0.132 C 
HETATM   31  O3  UNL     1      25.374  23.270  22.965  1.00  0.00    -0.298 OA
HETATM   32  C14 UNL     1      24.630  25.006  24.351  1.00  0.00     0.084 C 
HETATM   33  C15 UNL     1      23.858  26.285  24.208  1.00  0.00     0.001 C 
ATOM     34  H5  UNL     1      20.284  27.130  19.460  1.00  0.00     0.186 HD
BRANCH  33  35
HETATM   35  C16 UNL     1      23.339  26.700  25.536  1.00  0.00    -0.018 C 
HETATM   36  C17 UNL     1      24.266  27.488  26.392  1.00  0.00     0.010 C 
HETATM   37  C18 UNL     1      22.063  27.534  25.378  1.00  0.00     0.010 C 
ENDBRANCH  33  35
ENDBRANCH   1  20
BRANCH   2  38
HETATM   38  C21 UNL     1      23.071  26.180  17.334  1.00  0.00    -0.009 C 
BRANCH  38  39
HETATM   39  C22 UNL     1      23.910  27.304  17.730  1.00  0.00     0.001 C 
HETATM   40  C23 UNL     1      25.157  26.713  18.457  1.00  0.00     0.013 C 
HETATM   41  C24 UNL     1      24.587  28.035  16.554  1.00  0.00     0.013 C 
ENDBRANCH  38  39
ENDBRANCH   2  38
BRANCH   2  42
HETATM   42  C25 UNL     1      21.090  26.171  15.761  1.00  0.00     0.109 A 
HETATM   43  C26 UNL     1      20.727  27.540  15.151  1.00  0.00     0.054 C 
HETATM   44  C27 UNL     1      21.131  25.043  14.930  1.00  0.00     0.212 A 
HETATM   45  O4  UNL     1      22.306  25.737  14.969  1.00  0.00    -0.370 OA
ENDBRANCH   2  42
TORSDOF 15
ENDMDL
MODEL 2
REMARK VINA RESULT: -7.386033039      1.154      1.575
REMARK  15 active torsions:
REMARK  status: ('A' for Active; 'I' for Inactive)
REMARK    1  A    between atoms: O1_2  and  N1_3 
REMARK    2  A    between atoms: N1_3  and  C3_5 
REMARK    3  A    between atoms: C3_5  and  C4_6 
REMARK    4  A    between atoms: C3_5  and  C5_9 
REMARK    5  A    between atoms: C4_6  and  O2_7 
REMARK    6  A    between atoms: C5_9  and  C7_11 
REMARK    7  A    between atoms: C7_11  and  N2_12 
REMARK    8  A    between atoms: N2_12  and  N3_13 
REMARK    9  A    between atoms: N2_12  and  C9_18 
REMARK   10  A    between atoms: N3_13  and  C8_15 
REMARK   11  A    between atoms: C9_18  and  N5_19 
REMARK       I    between atoms: N5_19  and  C10_21 
REMARK       I    between atoms: C10_21  and  N7_25 
REMARK   12  A    between atoms: C15_32  and  C16_33 
REMARK   13  A    between atoms: C20_37  and  C21_38 
REMARK   14  A    between atoms: C20_37  and  C25_42 
REMARK   15  A    between atoms: C21_38  and  C22_39 
ROOT
HETATM    1  C9  UNL     1      20.873  25.898  18.180  1.00  0.00     0.146 C 
HETATM    2  C20 UNL     1      21.823  26.420  17.225  1.00  0.00     0.021 C 
ENDROOT
BRANCH   1   3
HETATM    3  N2  UNL     1      19.897  24.842  17.949  1.00  0.00    -0.273 N 
BRANCH   3   4
HETATM    4  C7  UNL     1      18.789  25.106  17.060  1.00  0.00     0.157 C 
BRANCH   4   5
HETATM    5  C5  UNL     1      18.388  24.055  16.116  1.00  0.00     0.028 C 
HETATM    6  C6  UNL     1      18.311  24.721  14.726  1.00  0.00     0.014 C 
BRANCH   5   7
HETATM    7  C3  UNL     1      16.931  23.603  16.353  1.00  0.00     0.137 C 
BRANCH   7   8
HETATM    8  N1  UNL     1      16.810  22.675  17.397  1.00  0.00    -0.292 N 
HETATM    9  C2  UNL     1      15.766  22.781  18.330  1.00  0.00     0.178 C 
BRANCH   8  10
HETATM   10  O1  UNL     1      17.617  21.651  17.479  1.00  0.00    -0.288 OA
HETATM   11  C1  UNL     1      17.098  20.508  18.037  1.00  0.00     0.237 C 
ENDBRANCH   8  10
ENDBRANCH   7   8
BRANCH   7  12
HETATM   12  C4  UNL     1      16.387  23.110  15.028  1.00  0.00     0.191 C 
BRANCH  12  13
HETATM   13  O2  UNL     1      16.456  21.729  14.896  1.00  0.00    -0.399 OA
ATOM     14  H2  UNL     1      15.608  21.331  14.739  1.00  0.00     0.209 HD
ENDBRANCH  12  13
ENDBRANCH   7  12
ENDBRANCH   5   7
ENDBRANCH   4   5
ENDBRANCH   3   4
BRANCH   3  15
HETATM   15  N3  UNL     1      19.945  23.590  18.543  1.00  0.00    -0.275 N 
ATOM     16  H3  UNL     1      20.508  22.888  18.061  1.00  0.00     0.189 HD
BRANCH  15  17
HETATM   17  C8  UNL     1      19.314  23.169  19.729  1.00  0.00     0.199 C 
HETATM   18  N4  UNL     1      18.317  23.808  20.469  1.00  0.00    -0.068 NA
HETATM   19  S1  UNL     1      19.791  21.716  20.376  1.00  0.00    -0.043 SA
ENDBRANCH  15  17
ENDBRANCH   3  15
ENDBRANCH   1   3
BRANCH   1  20
HETATM   20  N5  UNL     1      20.827  26.390  19.370  1.00  0.00    -0.175 N 
HETATM   21  C10 UNL     1      21.271  25.908  20.584  1.00  0.00     0.677 C 
HETATM   22  N6  UNL     1      20.412  25.681  21.514  1.00  0.00    -0.234 N 
HETATM   23  N7  UNL     1      22.618  25.637  20.909  1.00  0.00    -0.199 N 
ATOM     24  H62 UNL     1      19.439  25.877  21.279  1.00  0.00     0.174 HD
ATOM     25  H61 UNL     1      20.740  25.325  22.412  1.00  0.00     0.174 HD
HETATM   26  C11 UNL     1      23.269  25.801  21.949  1.00  0.00     0.011 C 
ATOM     27  H7  UNL     1      23.154  25.230  20.144  1.00  0.00     0.183 HD
HETATM   28  C12 UNL     1      24.716  25.391  21.940  1.00  0.00     0.131 C 
HETATM   29  C19 UNL     1      22.731  26.365  23.202  1.00  0.00     0.058 C 
HETATM   30  C13 UNL     1      24.910  24.528  23.141  1.00  0.00     0.132 C 
HETATM   31  O3  UNL     1      25.335  23.406  23.077  1.00  0.00    -0.298 OA
HETATM   32  C14 UNL     1      24.546  25.132  24.450  1.00  0.00     0.084 C 
HETATM   33  C15 UNL     1      23.781  26.413  24.290  1.00  0.00     0.001 C 
ATOM     34  H5  UNL     1      20.381  27.305  19.424  1.00  0.00     0.186 HD
BRANCH  33  35
HETATM   35  C16 UNL     1      23.215  26.819  25.602  1.00  0.00    -0.018 C 
HETATM   36  C17 UNL     1      24.068  27.699  26.446  1.00  0.00     0.010 C 
HETATM   37  C18 UNL     1      21.881  27.546  25.410  1.00  0.00     0.010 C 
ENDBRANCH  33  35
ENDBRANCH   1  20
BRANCH   2  38
HETATM   38  C21 UNL     1      23.271  26.272  17.431  1.00  0.00    -0.009 C 
BRANCH  38  39
HETATM   39  C22 UNL     1      24.131  27.352  17.897  1.00  0.00     0.001 C 
HETATM   40  C23 UNL     1      25.349  26.692  18.616  1.00  0.00     0.013 C 
HETATM   41  C24 UNL     1      24.849  28.121  16.772  1.00  0.00     0.013 C 
ENDBRANCH  38  39
ENDBRANCH   2  38
BRANCH   2  42
HETATM   42  C25 UNL     1      21.377  26.358  15.757  1.00  0.00     0.109 A 
HETATM   43  C26 UNL     1      20.735  27.668  15.258  1.00  0.00     0.054 C 
HETATM   44  C27 UNL     1      21.690  25.356  14.830  1.00  0.00     0.212 A 
HETATM   45  O4  UNL     1      22.680  26.283  14.988  1.00  0.00    -0.370 OA
ENDBRANCH   2  42
TORSDOF 15
ENDMDL
MODEL 3
REMARK VINA RESULT: -7.188639686      1.835      2.575
REMARK  15 active torsions:
REMARK  status: ('A' for Active; 'I' for Inactive)
REMARK    1  A    between atoms: O1_2  and  N1_3 
REMARK    2  A    between atoms: N1_3  and  C3_5 
REMARK    3  A    between atoms: C3_5  and  C4_6 
REMARK    4  A    between atoms: C3_5  and  C5_9 
REMARK    5  A    between atoms: C4_6  and  O2_7 
REMARK    6  A    between atoms: C5_9  and  C7_11 
REMARK    7  A    between atoms: C7_11  and  N2_12 
REMARK    8  A    between atoms: N2_12  and  N3_13 
REMARK    9  A    between atoms: N2_12  and  C9_18 
REMARK   10  A    between atoms: N3_13  and  C8_15 
REMARK   11  A    between atoms: C9_18  and  N5_19 
REMARK       I    between atoms: N5_19  and  C10_21 
REMARK       I    between atoms: C10_21  and  N7_25 
REMARK   12  A    between atoms: C15_32  and  C16_33 
REMARK   13  A    between atoms: C20_37  and  C21_38 
REMARK   14  A    between atoms: C20_37  and  C25_42 
REMARK   15  A    between atoms: C21_38  and  C22_39 
ROOT
HETATM    1  C9  UNL     1      20.977  26.018  18.115  1.00  0.00     0.146 C 
HETATM    2  C20 UNL     1      22.058  26.474  17.270  1.00  0.00     0.021 C 
ENDROOT
BRANCH   1   3
HETATM    3  N2  UNL     1      19.922  25.083  17.749  1.00  0.00    -0.273 N 
BRANCH   3   4
HETATM    4  C7  UNL     1      19.998  23.728  18.243  1.00  0.00     0.157 C 
BRANCH   4   5
HETATM    5  C5  UNL     1      18.925  23.247  19.124  1.00  0.00     0.028 C 
HETATM    6  C6  UNL     1      19.542  22.136  20.001  1.00  0.00     0.014 C 
BRANCH   5   7
HETATM    7  C3  UNL     1      17.839  22.485  18.334  1.00  0.00     0.137 C 
BRANCH   7   8
HETATM    8  N1  UNL     1      16.545  22.722  18.818  1.00  0.00    -0.292 N 
HETATM    9  C2  UNL     1      15.866  23.908  18.498  1.00  0.00     0.178 C 
BRANCH   8  10
HETATM   10  O1  UNL     1      15.914  21.811  19.512  1.00  0.00    -0.288 OA
HETATM   11  C1  UNL     1      14.618  21.550  19.139  1.00  0.00     0.237 C 
ENDBRANCH   8  10
ENDBRANCH   7   8
BRANCH   7  12
HETATM   12  C4  UNL     1      18.230  21.022  18.317  1.00  0.00     0.191 C 
BRANCH  12  13
HETATM   13  O2  UNL     1      18.422  20.531  17.032  1.00  0.00    -0.399 OA
ATOM     14  H2  UNL     1      18.274  21.187  16.361  1.00  0.00     0.209 HD
ENDBRANCH  12  13
ENDBRANCH   7  12
ENDBRANCH   5   7
ENDBRANCH   4   5
ENDBRANCH   3   4
BRANCH   3  15
HETATM   15  N3  UNL     1      18.846  25.399  16.935  1.00  0.00    -0.275 N 
ATOM     16  H3  UNL     1      18.252  26.163  17.255  1.00  0.00     0.189 HD
BRANCH  15  17
HETATM   17  C8  UNL     1      18.473  24.794  15.719  1.00  0.00     0.199 C 
HETATM   18  N4  UNL     1      18.178  23.454  15.457  1.00  0.00    -0.068 NA
HETATM   19  S1  UNL     1      18.354  25.771  14.382  1.00  0.00    -0.043 SA
ENDBRANCH  15  17
ENDBRANCH   3  15
ENDBRANCH   1   3
BRANCH   1  20
HETATM   20  N5  UNL     1      20.876  26.464  19.319  1.00  0.00    -0.175 N 
HETATM   21  C10 UNL     1      21.309  25.960  20.528  1.00  0.00     0.677 C 
HETATM   22  N6  UNL     1      20.437  25.659  21.424  1.00  0.00    -0.234 N 
HETATM   23  N7  UNL     1      22.658  25.741  20.882  1.00  0.00    -0.199 N 
ATOM     24  H62 UNL     1      19.462  25.817  21.168  1.00  0.00     0.174 HD
ATOM     25  H61 UNL     1      20.758  25.286  22.317  1.00  0.00     0.174 HD
HETATM   26  C11 UNL     1      23.273  25.897  21.944  1.00  0.00     0.011 C 
ATOM     27  H7  UNL     1      23.234  25.388  20.118  1.00  0.00     0.183 HD
HETATM   28  C12 UNL     1      24.737  25.557  21.963  1.00  0.00     0.131 C 
HETATM   29  C19 UNL     1      22.674  26.389  23.201  1.00  0.00     0.058 C 
HETATM   30  C13 UNL     1      24.940  24.660  23.138  1.00  0.00     0.132 C 
HETATM   31  O3  UNL     1      25.420  23.563  23.047  1.00  0.00    -0.298 OA
HETATM   32  C14 UNL     1      24.512  25.199  24.456  1.00  0.00     0.084 C 
HETATM   33  C15 UNL     1      23.691  26.448  24.319  1.00  0.00     0.001 C 
ATOM     34  H5  UNL     1      20.385  27.354  19.392  1.00  0.00     0.186 HD
BRANCH  33  35
HETATM   35  C16 UNL     1      23.071  26.779  25.628  1.00  0.00    -0.018 C 
HETATM   36  C17 UNL     1      23.899  27.580  26.568  1.00  0.00     0.010 C 
HETATM   37  C18 UNL     1      21.762  27.547  25.424  1.00  0.00     0.010 C 
ENDBRANCH  33  35
ENDBRANCH   1  20
BRANCH   2  38
HETATM   38  C21 UNL     1      23.458  26.163  17.592  1.00  0.00    -0.009 C 
BRANCH  38  39
HETATM   39  C22 UNL     1      24.403  27.149  18.100  1.00  0.00     0.001 C 
HETATM   40  C23 UNL     1      25.678  26.371  18.554  1.00  0.00     0.013 C 
HETATM   41  C24 UNL     1      25.003  28.069  17.019  1.00  0.00     0.013 C 
ENDBRANCH  38  39
ENDBRANCH   2  38
BRANCH   2  42
HETATM   42  C25 UNL     1      21.741  26.519  15.769  1.00  0.00     0.109 A 
HETATM   43  C26 UNL     1      21.373  27.929  15.264  1.00  0.00     0.054 C 
HETATM   44  C27 UNL     1      21.966  25.499  14.835  1.00  0.00     0.212 A 
HETATM   45  O4  UNL     1      23.077  26.242  15.111  1.00  0.00    -0.370 OA
ENDBRANCH   2  42
TORSDOF 15
ENDMDL
MODEL 4
REMARK VINA RESULT: -7.035454779      6.410     10.930
REMARK  15 active torsions:
REMARK  status: ('A' for Active; 'I' for Inactive)
REMARK    1  A    between atoms: O1_2  and  N1_3 
REMARK    2  A    between atoms: N1_3  and  C3_5 
REMARK    3  A    between atoms: C3_5  and  C4_6 
REMARK    4  A    between atoms: C3_5  and  C5_9 
REMARK    5  A    between atoms: C4_6  and  O2_7 
REMARK    6  A    between atoms: C5_9  and  C7_11 
REMARK    7  A    between atoms: C7_11  and  N2_12 
REMARK    8  A    between atoms: N2_12  and  N3_13 
REMARK    9  A    between atoms: N2_12  and  C9_18 
REMARK   10  A    between atoms: N3_13  and  C8_15 
REMARK   11  A    between atoms: C9_18  and  N5_19 
REMARK       I    between atoms: N5_19  and  C10_21 
REMARK       I    between atoms: C10_21  and  N7_25 
REMARK   12  A    between atoms: C15_32  and  C16_33 
REMARK   13  A    between atoms: C20_37  and  C21_38 
REMARK   14  A    between atoms: C20_37  and  C25_42 
REMARK   15  A    between atoms: C21_38  and  C22_39 
ROOT
HETATM    1  C9  UNL     1      12.562  19.528  16.458  1.00  0.00     0.146 C 
HETATM    2  C20 UNL     1      12.857  18.980  17.762  1.00  0.00     0.021 C 
ENDROOT
BRANCH   1   3
HETATM    3  N2  UNL     1      11.256  19.590  15.815  1.00  0.00    -0.273 N 
BRANCH   3   4
HETATM    4  C7  UNL     1      11.072  18.904  14.557  1.00  0.00     0.157 C 
BRANCH   4   5
HETATM    5  C5  UNL     1      11.591  17.537  14.427  1.00  0.00     0.028 C 
HETATM    6  C6  UNL     1      12.187  17.427  13.007  1.00  0.00     0.014 C 
BRANCH   5   7
HETATM    7  C3  UNL     1      10.451  16.496  14.394  1.00  0.00     0.137 C 
BRANCH   7   8
HETATM    8  N1  UNL     1      10.848  15.236  14.864  1.00  0.00    -0.292 N 
HETATM    9  C2  UNL     1      10.844  14.121  14.012  1.00  0.00     0.178 C 
BRANCH   8  10
HETATM   10  O1  UNL     1      11.302  15.089  16.080  1.00  0.00    -0.288 OA
HETATM   11  C1  UNL     1      10.569  14.274  16.910  1.00  0.00     0.237 C 
ENDBRANCH   8  10
ENDBRANCH   7   8
BRANCH   7  12
HETATM   12  C4  UNL     1       9.893  16.477  12.985  1.00  0.00     0.191 C 
BRANCH  12  13
HETATM   13  O2  UNL     1       8.544  16.804  12.936  1.00  0.00    -0.399 OA
ATOM     14  H2  UNL     1       7.979  16.071  13.149  1.00  0.00     0.209 HD
ENDBRANCH  12  13
ENDBRANCH   7  12
ENDBRANCH   5   7
ENDBRANCH   4   5
ENDBRANCH   3   4
BRANCH   3  15
HETATM   15  N3  UNL     1      10.168  20.283  16.322  1.00  0.00    -0.275 N 
ATOM     16  H3  UNL     1       9.862  20.015  17.257  1.00  0.00     0.189 HD
BRANCH  15  17
HETATM   17  C8  UNL     1       9.433  21.313  15.704  1.00  0.00     0.199 C 
HETATM   18  N4  UNL     1       8.668  22.322  16.293  1.00  0.00    -0.068 NA
HETATM   19  S1  UNL     1       9.448  21.376  14.044  1.00  0.00    -0.043 SA
ENDBRANCH  15  17
ENDBRANCH   3  15
ENDBRANCH   1   3
BRANCH   1  20
HETATM   20  N5  UNL     1      13.514  20.012  15.738  1.00  0.00    -0.175 N 
HETATM   21  C10 UNL     1      14.151  21.235  15.753  1.00  0.00     0.677 C 
HETATM   22  N6  UNL     1      14.069  21.992  14.717  1.00  0.00    -0.234 N 
HETATM   23  N7  UNL     1      14.909  21.744  16.830  1.00  0.00    -0.199 N 
ATOM     24  H62 UNL     1      13.521  21.624  13.938  1.00  0.00     0.174 HD
ATOM     25  H61 UNL     1      14.540  22.896  14.728  1.00  0.00     0.174 HD
HETATM   26  C11 UNL     1      15.958  22.400  16.869  1.00  0.00     0.011 C 
ATOM     27  H7  UNL     1      14.520  21.531  17.747  1.00  0.00     0.183 HD
HETATM   28  C12 UNL     1      16.496  22.780  18.220  1.00  0.00     0.131 C 
HETATM   29  C19 UNL     1      16.720  22.845  15.685  1.00  0.00     0.058 C 
HETATM   30  C13 UNL     1      16.756  24.248  18.166  1.00  0.00     0.132 C 
HETATM   31  O3  UNL     1      16.265  25.027  18.938  1.00  0.00    -0.298 OA
HETATM   32  C14 UNL     1      17.669  24.714  17.090  1.00  0.00     0.084 C 
HETATM   33  C15 UNL     1      17.944  23.643  16.076  1.00  0.00     0.001 C 
ATOM     34  H5  UNL     1      13.860  19.371  15.024  1.00  0.00     0.186 HD
BRANCH  33  35
HETATM   35  C16 UNL     1      18.628  24.238  14.899  1.00  0.00    -0.018 C 
HETATM   36  C17 UNL     1      18.059  25.510  14.377  1.00  0.00     0.010 C 
HETATM   37  C18 UNL     1      20.102  24.507  15.213  1.00  0.00     0.010 C 
ENDBRANCH  33  35
ENDBRANCH   1  20
BRANCH   2  38
HETATM   38  C21 UNL     1      13.360  19.831  18.850  1.00  0.00    -0.009 C 
BRANCH  38  39
HETATM   39  C22 UNL     1      14.454  19.446  19.731  1.00  0.00     0.001 C 
HETATM   40  C23 UNL     1      15.142  20.761  20.212  1.00  0.00     0.013 C 
HETATM   41  C24 UNL     1      14.004  18.851  21.080  1.00  0.00     0.013 C 
ENDBRANCH  38  39
ENDBRANCH   2  38
BRANCH   2  42
HETATM   42  C25 UNL     1      11.935  17.839  18.217  1.00  0.00     0.109 A 
HETATM   43  C26 UNL     1      12.691  16.676  18.892  1.00  0.00     0.054 C 
HETATM   44  C27 UNL     1      10.536  17.866  18.272  1.00  0.00     0.212 A 
HETATM   45  O4  UNL     1      11.136  18.452  19.348  1.00  0.00    -0.370 OA
ENDBRANCH   2  42
TORSDOF 15
ENDMDL
MODEL 5
REMARK VINA RESULT: -6.951928416      1.824      2.458
REMARK  15 active torsions:
REMARK  status: ('A' for Active; 'I' for Inactive)
REMARK    1  A    between atoms: O1_2  and  N1_3 
REMARK    2  A    between atoms: N1_3  and  C3_5 
REMARK    3  A    between atoms: C3_5  and  C4_6 
REMARK    4  A    between atoms: C3_5  and  C5_9 
REMARK    5  A    between atoms: C4_6  and  O2_7 
REMARK    6  A    between atoms: C5_9  and  C7_11 
REMARK    7  A    between atoms: C7_11  and  N2_12 
REMARK    8  A    between atoms: N2_12  and  N3_13 
REMARK    9  A    between atoms: N2_12  and  C9_18 
REMARK   10  A    between atoms: N3_13  and  C8_15 
REMARK   11  A    between atoms: C9_18  and  N5_19 
REMARK       I    between atoms: N5_19  and  C10_21 
REMARK       I    between atoms: C10_21  and  N7_25 
REMARK   12  A    between atoms: C15_32  and  C16_33 
REMARK   13  A    between atoms: C20_37  and  C21_38 
REMARK   14  A    between atoms: C20_37  and  C25_42 
REMARK   15  A    between atoms: C21_38  and  C22_39 
ROOT
HETATM    1  C9  UNL     1      19.436  24.853  17.099  1.00  0.00     0.146 C 
HETATM    2  C20 UNL     1      20.060  25.556  16.002  1.00  0.00     0.021 C 
ENDROOT
BRANCH   1   3
HETATM    3  N2  UNL     1      18.599  23.664  17.007  1.00  0.00    -0.273 N 
BRANCH   3   4
HETATM    4  C7  UNL     1      17.187  23.830  16.753  1.00  0.00     0.157 C 
BRANCH   4   5
HETATM    5  C5  UNL     1      16.414  22.657  16.325  1.00  0.00     0.028 C 
HETATM    6  C6  UNL     1      16.320  22.732  14.786  1.00  0.00     0.014 C 
BRANCH   5   7
HETATM    7  C3  UNL     1      14.936  22.760  16.757  1.00  0.00     0.137 C 
BRANCH   7   8
HETATM    8  N1  UNL     1      14.563  21.766  17.672  1.00  0.00    -0.292 N 
HETATM    9  C2  UNL     1      14.546  22.032  19.050  1.00  0.00     0.178 C 
BRANCH   8  10
HETATM   10  O1  UNL     1      14.150  20.598  17.258  1.00  0.00    -0.288 OA
HETATM   11  C1  UNL     1      14.408  19.531  18.085  1.00  0.00     0.237 C 
ENDBRANCH   8  10
ENDBRANCH   7   8
BRANCH   7  12
HETATM   12  C4  UNL     1      14.094  22.783  15.498  1.00  0.00     0.191 C 
BRANCH  12  13
HETATM   13  O2  UNL     1      12.748  22.547  15.745  1.00  0.00    -0.399 OA
ATOM     14  H2  UNL     1      12.187  22.833  15.034  1.00  0.00     0.209 HD
ENDBRANCH  12  13
ENDBRANCH   7  12
ENDBRANCH   5   7
ENDBRANCH   4   5
ENDBRANCH   3   4
BRANCH   3  15
HETATM   15  N3  UNL     1      19.064  22.368  17.166  1.00  0.00    -0.275 N 
ATOM     16  H3  UNL     1      19.948  22.150  16.706  1.00  0.00     0.189 HD
BRANCH  15  17
HETATM   17  C8  UNL     1      18.466  21.315  17.886  1.00  0.00     0.199 C 
HETATM   18  N4  UNL     1      17.957  20.104  17.411  1.00  0.00    -0.068 NA
HETATM   19  S1  UNL     1      18.324  21.494  19.530  1.00  0.00    -0.043 SA
ENDBRANCH  15  17
ENDBRANCH   3  15
ENDBRANCH   1   3
BRANCH   1  20
HETATM   20  N5  UNL     1      19.587  25.284  18.303  1.00  0.00    -0.175 N 
HETATM   21  C10 UNL     1      20.354  24.831  19.356  1.00  0.00     0.677 C 
HETATM   22  N6  UNL     1      19.767  24.437  20.429  1.00  0.00    -0.234 N 
HETATM   23  N7  UNL     1      21.765  24.762  19.364  1.00  0.00    -0.199 N 
ATOM     24  H62 UNL     1      18.747  24.487  20.424  1.00  0.00     0.174 HD
ATOM     25  H61 UNL     1      20.334  24.102  21.208  1.00  0.00     0.174 HD
HETATM   26  C11 UNL     1      22.601  24.985  20.248  1.00  0.00     0.011 C 
ATOM     27  H7  UNL     1      22.170  24.474  18.474  1.00  0.00     0.183 HD
HETATM   28  C12 UNL     1      24.052  24.808  19.900  1.00  0.00     0.131 C 
HETATM   29  C19 UNL     1      22.280  25.409  21.626  1.00  0.00     0.058 C 
HETATM   30  C13 UNL     1      24.632  23.939  20.966  1.00  0.00     0.132 C 
HETATM   31  O3  UNL     1      25.189  22.901  20.732  1.00  0.00    -0.298 OA
HETATM   32  C14 UNL     1      24.486  24.428  22.362  1.00  0.00     0.084 C 
HETATM   33  C15 UNL     1      23.528  25.579  22.463  1.00  0.00     0.001 C 
ATOM     34  H5  UNL     1      19.036  26.116  18.518  1.00  0.00     0.186 HD
BRANCH  33  35
HETATM   35  C16 UNL     1      23.217  25.841  23.892  1.00  0.00    -0.018 C 
HETATM   36  C17 UNL     1      24.360  26.237  24.756  1.00  0.00     0.010 C 
HETATM   37  C18 UNL     1      22.161  26.942  24.019  1.00  0.00     0.010 C 
ENDBRANCH  33  35
ENDBRANCH   1  20
BRANCH   2  38
HETATM   38  C21 UNL     1      21.523  25.632  15.880  1.00  0.00    -0.009 C 
BRANCH  38  39
HETATM   39  C22 UNL     1      22.325  26.691  16.481  1.00  0.00     0.001 C 
HETATM   40  C23 UNL     1      23.770  26.554  15.908  1.00  0.00     0.013 C 
HETATM   41  C24 UNL     1      21.963  28.110  16.001  1.00  0.00     0.013 C 
ENDBRANCH  38  39
ENDBRANCH   2  38
BRANCH   2  42
HETATM   42  C25 UNL     1      19.311  25.480  14.664  1.00  0.00     0.109 A 
HETATM   43  C26 UNL     1      17.905  26.112  14.716  1.00  0.00     0.054 C 
HETATM   44  C27 UNL     1      19.849  25.114  13.424  1.00  0.00     0.212 A 
HETATM   45  O4  UNL     1      20.090  26.414  13.762  1.00  0.00    -0.370 OA
ENDBRANCH   2  42
TORSDOF 15
ENDMDL
