MODEL 1
REMARK VINA RESULT: -7.547582568      0.000      0.000
REMARK  13 active torsions:
REMARK  status: ('A' for Active; 'I' for Inactive)
REMARK    1  A    between atoms: O1_2  and  C2_3 
REMARK    2  A    between atoms: C2_3  and  C3_4 
REMARK    3  A    between atoms: C3_4  and  O2_5 
REMARK    4  A    between atoms: O2_5  and  N1_6 
REMARK    5  A    between atoms: N1_6  and  S1_8 
REMARK    6  A    between atoms: S1_8  and  C4_10 
REMARK    7  A    between atoms: C4_10  and  C5_11 
REMARK    8  A    between atoms: C6_16  and  N4_17 
REMARK    9  A    between atoms: C9_23  and  C10_24 
REMARK   10  A    between atoms: C14_31  and  O7_32 
REMARK   11  A    between atoms: C16_38  and  C17_39 
REMARK   12  A    between atoms: C17_39  and  C18_40 
REMARK   13  A    between atoms: C18_40  and  O9_41 
ROOT
HETATM    1  C5  UNL     1       8.150   8.363  27.529  1.00  0.00     0.213 C 
HETATM    2  N2  UNL     1       8.348   9.632  26.869  1.00  0.00    -0.298 N 
ATOM      3  H2  UNL     1       9.306   9.952  26.729  1.00  0.00     0.183 HD
HETATM    4  N3  UNL     1       7.328  10.439  26.417  1.00  0.00    -0.133 N 
ATOM      5  H3  UNL     1       7.273  10.565  25.407  1.00  0.00     0.205 HD
HETATM    6  C6  UNL     1       6.429  11.060  27.117  1.00  0.00     0.713 C 
HETATM    7  N5  UNL     1       6.342  11.009  28.536  1.00  0.00    -0.094 N 
ATOM      8  H5  UNL     1       5.422  10.830  28.936  1.00  0.00     0.213 HD
HETATM    9  O4  UNL     1       7.348  11.172  29.389  1.00  0.00    -0.242 OA
HETATM   10  C9  UNL     1       7.184  12.201  30.316  1.00  0.00     0.192 C 
HETATM   11  C11 UNL     1       5.730  12.140  30.768  1.00  0.00     0.064 C 
HETATM   12  C12 UNL     1       5.543  13.120  31.899  1.00  0.00     0.078 C 
HETATM   13  S2  UNL     1       7.139  13.009  32.750  1.00  0.00    -0.157 SA
HETATM   14  C13 UNL     1       7.983  11.931  31.557  1.00  0.00     0.130 C 
HETATM   15  C14 UNL     1       9.417  12.259  31.545  1.00  0.00     0.190 C 
HETATM   16  C15 UNL     1      10.019  11.737  32.822  1.00  0.00     0.101 A 
HETATM   17  N6  UNL     1       9.448  11.766  34.039  1.00  0.00    -0.260 N 
ATOM     18  H6  UNL     1       8.524  12.147  34.239  1.00  0.00     0.194 HD
HETATM   19  O8  UNL     1      10.237  11.246  34.917  1.00  0.00    -0.239 OA
HETATM   20  C16 UNL     1      11.336  10.860  34.328  1.00  0.00     0.116 A 
HETATM   21  C19 UNL     1      11.237  11.157  32.977  1.00  0.00     0.157 A 
HETATM   22  O10 UNL     1      12.140  10.940  31.954  1.00  0.00    -0.231 OA
HETATM   23  N7  UNL     1      11.996  10.328  30.740  1.00  0.00    -0.229 N 
ATOM     24  H7  UNL     1      12.088  10.909  29.908  1.00  0.00     0.198 HD
HETATM   25  C20 UNL     1      11.727   8.946  30.546  1.00  0.00     0.241 C 
HETATM   26  O11 UNL     1      12.392   8.248  29.712  1.00  0.00    -0.271 OA
HETATM   27  C21 UNL     1      10.679   8.157  31.254  1.00  0.00     0.114 C 
HETATM   28  C22 UNL     1       9.471   7.953  30.355  1.00  0.00     0.112 C 
HETATM   29  C23 UNL     1       9.833   7.264  29.088  1.00  0.00     0.219 C 
HETATM   30  O12 UNL     1      10.481   6.185  29.069  1.00  0.00    -0.274 OA
HETATM   31  N8  UNL     1       9.455   7.814  27.836  1.00  0.00    -0.338 N 
ATOM     32  H8  UNL     1      10.156   7.823  27.095  1.00  0.00     0.164 HD
ENDROOT
BRANCH   1  33
HETATM   33  C4  UNL     1       7.554   7.361  26.527  1.00  0.00     0.181 C 
BRANCH  33  34
HETATM   34  S1  UNL     1       8.763   6.610  25.501  1.00  0.00     0.137 S 
HETATM   35  O3  UNL     1       9.728   7.869  24.877  1.00  0.00    -0.234 OA
BRANCH  34  36
HETATM   36  N1  UNL     1       7.907   5.982  24.110  1.00  0.00    -0.214 N 
ATOM     37  H1  UNL     1       7.076   6.406  23.698  1.00  0.00     0.205 HD
BRANCH  36  38
HETATM   38  O2  UNL     1       8.497   4.866  23.665  1.00  0.00    -0.270 OA
BRANCH  38  39
HETATM   39  C3  UNL     1       7.524   3.966  23.235  1.00  0.00     0.228 C 
BRANCH  39  40
HETATM   40  C2  UNL     1       6.317   3.995  24.109  1.00  0.00     0.195 C 
BRANCH  40  41
HETATM   41  O1  UNL     1       5.185   4.492  23.521  1.00  0.00    -0.394 OA
HETATM   42  C1  UNL     1       4.421   5.195  24.433  1.00  0.00     0.201 C 
ENDBRANCH  40  41
ENDBRANCH  39  40
ENDBRANCH  38  39
ENDBRANCH  36  38
ENDBRANCH  34  36
ENDBRANCH  33  34
ENDBRANCH   1  33
BRANCH   6  43
HETATM   43  N4  UNL     1       5.426  11.871  26.455  1.00  0.00    -0.224 N 
HETATM   44  C7  UNL     1       5.859  12.670  25.317  1.00  0.00     0.168 C 
HETATM   45  C8  UNL     1       4.054  11.913  26.871  1.00  0.00     0.168 C 
ENDBRANCH   6  43
BRANCH  10  46
HETATM   46  C10 UNL     1       7.484  13.463  29.631  1.00  0.00     0.213 C 
HETATM   47  O5  UNL     1       6.915  14.561  29.947  1.00  0.00    -0.646 OA
HETATM   48  O6  UNL     1       8.407  13.594  28.585  1.00  0.00    -0.646 OA
ENDBRANCH  10  46
BRANCH  15  49
HETATM   49  O7  UNL     1       9.705  13.624  31.403  1.00  0.00    -0.388 OA
ATOM     50  H7  UNL     1      10.187  13.850  30.616  1.00  0.00     0.210 HD
ENDBRANCH  15  49
BRANCH  20  51
HETATM   51  C17 UNL     1      12.476  10.208  35.077  1.00  0.00     0.096 C 
BRANCH  51  52
HETATM   52  C18 UNL     1      13.792  10.480  34.414  1.00  0.00     0.170 C 
BRANCH  52  53
HETATM   53  O9  UNL     1      14.111   9.367  33.634  1.00  0.00    -0.400 OA
ATOM     54  H9  UNL     1      14.476   8.705  34.211  1.00  0.00     0.209 HD
ENDBRANCH  52  53
ENDBRANCH  51  52
ENDBRANCH  20  51
TORSDOF 13
ENDMDL
MODEL 2
REMARK VINA RESULT: -7.477424064      0.774      1.090
REMARK  13 active torsions:
REMARK  status: ('A' for Active; 'I' for Inactive)
REMARK    1  A    between atoms: O1_2  and  C2_3 
REMARK    2  A    between atoms: C2_3  and  C3_4 
REMARK    3  A    between atoms: C3_4  and  O2_5 
REMARK    4  A    between atoms: O2_5  and  N1_6 
REMARK    5  A    between atoms: N1_6  and  S1_8 
REMARK    6  A    between atoms: S1_8  and  C4_10 
REMARK    7  A    between atoms: C4_10  and  C5_11 
REMARK    8  A    between atoms: C6_16  and  N4_17 
REMARK    9  A    between atoms: C9_23  and  C10_24 
REMARK   10  A    between atoms: C14_31  and  O7_32 
REMARK   11  A    between atoms: C16_38  and  C17_39 
REMARK   12  A    between atoms: C17_39  and  C18_40 
REMARK   13  A    between atoms: C18_40  and  O9_41 
ROOT
HETATM    1  C5  UNL     1       8.274   8.337  27.460  1.00  0.00     0.213 C 
HETATM    2  N2  UNL     1       8.482   9.603  26.798  1.00  0.00    -0.298 N 
ATOM      3  H2  UNL     1       9.442   9.916  26.659  1.00  0.00     0.183 HD
HETATM    4  N3  UNL     1       7.468  10.417  26.343  1.00  0.00    -0.133 N 
ATOM      5  H3  UNL     1       7.416  10.541  25.333  1.00  0.00     0.205 HD
HETATM    6  C6  UNL     1       6.573  11.045  27.040  1.00  0.00     0.713 C 
HETATM    7  N5  UNL     1       6.484  10.997  28.460  1.00  0.00    -0.094 N 
ATOM      8  H5  UNL     1       5.561  10.825  28.859  1.00  0.00     0.213 HD
HETATM    9  O4  UNL     1       7.490  11.155  29.315  1.00  0.00    -0.242 OA
HETATM   10  C9  UNL     1       7.331  12.187  30.239  1.00  0.00     0.192 C 
HETATM   11  C11 UNL     1       5.876  12.137  30.689  1.00  0.00     0.064 C 
HETATM   12  C12 UNL     1       5.695  13.120  31.819  1.00  0.00     0.078 C 
HETATM   13  S2  UNL     1       7.289  12.998  32.672  1.00  0.00    -0.157 SA
HETATM   14  C13 UNL     1       8.127  11.912  31.482  1.00  0.00     0.130 C 
HETATM   15  C14 UNL     1       9.563  12.230  31.471  1.00  0.00     0.190 C 
HETATM   16  C15 UNL     1      10.159  11.706  32.750  1.00  0.00     0.101 A 
HETATM   17  N6  UNL     1       9.588  11.742  33.966  1.00  0.00    -0.260 N 
ATOM     18  H6  UNL     1       8.665  12.129  34.164  1.00  0.00     0.194 HD
HETATM   19  O8  UNL     1      10.372  11.218  34.846  1.00  0.00    -0.239 OA
HETATM   20  C16 UNL     1      11.469  10.823  34.259  1.00  0.00     0.116 A 
HETATM   21  C19 UNL     1      11.373  11.119  32.907  1.00  0.00     0.157 A 
HETATM   22  O10 UNL     1      12.276  10.893  31.886  1.00  0.00    -0.231 OA
HETATM   23  N7  UNL     1      12.129  10.280  30.674  1.00  0.00    -0.229 N 
ATOM     24  H7  UNL     1      12.227  10.860  29.840  1.00  0.00     0.198 HD
HETATM   25  C20 UNL     1      11.852   8.900  30.481  1.00  0.00     0.241 C 
HETATM   26  O11 UNL     1      12.513   8.195  29.649  1.00  0.00    -0.271 OA
HETATM   27  C21 UNL     1      10.797   8.119  31.189  1.00  0.00     0.114 C 
HETATM   28  C22 UNL     1       9.588   7.923  30.288  1.00  0.00     0.112 C 
HETATM   29  C23 UNL     1       9.948   7.229  29.024  1.00  0.00     0.219 C 
HETATM   30  O12 UNL     1      10.588   6.145  29.007  1.00  0.00    -0.274 OA
HETATM   31  N8  UNL     1       9.575   7.779  27.770  1.00  0.00    -0.338 N 
ATOM     32  H8  UNL     1      10.277   7.782  27.030  1.00  0.00     0.164 HD
ENDROOT
BRANCH   1  33
HETATM   33  C4  UNL     1       7.673   7.338  26.459  1.00  0.00     0.181 C 
BRANCH  33  34
HETATM   34  S1  UNL     1       8.881   6.546  25.464  1.00  0.00     0.137 S 
HETATM   35  O3  UNL     1       9.821   7.781  24.757  1.00  0.00    -0.234 OA
BRANCH  34  36
HETATM   36  N1  UNL     1       8.020   5.827  24.121  1.00  0.00    -0.214 N 
ATOM     37  H1  UNL     1       7.342   6.315  23.536  1.00  0.00     0.205 HD
BRANCH  36  38
HETATM   38  O2  UNL     1       8.376   4.545  23.973  1.00  0.00    -0.270 OA
BRANCH  38  39
HETATM   39  C3  UNL     1       7.889   3.800  25.044  1.00  0.00     0.228 C 
BRANCH  39  40
HETATM   40  C2  UNL     1       6.538   3.236  24.760  1.00  0.00     0.195 C 
BRANCH  40  41
HETATM   41  O1  UNL     1       6.231   2.091  25.444  1.00  0.00    -0.394 OA
HETATM   42  C1  UNL     1       7.375   1.463  25.898  1.00  0.00     0.201 C 
ENDBRANCH  40  41
ENDBRANCH  39  40
ENDBRANCH  38  39
ENDBRANCH  36  38
ENDBRANCH  34  36
ENDBRANCH  33  34
ENDBRANCH   1  33
BRANCH   6  43
HETATM   43  N4  UNL     1       5.576  11.862  26.376  1.00  0.00    -0.224 N 
HETATM   44  C7  UNL     1       4.248  11.908  26.970  1.00  0.00     0.168 C 
HETATM   45  C8  UNL     1       5.847  12.610  25.182  1.00  0.00     0.168 C 
ENDBRANCH   6  43
BRANCH  10  46
HETATM   46  C10 UNL     1       7.642  13.445  29.552  1.00  0.00     0.213 C 
HETATM   47  O5  UNL     1       7.061  14.542  29.848  1.00  0.00    -0.646 OA
HETATM   48  O6  UNL     1       8.587  13.573  28.527  1.00  0.00    -0.646 OA
ENDBRANCH  10  46
BRANCH  15  49
HETATM   49  O7  UNL     1       9.861  13.594  31.328  1.00  0.00    -0.388 OA
ATOM     50  H7  UNL     1       9.987  14.061  32.145  1.00  0.00     0.210 HD
ENDBRANCH  15  49
BRANCH  20  51
HETATM   51  C17 UNL     1      12.603  10.165  35.011  1.00  0.00     0.096 C 
BRANCH  51  52
HETATM   52  C18 UNL     1      13.918  10.400  34.333  1.00  0.00     0.170 C 
BRANCH  52  53
HETATM   53  O9  UNL     1      14.185   9.289  33.530  1.00  0.00    -0.400 OA
ATOM     54  H9  UNL     1      14.265   8.533  34.102  1.00  0.00     0.209 HD
ENDBRANCH  52  53
ENDBRANCH  51  52
ENDBRANCH  20  51
TORSDOF 13
ENDMDL
MODEL 3
REMARK VINA RESULT: -7.406933341      1.335      1.611
REMARK  13 active torsions:
REMARK  status: ('A' for Active; 'I' for Inactive)
REMARK    1  A    between atoms: O1_2  and  C2_3 
REMARK    2  A    between atoms: C2_3  and  C3_4 
REMARK    3  A    between atoms: C3_4  and  O2_5 
REMARK    4  A    between atoms: O2_5  and  N1_6 
REMARK    5  A    between atoms: N1_6  and  S1_8 
REMARK    6  A    between atoms: S1_8  and  C4_10 
REMARK    7  A    between atoms: C4_10  and  C5_11 
REMARK    8  A    between atoms: C6_16  and  N4_17 
REMARK    9  A    between atoms: C9_23  and  C10_24 
REMARK   10  A    between atoms: C14_31  and  O7_32 
REMARK   11  A    between atoms: C16_38  and  C17_39 
REMARK   12  A    between atoms: C17_39  and  C18_40 
REMARK   13  A    between atoms: C18_40  and  O9_41 
ROOT
HETATM    1  C5  UNL     1       8.403   8.605  28.459  1.00  0.00     0.213 C 
HETATM    2  N2  UNL     1       8.372   9.892  27.804  1.00  0.00    -0.298 N 
ATOM      3  H2  UNL     1       9.253  10.275  27.464  1.00  0.00     0.183 HD
HETATM    4  N3  UNL     1       7.229  10.636  27.609  1.00  0.00    -0.133 N 
ATOM      5  H3  UNL     1       6.944  10.769  26.639  1.00  0.00     0.205 HD
HETATM    6  C6  UNL     1       6.473  11.189  28.505  1.00  0.00     0.713 C 
HETATM    7  N5  UNL     1       6.707  11.117  29.907  1.00  0.00    -0.094 N 
ATOM      8  H5  UNL     1       5.911  10.874  30.496  1.00  0.00     0.213 HD
HETATM    9  O4  UNL     1       7.865  11.336  30.521  1.00  0.00    -0.242 OA
HETATM   10  C9  UNL     1       7.848  12.342  31.486  1.00  0.00     0.192 C 
HETATM   11  C11 UNL     1       6.538  12.181  32.247  1.00  0.00     0.064 C 
HETATM   12  C12 UNL     1       6.548  13.134  33.416  1.00  0.00     0.078 C 
HETATM   13  S2  UNL     1       8.297  13.117  33.890  1.00  0.00    -0.157 SA
HETATM   14  C13 UNL     1       8.919  12.110  32.513  1.00  0.00     0.130 C 
HETATM   15  C14 UNL     1      10.291  12.530  32.192  1.00  0.00     0.190 C 
HETATM   16  C15 UNL     1      11.193  12.035  33.291  1.00  0.00     0.101 A 
HETATM   17  N6  UNL     1      10.906  12.014  34.604  1.00  0.00    -0.260 N 
ATOM     18  H6  UNL     1      10.028  12.331  35.014  1.00  0.00     0.194 HD
HETATM   19  O8  UNL     1      11.901  11.536  35.272  1.00  0.00    -0.239 OA
HETATM   20  C16 UNL     1      12.863  11.229  34.445  1.00  0.00     0.116 A 
HETATM   21  C19 UNL     1      12.447  11.534  33.158  1.00  0.00     0.157 A 
HETATM   22  O10 UNL     1      13.112  11.387  31.955  1.00  0.00    -0.231 OA
HETATM   23  N7  UNL     1      12.740  10.780  30.789  1.00  0.00    -0.229 N 
ATOM     24  H7  UNL     1      12.608  11.376  29.971  1.00  0.00     0.198 HD
HETATM   25  C20 UNL     1      12.519   9.386  30.623  1.00  0.00     0.241 C 
HETATM   26  O11 UNL     1      13.024   8.742  29.646  1.00  0.00    -0.271 OA
HETATM   27  C21 UNL     1      11.705   8.523  31.526  1.00  0.00     0.114 C 
HETATM   28  C22 UNL     1      10.342   8.251  30.911  1.00  0.00     0.112 C 
HETATM   29  C23 UNL     1      10.455   7.601  29.579  1.00  0.00     0.219 C 
HETATM   30  O12 UNL     1      11.146   6.567  29.390  1.00  0.00    -0.274 OA
HETATM   31  N8  UNL     1       9.775   8.139  28.456  1.00  0.00    -0.338 N 
ATOM     32  H8  UNL     1      10.292   8.202  27.579  1.00  0.00     0.164 HD
ENDROOT
BRANCH   1  33
HETATM   33  C4  UNL     1       7.662   7.578  27.588  1.00  0.00     0.181 C 
BRANCH  33  34
HETATM   34  S1  UNL     1       7.999   7.753  25.876  1.00  0.00     0.137 S 
HETATM   35  O3  UNL     1       7.001   9.012  25.305  1.00  0.00    -0.234 OA
BRANCH  34  36
HETATM   36  N1  UNL     1       7.376   6.313  25.101  1.00  0.00    -0.214 N 
ATOM     37  H1  UNL     1       6.386   6.103  24.973  1.00  0.00     0.205 HD
BRANCH  36  38
HETATM   38  O2  UNL     1       8.383   5.528  24.700  1.00  0.00    -0.270 OA
BRANCH  38  39
HETATM   39  C3  UNL     1       8.412   4.375  25.482  1.00  0.00     0.228 C 
BRANCH  39  40
HETATM   40  C2  UNL     1       7.618   3.270  24.872  1.00  0.00     0.195 C 
BRANCH  40  41
HETATM   41  O1  UNL     1       6.273   3.506  24.775  1.00  0.00    -0.394 OA
HETATM   42  C1  UNL     1       5.813   3.232  23.501  1.00  0.00     0.201 C 
ENDBRANCH  40  41
ENDBRANCH  39  40
ENDBRANCH  38  39
ENDBRANCH  36  38
ENDBRANCH  34  36
ENDBRANCH  33  34
ENDBRANCH   1  33
BRANCH   6  43
HETATM   43  N4  UNL     1       5.300  11.941  28.102  1.00  0.00    -0.224 N 
HETATM   44  C7  UNL     1       4.645  12.750  29.120  1.00  0.00     0.168 C 
HETATM   45  C8  UNL     1       4.775  11.916  26.768  1.00  0.00     0.168 C 
ENDBRANCH   6  43
BRANCH  10  46
HETATM   46  C10 UNL     1       7.912  13.628  30.784  1.00  0.00     0.213 C 
HETATM   47  O5  UNL     1       8.479  13.755  29.647  1.00  0.00    -0.646 OA
HETATM   48  O6  UNL     1       7.368  14.823  31.272  1.00  0.00    -0.646 OA
ENDBRANCH  10  46
BRANCH  15  49
HETATM   49  O7  UNL     1      10.457  13.914  32.025  1.00  0.00    -0.388 OA
ATOM     50  H7  UNL     1      10.674  14.184  31.140  1.00  0.00     0.210 HD
ENDBRANCH  15  49
BRANCH  20  51
HETATM   51  C17 UNL     1      14.178  10.644  34.907  1.00  0.00     0.096 C 
BRANCH  51  52
HETATM   52  C18 UNL     1      14.373   9.254  34.382  1.00  0.00     0.170 C 
BRANCH  52  53
HETATM   53  O9  UNL     1      15.035   9.354  33.157  1.00  0.00    -0.400 OA
ATOM     54  H9  UNL     1      15.950   9.142  33.307  1.00  0.00     0.209 HD
ENDBRANCH  52  53
ENDBRANCH  51  52
ENDBRANCH  20  51
TORSDOF 13
ENDMDL
MODEL 4
REMARK VINA RESULT: -7.080667598      2.391      5.659
REMARK  13 active torsions:
REMARK  status: ('A' for Active; 'I' for Inactive)
REMARK    1  A    between atoms: O1_2  and  C2_3 
REMARK    2  A    between atoms: C2_3  and  C3_4 
REMARK    3  A    between atoms: C3_4  and  O2_5 
REMARK    4  A    between atoms: O2_5  and  N1_6 
REMARK    5  A    between atoms: N1_6  and  S1_8 
REMARK    6  A    between atoms: S1_8  and  C4_10 
REMARK    7  A    between atoms: C4_10  and  C5_11 
REMARK    8  A    between atoms: C6_16  and  N4_17 
REMARK    9  A    between atoms: C9_23  and  C10_24 
REMARK   10  A    between atoms: C14_31  and  O7_32 
REMARK   11  A    between atoms: C16_38  and  C17_39 
REMARK   12  A    between atoms: C17_39  and  C18_40 
REMARK   13  A    between atoms: C18_40  and  O9_41 
ROOT
HETATM    1  C5  UNL     1       7.867   9.079  25.964  1.00  0.00     0.213 C 
HETATM    2  N2  UNL     1       7.399   7.976  26.770  1.00  0.00    -0.298 N 
ATOM      3  H2  UNL     1       6.431   7.997  27.091  1.00  0.00     0.183 HD
HETATM    4  N3  UNL     1       8.174   6.898  27.135  1.00  0.00    -0.133 N 
ATOM      5  H3  UNL     1       7.893   5.996  26.749  1.00  0.00     0.205 HD
HETATM    6  C6  UNL     1       9.215   6.886  27.907  1.00  0.00     0.713 C 
HETATM    7  N5  UNL     1       9.757   8.041  28.538  1.00  0.00    -0.094 N 
ATOM      8  H5  UNL     1      10.767   8.174  28.469  1.00  0.00     0.213 HD
HETATM    9  O4  UNL     1       9.074   8.963  29.208  1.00  0.00    -0.242 OA
HETATM   10  C9  UNL     1       9.473   9.159  30.530  1.00  0.00     0.192 C 
HETATM   11  C11 UNL     1      10.996   9.112  30.527  1.00  0.00     0.064 C 
HETATM   12  C12 UNL     1      11.485   9.493  31.902  1.00  0.00     0.078 C 
HETATM   13  S2  UNL     1      10.257  10.728  32.400  1.00  0.00    -0.157 SA
HETATM   14  C13 UNL     1       9.132  10.547  30.986  1.00  0.00     0.130 C 
HETATM   15  C14 UNL     1       7.755  10.814  31.431  1.00  0.00     0.190 C 
HETATM   16  C15 UNL     1       7.627  12.296  31.664  1.00  0.00     0.101 A 
HETATM   17  N6  UNL     1       8.556  13.097  32.211  1.00  0.00    -0.260 N 
ATOM     18  H6  UNL     1       9.475  12.790  32.531  1.00  0.00     0.194 HD
HETATM   19  O8  UNL     1       8.122  14.310  32.274  1.00  0.00    -0.239 OA
HETATM   20  C16 UNL     1       6.914  14.357  31.783  1.00  0.00     0.116 A 
HETATM   21  C19 UNL     1       6.556  13.080  31.376  1.00  0.00     0.157 A 
HETATM   22  O10 UNL     1       5.385  12.631  30.798  1.00  0.00    -0.231 OA
HETATM   23  N7  UNL     1       5.162  11.901  29.664  1.00  0.00    -0.229 N 
ATOM     24  H7  UNL     1       4.776  10.963  29.778  1.00  0.00     0.198 HD
HETATM   25  C20 UNL     1       5.427  12.342  28.340  1.00  0.00     0.241 C 
HETATM   26  O11 UNL     1       4.567  12.211  27.408  1.00  0.00    -0.271 OA
HETATM   27  C21 UNL     1       6.689  12.988  27.876  1.00  0.00     0.114 C 
HETATM   28  C22 UNL     1       7.551  11.986  27.125  1.00  0.00     0.112 C 
HETATM   29  C23 UNL     1       6.837  11.406  25.958  1.00  0.00     0.219 C 
HETATM   30  O12 UNL     1       6.277  12.121  25.086  1.00  0.00    -0.274 OA
HETATM   31  N8  UNL     1       6.762  10.000  25.786  1.00  0.00    -0.338 N 
ATOM     32  H8  UNL     1       5.860   9.606  25.518  1.00  0.00     0.164 HD
ENDROOT
BRANCH   1  33
HETATM   33  C4  UNL     1       8.160   8.576  24.542  1.00  0.00     0.181 C 
BRANCH  33  34
HETATM   34  S1  UNL     1       9.128   7.114  24.513  1.00  0.00     0.137 S 
HETATM   35  O3  UNL     1      10.382   7.377  23.388  1.00  0.00    -0.234 OA
BRANCH  34  36
HETATM   36  N1  UNL     1       8.132   5.877  23.780  1.00  0.00    -0.214 N 
ATOM     37  H1  UNL     1       8.271   5.497  22.843  1.00  0.00     0.205 HD
BRANCH  36  38
HETATM   38  O2  UNL     1       7.162   5.500  24.621  1.00  0.00    -0.270 OA
BRANCH  38  39
HETATM   39  C3  UNL     1       6.831   4.168  24.383  1.00  0.00     0.228 C 
BRANCH  39  40
HETATM   40  C2  UNL     1       5.355   3.967  24.308  1.00  0.00     0.195 C 
BRANCH  40  41
HETATM   41  O1  UNL     1       4.958   2.730  23.876  1.00  0.00    -0.394 OA
HETATM   42  C1  UNL     1       6.047   1.952  23.534  1.00  0.00     0.201 C 
ENDBRANCH  40  41
ENDBRANCH  39  40
ENDBRANCH  38  39
ENDBRANCH  36  38
ENDBRANCH  34  36
ENDBRANCH  33  34
ENDBRANCH   1  33
BRANCH   6  43
HETATM   43  N4  UNL     1       9.907   5.640  28.176  1.00  0.00    -0.224 N 
HETATM   44  C7  UNL     1      10.035   4.699  27.073  1.00  0.00     0.168 C 
HETATM   45  C8  UNL     1      10.455   5.311  29.459  1.00  0.00     0.168 C 
ENDBRANCH   6  43
BRANCH  10  46
HETATM   46  C10 UNL     1       8.900   8.070  31.329  1.00  0.00     0.213 C 
HETATM   47  O5  UNL     1       7.643   7.860  31.389  1.00  0.00    -0.646 OA
HETATM   48  O6  UNL     1       9.653   7.167  32.090  1.00  0.00    -0.646 OA
ENDBRANCH  10  46
BRANCH  15  49
HETATM   49  O7  UNL     1       7.364  10.113  32.582  1.00  0.00    -0.388 OA
ATOM     50  H7  UNL     1       7.599   9.192  32.586  1.00  0.00     0.210 HD
ENDBRANCH  15  49
BRANCH  20  51
HETATM   51  C17 UNL     1       6.113  15.637  31.710  1.00  0.00     0.096 C 
BRANCH  51  52
HETATM   52  C18 UNL     1       6.236  16.431  32.974  1.00  0.00     0.170 C 
BRANCH  52  53
HETATM   53  O9  UNL     1       6.258  15.530  34.040  1.00  0.00    -0.400 OA
ATOM     54  H9  UNL     1       7.169  15.337  34.235  1.00  0.00     0.209 HD
ENDBRANCH  52  53
ENDBRANCH  51  52
ENDBRANCH  20  51
TORSDOF 13
ENDMDL
MODEL 5
REMARK VINA RESULT: -6.876455519      2.300      6.057
REMARK  13 active torsions:
REMARK  status: ('A' for Active; 'I' for Inactive)
REMARK    1  A    between atoms: O1_2  and  C2_3 
REMARK    2  A    between atoms: C2_3  and  C3_4 
REMARK    3  A    between atoms: C3_4  and  O2_5 
REMARK    4  A    between atoms: O2_5  and  N1_6 
REMARK    5  A    between atoms: N1_6  and  S1_8 
REMARK    6  A    between atoms: S1_8  and  C4_10 
REMARK    7  A    between atoms: C4_10  and  C5_11 
REMARK    8  A    between atoms: C6_16  and  N4_17 
REMARK    9  A    between atoms: C9_23  and  C10_24 
REMARK   10  A    between atoms: C14_31  and  O7_32 
REMARK   11  A    between atoms: C16_38  and  C17_39 
REMARK   12  A    between atoms: C17_39  and  C18_40 
REMARK   13  A    between atoms: C18_40  and  O9_41 
ROOT
HETATM    1  C5  UNL     1       8.097   9.557  27.012  1.00  0.00     0.213 C 
HETATM    2  N2  UNL     1       7.893   8.554  28.030  1.00  0.00    -0.298 N 
ATOM      3  H2  UNL     1       6.937   8.377  28.340  1.00  0.00     0.183 HD
HETATM    4  N3  UNL     1       8.903   7.820  28.611  1.00  0.00    -0.133 N 
ATOM      5  H3  UNL     1       8.892   6.818  28.422  1.00  0.00     0.205 HD
HETATM    6  C6  UNL     1       9.866   8.245  29.370  1.00  0.00     0.713 C 
HETATM    7  N5  UNL     1      10.048   9.605  29.746  1.00  0.00    -0.094 N 
ATOM      8  H5  UNL     1      10.989   9.988  29.651  1.00  0.00     0.213 HD
HETATM    9  O4  UNL     1       9.109  10.423  30.210  1.00  0.00    -0.242 OA
HETATM   10  C9  UNL     1       9.367  10.980  31.462  1.00  0.00     0.192 C 
HETATM   11  C11 UNL     1      10.847  11.347  31.468  1.00  0.00     0.064 C 
HETATM   12  C12 UNL     1      11.140  12.113  32.734  1.00  0.00     0.078 C 
HETATM   13  S2  UNL     1       9.604  13.045  32.964  1.00  0.00    -0.157 SA
HETATM   14  C13 UNL     1       8.647  12.288  31.619  1.00  0.00     0.130 C 
HETATM   15  C14 UNL     1       7.227  12.257  31.999  1.00  0.00     0.190 C 
HETATM   16  C15 UNL     1       6.699  13.664  31.918  1.00  0.00     0.101 A 
HETATM   17  N6  UNL     1       7.352  14.779  32.287  1.00  0.00    -0.260 N 
ATOM     18  H6  UNL     1       8.299  14.802  32.663  1.00  0.00     0.194 HD
HETATM   19  O8  UNL     1       6.610  15.818  32.096  1.00  0.00    -0.239 OA
HETATM   20  C16 UNL     1       5.462  15.437  31.605  1.00  0.00     0.116 A 
HETATM   21  C19 UNL     1       5.477  14.057  31.474  1.00  0.00     0.157 A 
HETATM   22  O10 UNL     1       4.500  13.202  31.002  1.00  0.00    -0.231 OA
HETATM   23  N7  UNL     1       4.542  12.227  30.045  1.00  0.00    -0.229 N 
ATOM     24  H7  UNL     1       4.410  11.263  30.351  1.00  0.00     0.198 HD
HETATM   25  C20 UNL     1       4.755  12.449  28.657  1.00  0.00     0.241 C 
HETATM   26  O11 UNL     1       4.013  11.907  27.773  1.00  0.00    -0.271 OA
HETATM   27  C21 UNL     1       5.825  13.304  28.069  1.00  0.00     0.114 C 
HETATM   28  C22 UNL     1       6.962  12.443  27.543  1.00  0.00     0.112 C 
HETATM   29  C23 UNL     1       6.493  11.470  26.522  1.00  0.00     0.219 C 
HETATM   30  O12 UNL     1       5.814  11.817  25.521  1.00  0.00    -0.274 OA
HETATM   31  N8  UNL     1       6.801  10.090  26.647  1.00  0.00    -0.338 N 
ATOM     32  H8  UNL     1       6.051   9.423  26.467  1.00  0.00     0.164 HD
ENDROOT
BRANCH   1  33
HETATM   33  C4  UNL     1       8.592   8.877  25.726  1.00  0.00     0.181 C 
BRANCH  33  34
HETATM   34  S1  UNL     1       8.387   7.135  25.744  1.00  0.00     0.137 S 
HETATM   35  O3  UNL     1       9.860   6.472  26.291  1.00  0.00    -0.234 OA
BRANCH  34  36
HETATM   36  N1  UNL     1       8.275   6.635  24.071  1.00  0.00    -0.214 N 
ATOM     37  H1  UNL     1       7.797   7.158  23.338  1.00  0.00     0.205 HD
BRANCH  36  38
HETATM   38  O2  UNL     1       8.905   5.468  23.890  1.00  0.00    -0.270 OA
BRANCH  38  39
HETATM   39  C3  UNL     1       8.261   4.741  22.892  1.00  0.00     0.228 C 
BRANCH  39  40
HETATM   40  C2  UNL     1       7.316   3.737  23.458  1.00  0.00     0.195 C 
BRANCH  40  41
HETATM   41  O1  UNL     1       7.225   3.729  24.824  1.00  0.00    -0.394 OA
HETATM   42  C1  UNL     1       6.945   2.460  25.294  1.00  0.00     0.201 C 
ENDBRANCH  40  41
ENDBRANCH  39  40
ENDBRANCH  38  39
ENDBRANCH  36  38
ENDBRANCH  34  36
ENDBRANCH  33  34
ENDBRANCH   1  33
BRANCH   6  43
HETATM   43  N4  UNL     1      10.845   7.312  29.892  1.00  0.00    -0.224 N 
HETATM   44  C7  UNL     1      12.038   7.873  30.508  1.00  0.00     0.168 C 
HETATM   45  C8  UNL     1      10.683   5.888  29.823  1.00  0.00     0.168 C 
ENDBRANCH   6  43
BRANCH  10  46
HETATM   46  C10 UNL     1       9.058   9.961  32.470  1.00  0.00     0.213 C 
HETATM   47  O5  UNL     1       8.630   8.801  32.155  1.00  0.00    -0.646 OA
HETATM   48  O6  UNL     1       9.199  10.147  33.851  1.00  0.00    -0.646 OA
ENDBRANCH  10  46
BRANCH  15  49
HETATM   49  O7  UNL     1       6.970  11.722  33.270  1.00  0.00    -0.388 OA
ATOM     50  H7  UNL     1       7.665  11.854  33.904  1.00  0.00     0.210 HD
ENDBRANCH  15  49
BRANCH  20  51
HETATM   51  C17 UNL     1       4.358  16.413  31.268  1.00  0.00     0.096 C 
BRANCH  51  52
HETATM   52  C18 UNL     1       3.158  16.204  32.141  1.00  0.00     0.170 C 
BRANCH  52  53
HETATM   53  O9  UNL     1       2.308  15.311  31.485  1.00  0.00    -0.400 OA
ATOM     54  H9  UNL     1       2.833  14.575  31.192  1.00  0.00     0.209 HD
ENDBRANCH  52  53
ENDBRANCH  51  52
ENDBRANCH  20  51
TORSDOF 13
ENDMDL
