MODEL 1
REMARK VINA RESULT: -7.775756815      0.000      0.000
REMARK  11 active torsions:
REMARK  status: ('A' for Active; 'I' for Inactive)
REMARK    1  A    between atoms: C2_2  and  O1_3 
REMARK    2  A    between atoms: O1_3  and  N1_4 
REMARK    3  A    between atoms: C3_6  and  C4_7 
REMARK    4  A    between atoms: C3_6  and  C15_37 
REMARK       I    between atoms: C4_7  and  N2_9 
REMARK    5  A    between atoms: C6_12  and  C7_13 
REMARK    6  A    between atoms: N3_14  and  N4_16 
REMARK       I    between atoms: N4_16  and  C8_18 
REMARK    7  A    between atoms: C10_23  and  C11_24 
REMARK       I    between atoms: C11_24  and  N5_26 
REMARK    8  A    between atoms: N5_26  and  C12_28 
REMARK    9  A    between atoms: C12_28  and  O7_29 
REMARK   10  A    between atoms: C13_32  and  N6_33 
REMARK   11  A    between atoms: C15_37  and  C16_39 
ROOT
HETATM    1  C4  UNL     1      -6.892   4.565  -6.390  1.00  0.00     0.278 C 
HETATM    2  O2  UNL     1      -6.704   5.094  -7.546  1.00  0.00    -0.265 OA
HETATM    3  N2  UNL     1      -6.461   3.235  -6.202  1.00  0.00    -0.325 N 
ATOM      4  H2  UNL     1      -7.103   2.461  -6.373  1.00  0.00     0.169 HD
HETATM    5  C5  UNL     1      -5.246   2.995  -5.811  1.00  0.00     0.039 C 
HETATM    6  C6  UNL     1      -4.217   4.028  -5.529  1.00  0.00     0.098 C 
HETATM    7  C9  UNL     1      -3.306   3.257  -4.596  1.00  0.00     0.185 C 
HETATM    8  O5  UNL     1      -3.261   1.998  -5.196  1.00  0.00    -0.369 OA
HETATM    9  C10 UNL     1      -4.575   1.703  -5.553  1.00  0.00     0.259 C 
ENDROOT
BRANCH   6  10
HETATM   10  C7  UNL     1      -3.546   4.335  -6.796  1.00  0.00     0.093 C 
HETATM   11  N3  UNL     1      -3.377   5.540  -7.191  1.00  0.00    -0.310 N 
ATOM     12  H3  UNL     1      -2.907   5.719  -8.079  1.00  0.00     0.185 HD
BRANCH  11  13
HETATM   13  N4  UNL     1      -3.825   6.605  -6.430  1.00  0.00    -0.244 N 
HETATM   14  C8  UNL     1      -3.359   7.911  -6.625  1.00  0.00     0.303 C 
HETATM   15  O3  UNL     1      -2.509   8.202  -7.500  1.00  0.00    -0.628 OA
HETATM   16  O4  UNL     1      -3.827   8.970  -5.840  1.00  0.00    -0.628 OA
ATOM     17  H4  UNL     1      -4.517   6.432  -5.702  1.00  0.00     0.193 HD
ENDBRANCH  11  13
ENDBRANCH   6  10
BRANCH   9  18
HETATM   18  C11 UNL     1      -5.244   0.884  -4.521  1.00  0.00     0.256 C 
HETATM   19  O6  UNL     1      -6.025   1.494  -3.718  1.00  0.00    -0.270 OA
HETATM   20  N5  UNL     1      -5.028  -0.510  -4.432  1.00  0.00    -0.300 N 
ATOM     21  H5  UNL     1      -4.396  -0.968  -5.089  1.00  0.00     0.168 HD
BRANCH  20  22
HETATM   22  C12 UNL     1      -5.710  -1.306  -3.397  1.00  0.00     0.305 A 
HETATM   23  O8  UNL     1      -4.907  -1.250  -2.142  1.00  0.00    -0.294 OA
HETATM   24  C13 UNL     1      -5.074  -2.494  -2.898  1.00  0.00     0.411 A 
BRANCH  22  25
HETATM   25  O7  UNL     1      -7.027  -0.971  -3.222  1.00  0.00    -0.345 OA
ATOM     26  H7  UNL     1      -7.313  -1.004  -2.316  1.00  0.00     0.215 HD
ENDBRANCH  22  25
BRANCH  24  27
HETATM   27  N6  UNL     1      -5.807  -3.493  -2.197  1.00  0.00    -0.045 N 
HETATM   28  C14 UNL     1      -6.482  -4.426  -3.070  1.00  0.00     0.270 C 
ATOM     29  H62 UNL     1      -5.207  -3.986  -1.536  1.00  0.00     0.280 HD
ATOM     30  H61 UNL     1      -6.464  -3.068  -1.544  1.00  0.00     0.280 HD
ENDBRANCH  24  27
ENDBRANCH  20  22
ENDBRANCH   9  18
BRANCH   1  31
HETATM   31  C3  UNL     1      -7.527   5.397  -5.405  1.00  0.00     0.179 C 
HETATM   32  N1  UNL     1      -8.722   5.138  -4.947  1.00  0.00    -0.258 N 
ATOM     33  H1  UNL     1      -9.144   5.749  -4.248  1.00  0.00     0.194 HD
BRANCH  32  34
HETATM   34  O1  UNL     1      -9.409   4.045  -5.406  1.00  0.00    -0.280 OA
BRANCH  34  35
HETATM   35  C2  UNL     1     -10.136   3.213  -4.534  1.00  0.00     0.196 C 
HETATM   36  C1  UNL     1      -9.466   1.875  -4.401  1.00  0.00     0.036 C 
ENDBRANCH  34  35
ENDBRANCH  32  34
BRANCH  31  37
HETATM   37  C15 UNL     1      -6.856   6.569  -4.875  1.00  0.00     0.281 C 
HETATM   38  O9  UNL     1      -5.988   6.413  -3.989  1.00  0.00    -0.278 OA
BRANCH  37  39
HETATM   39  C16 UNL     1      -7.200   7.916  -5.381  1.00  0.00     0.254 C 
HETATM   40  O10 UNL     1      -7.821   8.713  -4.659  1.00  0.00    -0.642 OA
HETATM   41  O11 UNL     1      -6.800   8.225  -6.668  1.00  0.00    -0.642 OA
ENDBRANCH  37  39
ENDBRANCH  31  37
ENDBRANCH   1  31
TORSDOF 11
ENDMDL
MODEL 2
REMARK VINA RESULT: -7.555077701      3.610      8.181
REMARK  11 active torsions:
REMARK  status: ('A' for Active; 'I' for Inactive)
REMARK    1  A    between atoms: C2_2  and  O1_3 
REMARK    2  A    between atoms: O1_3  and  N1_4 
REMARK    3  A    between atoms: C3_6  and  C4_7 
REMARK    4  A    between atoms: C3_6  and  C15_37 
REMARK       I    between atoms: C4_7  and  N2_9 
REMARK    5  A    between atoms: C6_12  and  C7_13 
REMARK    6  A    between atoms: N3_14  and  N4_16 
REMARK       I    between atoms: N4_16  and  C8_18 
REMARK    7  A    between atoms: C10_23  and  C11_24 
REMARK       I    between atoms: C11_24  and  N5_26 
REMARK    8  A    between atoms: N5_26  and  C12_28 
REMARK    9  A    between atoms: C12_28  and  O7_29 
REMARK   10  A    between atoms: C13_32  and  N6_33 
REMARK   11  A    between atoms: C15_37  and  C16_39 
ROOT
HETATM    1  C4  UNL     1      -4.294  -1.208  -5.160  1.00  0.00     0.278 C 
HETATM    2  O2  UNL     1      -5.338  -1.807  -5.611  1.00  0.00    -0.265 OA
HETATM    3  N2  UNL     1      -3.493  -0.505  -6.084  1.00  0.00    -0.325 N 
ATOM      4  H2  UNL     1      -2.710  -0.973  -6.540  1.00  0.00     0.169 HD
HETATM    5  C5  UNL     1      -3.754   0.738  -6.355  1.00  0.00     0.039 C 
HETATM    6  C6  UNL     1      -4.860   1.531  -5.763  1.00  0.00     0.098 C 
HETATM    7  C9  UNL     1      -4.323   2.934  -5.954  1.00  0.00     0.185 C 
HETATM    8  O5  UNL     1      -3.768   2.869  -7.232  1.00  0.00    -0.369 OA
HETATM    9  C10 UNL     1      -3.066   1.666  -7.279  1.00  0.00     0.259 C 
ENDROOT
BRANCH   6  10
HETATM   10  C7  UNL     1      -6.053   1.299  -6.585  1.00  0.00     0.093 C 
HETATM   11  N3  UNL     1      -7.168   0.949  -6.065  1.00  0.00    -0.310 N 
ATOM     12  H3  UNL     1      -7.978   0.795  -6.667  1.00  0.00     0.185 HD
BRANCH  11  13
HETATM   13  N4  UNL     1      -7.289   0.774  -4.699  1.00  0.00    -0.244 N 
HETATM   14  C8  UNL     1      -8.101   1.598  -3.909  1.00  0.00     0.303 C 
HETATM   15  O3  UNL     1      -8.770   2.545  -4.387  1.00  0.00    -0.628 OA
HETATM   16  O4  UNL     1      -8.205   1.401  -2.529  1.00  0.00    -0.628 OA
ATOM     17  H4  UNL     1      -6.770   0.019  -4.251  1.00  0.00     0.193 HD
ENDBRANCH  11  13
ENDBRANCH   6  10
BRANCH   9  18
HETATM   18  C11 UNL     1      -1.635   1.862  -6.967  1.00  0.00     0.256 C 
HETATM   19  O6  UNL     1      -1.289   1.731  -5.746  1.00  0.00    -0.270 OA
HETATM   20  N5  UNL     1      -0.698   2.178  -7.975  1.00  0.00    -0.300 N 
ATOM     21  H5  UNL     1      -1.008   2.278  -8.942  1.00  0.00     0.168 HD
BRANCH  20  22
HETATM   22  C12 UNL     1       0.724   2.365  -7.640  1.00  0.00     0.305 A 
HETATM   23  O8  UNL     1       1.524   2.316  -8.896  1.00  0.00    -0.294 OA
HETATM   24  C13 UNL     1       1.642   1.282  -7.865  1.00  0.00     0.411 A 
BRANCH  22  25
HETATM   25  O7  UNL     1       0.970   3.474  -6.875  1.00  0.00    -0.345 OA
ATOM     26  H7  UNL     1       1.790   3.436  -6.396  1.00  0.00     0.215 HD
ENDBRANCH  22  25
BRANCH  24  27
HETATM   27  N6  UNL     1       2.920   1.246  -7.238  1.00  0.00    -0.045 N 
HETATM   28  C14 UNL     1       3.906   0.504  -7.990  1.00  0.00     0.270 C 
ATOM     29  H62 UNL     1       3.252   2.190  -7.038  1.00  0.00     0.280 HD
ATOM     30  H61 UNL     1       2.846   0.888  -6.286  1.00  0.00     0.280 HD
ENDBRANCH  24  27
ENDBRANCH  20  22
ENDBRANCH   9  18
BRANCH   1  31
HETATM   31  C3  UNL     1      -4.057  -1.321  -3.747  1.00  0.00     0.179 C 
HETATM   32  N1  UNL     1      -2.859  -1.221  -3.237  1.00  0.00    -0.258 N 
ATOM     33  H1  UNL     1      -2.724  -1.306  -2.229  1.00  0.00     0.194 HD
BRANCH  32  34
HETATM   34  O1  UNL     1      -1.782  -1.001  -4.055  1.00  0.00    -0.280 OA
BRANCH  34  35
HETATM   35  C2  UNL     1      -0.461  -1.129  -3.586  1.00  0.00     0.196 C 
HETATM   36  C1  UNL     1      -0.032   0.120  -2.872  1.00  0.00     0.036 C 
ENDBRANCH  34  35
ENDBRANCH  32  34
BRANCH  31  37
HETATM   37  C15 UNL     1      -5.151  -1.553  -2.823  1.00  0.00     0.281 C 
HETATM   38  O9  UNL     1      -5.839  -0.577  -2.454  1.00  0.00    -0.278 OA
BRANCH  37  39
HETATM   39  C16 UNL     1      -5.437  -2.920  -2.335  1.00  0.00     0.254 C 
HETATM   40  O10 UNL     1      -6.442  -3.136  -1.639  1.00  0.00    -0.642 OA
HETATM   41  O11 UNL     1      -4.543  -3.913  -2.690  1.00  0.00    -0.642 OA
ENDBRANCH  37  39
ENDBRANCH  31  37
ENDBRANCH   1  31
TORSDOF 11
ENDMDL
MODEL 3
REMARK VINA RESULT: -7.517843864      2.851      8.703
REMARK  11 active torsions:
REMARK  status: ('A' for Active; 'I' for Inactive)
REMARK    1  A    between atoms: C2_2  and  O1_3 
REMARK    2  A    between atoms: O1_3  and  N1_4 
REMARK    3  A    between atoms: C3_6  and  C4_7 
REMARK    4  A    between atoms: C3_6  and  C15_37 
REMARK       I    between atoms: C4_7  and  N2_9 
REMARK    5  A    between atoms: C6_12  and  C7_13 
REMARK    6  A    between atoms: N3_14  and  N4_16 
REMARK       I    between atoms: N4_16  and  C8_18 
REMARK    7  A    between atoms: C10_23  and  C11_24 
REMARK       I    between atoms: C11_24  and  N5_26 
REMARK    8  A    between atoms: N5_26  and  C12_28 
REMARK    9  A    between atoms: C12_28  and  O7_29 
REMARK   10  A    between atoms: C13_32  and  N6_33 
REMARK   11  A    between atoms: C15_37  and  C16_39 
ROOT
HETATM    1  C4  UNL     1      -3.010   1.409  -6.898  1.00  0.00     0.278 C 
HETATM    2  O2  UNL     1      -3.414   0.249  -7.277  1.00  0.00    -0.265 OA
HETATM    3  N2  UNL     1      -3.483   2.531  -7.610  1.00  0.00    -0.325 N 
ATOM      4  H2  UNL     1      -2.954   2.893  -8.403  1.00  0.00     0.169 HD
HETATM    5  C5  UNL     1      -4.594   3.104  -7.254  1.00  0.00     0.039 C 
HETATM    6  C6  UNL     1      -5.454   2.678  -6.122  1.00  0.00     0.098 C 
HETATM    7  C9  UNL     1      -6.186   3.972  -5.833  1.00  0.00     0.185 C 
HETATM    8  O5  UNL     1      -6.456   4.454  -7.114  1.00  0.00    -0.369 OA
HETATM    9  C10 UNL     1      -5.281   4.274  -7.841  1.00  0.00     0.259 C 
ENDROOT
BRANCH   6  10
HETATM   10  C7  UNL     1      -6.368   1.650  -6.631  1.00  0.00     0.093 C 
HETATM   11  N3  UNL     1      -6.743   0.665  -5.905  1.00  0.00    -0.310 N 
ATOM     12  H3  UNL     1      -7.379  -0.033  -6.290  1.00  0.00     0.185 HD
BRANCH  11  13
HETATM   13  N4  UNL     1      -6.294   0.535  -4.603  1.00  0.00    -0.244 N 
HETATM   14  C8  UNL     1      -7.038   0.991  -3.507  1.00  0.00     0.303 C 
HETATM   15  O3  UNL     1      -8.156   1.544  -3.633  1.00  0.00    -0.628 OA
HETATM   16  O4  UNL     1      -6.561   0.847  -2.200  1.00  0.00    -0.628 OA
ATOM     17  H4  UNL     1      -5.391   0.091  -4.435  1.00  0.00     0.193 HD
ENDBRANCH  11  13
ENDBRANCH   6  10
BRANCH   9  18
HETATM   18  C11 UNL     1      -4.459   5.502  -7.852  1.00  0.00     0.256 C 
HETATM   19  O6  UNL     1      -3.196   5.350  -7.752  1.00  0.00    -0.270 OA
HETATM   20  N5  UNL     1      -5.047   6.782  -7.967  1.00  0.00    -0.300 N 
ATOM     21  H5  UNL     1      -6.060   6.869  -8.042  1.00  0.00     0.168 HD
BRANCH  20  22
HETATM   22  C12 UNL     1      -4.206   7.990  -7.979  1.00  0.00     0.305 A 
HETATM   23  O8  UNL     1      -4.994   9.118  -8.552  1.00  0.00    -0.294 OA
HETATM   24  C13 UNL     1      -3.825   8.563  -9.241  1.00  0.00     0.411 A 
BRANCH  22  25
HETATM   25  O7  UNL     1      -3.637   8.279  -6.766  1.00  0.00    -0.345 OA
ATOM     26  H7  UNL     1      -3.133   9.085  -6.762  1.00  0.00     0.215 HD
ENDBRANCH  22  25
BRANCH  24  27
HETATM   27  N6  UNL     1      -2.739   9.478  -9.346  1.00  0.00    -0.045 N 
HETATM   28  C14 UNL     1      -1.465   8.831  -9.565  1.00  0.00     0.270 C 
ATOM     29  H62 UNL     1      -2.920  10.174 -10.070  1.00  0.00     0.280 HD
ATOM     30  H61 UNL     1      -2.700  10.089  -8.531  1.00  0.00     0.280 HD
ENDBRANCH  24  27
ENDBRANCH  20  22
ENDBRANCH   9  18
BRANCH   1  31
HETATM   31  C3  UNL     1      -2.110   1.434  -5.777  1.00  0.00     0.179 C 
HETATM   32  N1  UNL     1      -0.976   2.081  -5.815  1.00  0.00    -0.258 N 
ATOM     33  H1  UNL     1      -0.360   2.079  -5.001  1.00  0.00     0.194 HD
BRANCH  32  34
HETATM   34  O1  UNL     1      -0.614   2.762  -6.946  1.00  0.00    -0.280 OA
BRANCH  34  35
HETATM   35  C2  UNL     1       0.687   2.668  -7.478  1.00  0.00     0.196 C 
HETATM   36  C1  UNL     1       1.568   1.854  -6.575  1.00  0.00     0.036 C 
ENDBRANCH  34  35
ENDBRANCH  32  34
BRANCH  31  37
HETATM   37  C15 UNL     1      -2.432   0.736  -4.547  1.00  0.00     0.281 C 
HETATM   38  O9  UNL     1      -3.552   0.929  -4.025  1.00  0.00    -0.278 OA
BRANCH  37  39
HETATM   39  C16 UNL     1      -1.448  -0.183  -3.933  1.00  0.00     0.254 C 
HETATM   40  O10 UNL     1      -1.589  -0.549  -2.755  1.00  0.00    -0.642 OA
HETATM   41  O11 UNL     1      -0.394  -0.596  -4.726  1.00  0.00    -0.642 OA
ENDBRANCH  37  39
ENDBRANCH  31  37
ENDBRANCH   1  31
TORSDOF 11
ENDMDL
MODEL 4
REMARK VINA RESULT: -7.515668619      3.296      5.456
REMARK  11 active torsions:
REMARK  status: ('A' for Active; 'I' for Inactive)
REMARK    1  A    between atoms: C2_2  and  O1_3 
REMARK    2  A    between atoms: O1_3  and  N1_4 
REMARK    3  A    between atoms: C3_6  and  C4_7 
REMARK    4  A    between atoms: C3_6  and  C15_37 
REMARK       I    between atoms: C4_7  and  N2_9 
REMARK    5  A    between atoms: C6_12  and  C7_13 
REMARK    6  A    between atoms: N3_14  and  N4_16 
REMARK       I    between atoms: N4_16  and  C8_18 
REMARK    7  A    between atoms: C10_23  and  C11_24 
REMARK       I    between atoms: C11_24  and  N5_26 
REMARK    8  A    between atoms: N5_26  and  C12_28 
REMARK    9  A    between atoms: C12_28  and  O7_29 
REMARK   10  A    between atoms: C13_32  and  N6_33 
REMARK   11  A    between atoms: C15_37  and  C16_39 
ROOT
HETATM    1  C4  UNL     1      -4.042  -0.377  -5.362  1.00  0.00     0.278 C 
HETATM    2  O2  UNL     1      -3.915   0.046  -6.568  1.00  0.00    -0.265 OA
HETATM    3  N2  UNL     1      -3.060  -1.265  -4.873  1.00  0.00    -0.325 N 
ATOM      4  H2  UNL     1      -3.192  -2.272  -4.964  1.00  0.00     0.169 HD
HETATM    5  C5  UNL     1      -1.988  -0.799  -4.306  1.00  0.00     0.039 C 
HETATM    6  C6  UNL     1      -1.677   0.640  -4.112  1.00  0.00     0.098 C 
HETATM    7  C9  UNL     1      -0.709   0.555  -2.951  1.00  0.00     0.185 C 
HETATM    8  O5  UNL     1       0.065  -0.556  -3.288  1.00  0.00    -0.369 OA
HETATM    9  C10 UNL     1      -0.836  -1.523  -3.729  1.00  0.00     0.259 C 
ENDROOT
BRANCH   6  10
HETATM   10  C7  UNL     1      -1.010   1.111  -5.330  1.00  0.00     0.093 C 
HETATM   11  N3  UNL     1      -1.401   2.162  -5.946  1.00  0.00    -0.310 N 
ATOM     12  H3  UNL     1      -0.914   2.462  -6.791  1.00  0.00     0.185 HD
BRANCH  11  13
HETATM   13  N4  UNL     1      -2.477   2.897  -5.481  1.00  0.00    -0.244 N 
HETATM   14  C8  UNL     1      -3.081   3.903  -6.245  1.00  0.00     0.303 C 
HETATM   15  O3  UNL     1      -2.689   4.203  -7.398  1.00  0.00    -0.628 OA
HETATM   16  O4  UNL     1      -4.167   4.632  -5.751  1.00  0.00    -0.628 OA
ATOM     17  H4  UNL     1      -2.842   2.699  -4.550  1.00  0.00     0.193 HD
ENDBRANCH  11  13
ENDBRANCH   6  10
BRANCH   9  18
HETATM   18  C11 UNL     1      -1.204  -2.455  -2.643  1.00  0.00     0.256 C 
HETATM   19  O6  UNL     1      -0.613  -3.584  -2.627  1.00  0.00    -0.270 OA
HETATM   20  N5  UNL     1      -2.167  -2.106  -1.668  1.00  0.00    -0.300 N 
ATOM     21  H5  UNL     1      -2.623  -1.194  -1.710  1.00  0.00     0.168 HD
BRANCH  20  22
HETATM   22  C12 UNL     1      -2.514  -3.049  -0.592  1.00  0.00     0.305 A 
HETATM   23  O8  UNL     1      -3.533  -2.415   0.292  1.00  0.00    -0.294 OA
HETATM   24  C13 UNL     1      -2.179  -2.715   0.765  1.00  0.00     0.411 A 
BRANCH  22  25
HETATM   25  O7  UNL     1      -2.875  -4.291  -1.043  1.00  0.00    -0.345 OA
ATOM     26  H7  UNL     1      -2.327  -4.993  -0.711  1.00  0.00     0.215 HD
ENDBRANCH  22  25
BRANCH  24  27
HETATM   27  N6  UNL     1      -2.139  -3.704   1.788  1.00  0.00    -0.045 N 
HETATM   28  C14 UNL     1      -2.870  -3.328   2.976  1.00  0.00     0.270 C 
ATOM     29  H62 UNL     1      -2.462  -4.605   1.434  1.00  0.00     0.280 HD
ATOM     30  H61 UNL     1      -1.176  -3.948   2.017  1.00  0.00     0.280 HD
ENDBRANCH  24  27
ENDBRANCH  20  22
ENDBRANCH   9  18
BRANCH   1  31
HETATM   31  C3  UNL     1      -5.183   0.108  -4.634  1.00  0.00     0.179 C 
HETATM   32  N1  UNL     1      -6.033  -0.701  -4.062  1.00  0.00    -0.258 N 
ATOM     33  H1  UNL     1      -6.833  -0.324  -3.553  1.00  0.00     0.194 HD
BRANCH  32  34
HETATM   34  O1  UNL     1      -5.851  -2.056  -4.143  1.00  0.00    -0.280 OA
BRANCH  34  35
HETATM   35  C2  UNL     1      -5.803  -2.865  -2.991  1.00  0.00     0.196 C 
HETATM   36  C1  UNL     1      -6.744  -4.028  -3.125  1.00  0.00     0.036 C 
ENDBRANCH  34  35
ENDBRANCH  32  34
BRANCH  31  37
HETATM   37  C15 UNL     1      -5.436   1.530  -4.507  1.00  0.00     0.281 C 
HETATM   38  O9  UNL     1      -4.696   2.205  -3.758  1.00  0.00    -0.278 OA
BRANCH  37  39
HETATM   39  C16 UNL     1      -6.550   2.158  -5.252  1.00  0.00     0.254 C 
HETATM   40  O10 UNL     1      -6.518   2.211  -6.492  1.00  0.00    -0.642 OA
HETATM   41  O11 UNL     1      -7.596   2.669  -4.505  1.00  0.00    -0.642 OA
ENDBRANCH  37  39
ENDBRANCH  31  37
ENDBRANCH   1  31
TORSDOF 11
ENDMDL
MODEL 5
REMARK VINA RESULT: -7.435773520      4.215      7.012
REMARK  11 active torsions:
REMARK  status: ('A' for Active; 'I' for Inactive)
REMARK    1  A    between atoms: C2_2  and  O1_3 
REMARK    2  A    between atoms: O1_3  and  N1_4 
REMARK    3  A    between atoms: C3_6  and  C4_7 
REMARK    4  A    between atoms: C3_6  and  C15_37 
REMARK       I    between atoms: C4_7  and  N2_9 
REMARK    5  A    between atoms: C6_12  and  C7_13 
REMARK    6  A    between atoms: N3_14  and  N4_16 
REMARK       I    between atoms: N4_16  and  C8_18 
REMARK    7  A    between atoms: C10_23  and  C11_24 
REMARK       I    between atoms: C11_24  and  N5_26 
REMARK    8  A    between atoms: N5_26  and  C12_28 
REMARK    9  A    between atoms: C12_28  and  O7_29 
REMARK   10  A    between atoms: C13_32  and  N6_33 
REMARK   11  A    between atoms: C15_37  and  C16_39 
ROOT
HETATM    1  C4  UNL     1       0.027   2.234  -7.361  1.00  0.00     0.278 C 
HETATM    2  O2  UNL     1       0.324   3.484  -7.403  1.00  0.00    -0.265 OA
HETATM    3  N2  UNL     1      -0.357   1.694  -6.116  1.00  0.00    -0.325 N 
ATOM      4  H2  UNL     1       0.344   1.282  -5.501  1.00  0.00     0.169 HD
HETATM    5  C5  UNL     1      -1.604   1.722  -5.753  1.00  0.00     0.039 C 
HETATM    6  C6  UNL     1      -2.717   2.291  -6.554  1.00  0.00     0.098 C 
HETATM    7  C9  UNL     1      -3.891   1.537  -5.963  1.00  0.00     0.185 C 
HETATM    8  O5  UNL     1      -3.591   1.540  -4.601  1.00  0.00    -0.369 OA
HETATM    9  C10 UNL     1      -2.236   1.228  -4.511  1.00  0.00     0.259 C 
ENDROOT
BRANCH   6  10
HETATM   10  C7  UNL     1      -2.792   3.723  -6.244  1.00  0.00     0.093 C 
HETATM   11  N3  UNL     1      -2.784   4.610  -7.165  1.00  0.00    -0.310 N 
ATOM     12  H3  UNL     1      -2.837   5.598  -6.914  1.00  0.00     0.185 HD
BRANCH  11  13
HETATM   13  N4  UNL     1      -2.703   4.248  -8.498  1.00  0.00    -0.244 N 
HETATM   14  C8  UNL     1      -3.180   5.071  -9.526  1.00  0.00     0.303 C 
HETATM   15  O3  UNL     1      -3.708   6.187  -9.308  1.00  0.00    -0.628 OA
HETATM   16  O4  UNL     1      -3.088   4.680 -10.866  1.00  0.00    -0.628 OA
ATOM     17  H4  UNL     1      -2.283   3.351  -8.739  1.00  0.00     0.193 HD
ENDBRANCH  11  13
ENDBRANCH   6  10
BRANCH   9  18
HETATM   18  C11 UNL     1      -2.028  -0.216  -4.274  1.00  0.00     0.256 C 
HETATM   19  O6  UNL     1      -0.950  -0.724  -4.727  1.00  0.00    -0.270 OA
HETATM   20  N5  UNL     1      -2.981  -0.993  -3.576  1.00  0.00    -0.300 N 
ATOM     21  H5  UNL     1      -3.834  -0.555  -3.229  1.00  0.00     0.168 HD
BRANCH  20  22
HETATM   22  C12 UNL     1      -2.749  -2.428  -3.349  1.00  0.00     0.305 A 
HETATM   23  O8  UNL     1      -3.277  -3.191  -4.516  1.00  0.00    -0.294 OA
HETATM   24  C13 UNL     1      -3.879  -3.301  -3.184  1.00  0.00     0.411 A 
BRANCH  22  25
HETATM   25  O7  UNL     1      -1.451  -2.735  -3.036  1.00  0.00    -0.345 OA
ATOM     26  H7  UNL     1      -0.860  -2.704  -3.779  1.00  0.00     0.215 HD
ENDBRANCH  22  25
BRANCH  24  27
HETATM   27  N6  UNL     1      -3.744  -4.593  -2.603  1.00  0.00    -0.045 N 
HETATM   28  C14 UNL     1      -4.490  -5.616  -3.301  1.00  0.00     0.270 C 
ATOM     29  H62 UNL     1      -2.761  -4.854  -2.522  1.00  0.00     0.280 HD
ATOM     30  H61 UNL     1      -3.994  -4.574  -1.615  1.00  0.00     0.280 HD
ENDBRANCH  24  27
ENDBRANCH  20  22
ENDBRANCH   9  18
BRANCH   1  31
HETATM   31  C3  UNL     1       0.119   1.517  -8.604  1.00  0.00     0.179 C 
HETATM   32  N1  UNL     1       1.013   0.586  -8.800  1.00  0.00    -0.258 N 
ATOM     33  H1  UNL     1       1.052   0.096  -9.694  1.00  0.00     0.194 HD
BRANCH  32  34
HETATM   34  O1  UNL     1       1.899   0.266  -7.805  1.00  0.00    -0.280 OA
BRANCH  34  35
HETATM   35  C2  UNL     1       3.265   0.594  -7.902  1.00  0.00     0.196 C 
HETATM   36  C1  UNL     1       3.836   0.094  -9.198  1.00  0.00     0.036 C 
ENDBRANCH  34  35
ENDBRANCH  32  34
BRANCH  31  37
HETATM   37  C15 UNL     1      -0.788   1.803  -9.699  1.00  0.00     0.281 C 
HETATM   38  O9  UNL     1      -0.555   2.792 -10.427  1.00  0.00    -0.278 OA
BRANCH  37  39
HETATM   39  C16 UNL     1      -1.963   0.935  -9.938  1.00  0.00     0.254 C 
HETATM   40  O10 UNL     1      -1.812  -0.286 -10.101  1.00  0.00    -0.642 OA
HETATM   41  O11 UNL     1      -3.201   1.550  -9.971  1.00  0.00    -0.642 OA
ENDBRANCH  37  39
ENDBRANCH  31  37
ENDBRANCH   1  31
TORSDOF 11
ENDMDL
