MODEL 1
REMARK VINA RESULT: -6.660088341      0.000      0.000
REMARK  11 active torsions:
REMARK  status: ('A' for Active; 'I' for Inactive)
REMARK    1  A    between atoms: O1_2  and  C2_3 
REMARK    2  A    between atoms: C3_4  and  O2_5 
REMARK    3  A    between atoms: C4_7  and  N1_8 
REMARK    4  A    between atoms: C6_13  and  N2_14 
REMARK    5  A    between atoms: C7_18  and  O3_19 
REMARK    6  A    between atoms: O3_19  and  C8_20 
REMARK    7  A    between atoms: C9_21  and  N3_22 
REMARK    8  A    between atoms: C11_27  and  N4_28 
REMARK    9  A    between atoms: C12_32  and  O4_33 
REMARK   10  A    between atoms: O4_33  and  C13_34 
REMARK   11  A    between atoms: C15_37  and  O6_38 
ROOT
HETATM    1  C8  UNL     1      -8.468  -0.424  25.679  1.00  0.00     0.183 C 
HETATM    2  C9  UNL     1      -9.258  -1.671  25.911  1.00  0.00     0.217 C 
HETATM    3  C10 UNL     1     -10.637  -1.686  25.377  1.00  0.00     0.071 C 
HETATM    4  C11 UNL     1     -10.831  -0.930  24.090  1.00  0.00     0.217 C 
HETATM    5  C12 UNL     1      -9.456  -0.752  23.483  1.00  0.00     0.193 C 
HETATM    6  C15 UNL     1      -8.748   0.250  24.366  1.00  0.00     0.180 C 
ENDROOT
BRANCH   1   7
HETATM    7  O3  UNL     1      -7.091  -0.641  25.730  1.00  0.00    -0.371 OA
BRANCH   7   8
HETATM    8  C7  UNL     1      -6.381   0.379  26.289  1.00  0.00     0.184 C 
HETATM    9  C2  UNL     1      -5.109   0.752  25.560  1.00  0.00     0.182 C 
HETATM   10  C3  UNL     1      -4.215   1.545  26.513  1.00  0.00     0.180 C 
HETATM   11  C4  UNL     1      -3.640   0.598  27.531  1.00  0.00     0.216 C 
HETATM   12  C5  UNL     1      -4.590  -0.561  27.731  1.00  0.00     0.071 C 
HETATM   13  C6  UNL     1      -6.012  -0.066  27.713  1.00  0.00     0.217 C 
BRANCH   9  14
HETATM   14  O1  UNL     1      -5.465   1.666  24.557  1.00  0.00    -0.385 OA
HETATM   15  C1  UNL     1      -5.295   1.082  23.303  1.00  0.00     0.202 C 
ENDBRANCH   9  14
BRANCH  10  16
HETATM   16  O2  UNL     1      -3.196   2.107  25.721  1.00  0.00    -0.391 OA
ATOM     17  H2  UNL     1      -2.434   2.184  26.283  1.00  0.00     0.210 HD
ENDBRANCH  10  16
BRANCH  11  18
HETATM   18  N1  UNL     1      -2.359   0.117  27.101  1.00  0.00    -0.072 N 
ATOM     19  H13 UNL     1      -2.070   0.543  26.220  1.00  0.00     0.274 HD
ATOM     20  H12 UNL     1      -1.604   0.465  27.692  1.00  0.00     0.274 HD
ATOM     21  H11 UNL     1      -2.361  -0.902  27.048  1.00  0.00     0.274 HD
ENDBRANCH  11  18
BRANCH  13  22
HETATM   22  N2  UNL     1      -6.258   0.965  28.679  1.00  0.00    -0.072 N 
ATOM     23  H23 UNL     1      -5.686   0.827  29.513  1.00  0.00     0.274 HD
ATOM     24  H22 UNL     1      -5.879   1.858  28.364  1.00  0.00     0.274 HD
ATOM     25  H21 UNL     1      -7.243   1.055  28.924  1.00  0.00     0.274 HD
ENDBRANCH  13  22
ENDBRANCH   7   8
ENDBRANCH   1   7
BRANCH   2  26
HETATM   26  N3  UNL     1      -9.398  -1.889  27.364  1.00  0.00    -0.072 N 
ATOM     27  H33 UNL     1      -9.790  -1.077  27.842  1.00  0.00     0.274 HD
ATOM     28  H32 UNL     1     -10.135  -2.558  27.587  1.00  0.00     0.274 HD
ATOM     29  H31 UNL     1      -8.493  -2.165  27.747  1.00  0.00     0.274 HD
ENDBRANCH   2  26
BRANCH   6  30
HETATM   30  O6  UNL     1      -9.521   1.403  24.571  1.00  0.00    -0.390 OA
ATOM     31  H6  UNL     1      -9.657   1.855  23.747  1.00  0.00     0.210 HD
ENDBRANCH   6  30
BRANCH   5  32
HETATM   32  O4  UNL     1      -9.477  -0.415  22.142  1.00  0.00    -0.311 OA
BRANCH  32  33
HETATM   33  C13 UNL     1      -9.792   0.831  21.634  1.00  0.00     0.255 C 
HETATM   34  C14 UNL     1     -11.112   1.001  20.967  1.00  0.00     0.126 C 
HETATM   35  O5  UNL     1      -8.958   1.742  21.762  1.00  0.00    -0.266 OA
ENDBRANCH  32  33
ENDBRANCH   5  32
BRANCH   4  36
HETATM   36  N4  UNL     1     -11.761  -1.566  23.189  1.00  0.00    -0.072 N 
ATOM     37  H43 UNL     1     -11.933  -2.532  23.469  1.00  0.00     0.274 HD
ATOM     38  H42 UNL     1     -12.700  -1.186  23.310  1.00  0.00     0.274 HD
ATOM     39  H41 UNL     1     -11.472  -1.517  22.213  1.00  0.00     0.274 HD
ENDBRANCH   4  36
TORSDOF 11
ENDMDL
MODEL 2
REMARK VINA RESULT: -6.630595580      1.252      1.484
REMARK  11 active torsions:
REMARK  status: ('A' for Active; 'I' for Inactive)
REMARK    1  A    between atoms: O1_2  and  C2_3 
REMARK    2  A    between atoms: C3_4  and  O2_5 
REMARK    3  A    between atoms: C4_7  and  N1_8 
REMARK    4  A    between atoms: C6_13  and  N2_14 
REMARK    5  A    between atoms: C7_18  and  O3_19 
REMARK    6  A    between atoms: O3_19  and  C8_20 
REMARK    7  A    between atoms: C9_21  and  N3_22 
REMARK    8  A    between atoms: C11_27  and  N4_28 
REMARK    9  A    between atoms: C12_32  and  O4_33 
REMARK   10  A    between atoms: O4_33  and  C13_34 
REMARK   11  A    between atoms: C15_37  and  O6_38 
ROOT
HETATM    1  C8  UNL     1      -8.261  -1.209  26.509  1.00  0.00     0.183 C 
HETATM    2  C9  UNL     1      -8.982  -2.240  25.702  1.00  0.00     0.217 C 
HETATM    3  C10 UNL     1     -10.439  -2.047  25.536  1.00  0.00     0.071 C 
HETATM    4  C11 UNL     1     -10.887  -0.612  25.453  1.00  0.00     0.217 C 
HETATM    5  C12 UNL     1      -9.660   0.203  25.111  1.00  0.00     0.193 C 
HETATM    6  C15 UNL     1      -8.799   0.185  26.353  1.00  0.00     0.180 C 
ENDROOT
BRANCH   1   7
HETATM    7  O3  UNL     1      -6.900  -1.148  26.213  1.00  0.00    -0.371 OA
BRANCH   7   8
HETATM    8  C7  UNL     1      -6.265  -0.048  26.709  1.00  0.00     0.184 C 
HETATM    9  C2  UNL     1      -5.195   0.534  25.813  1.00  0.00     0.182 C 
HETATM   10  C3  UNL     1      -4.283   1.425  26.658  1.00  0.00     0.180 C 
HETATM   11  C4  UNL     1      -3.422   0.547  27.524  1.00  0.00     0.216 C 
HETATM   12  C5  UNL     1      -4.149  -0.748  27.806  1.00  0.00     0.071 C 
HETATM   13  C6  UNL     1      -5.612  -0.474  28.033  1.00  0.00     0.217 C 
BRANCH   9  14
HETATM   14  O1  UNL     1      -5.835   1.413  24.927  1.00  0.00    -0.385 OA
HETATM   15  C1  UNL     1      -5.856   0.863  23.647  1.00  0.00     0.202 C 
ENDBRANCH   9  14
BRANCH  10  16
HETATM   16  O2  UNL     1      -3.497   2.159  25.750  1.00  0.00    -0.391 OA
ATOM     17  H2  UNL     1      -3.387   3.022  26.131  1.00  0.00     0.210 HD
ENDBRANCH  10  16
BRANCH  11  18
HETATM   18  N1  UNL     1      -2.170   0.279  26.876  1.00  0.00    -0.072 N 
ATOM     19  H13 UNL     1      -2.064  -0.710  26.649  1.00  0.00     0.274 HD
ATOM     20  H12 UNL     1      -2.145   0.656  25.929  1.00  0.00     0.274 HD
ATOM     21  H11 UNL     1      -1.395   0.624  27.443  1.00  0.00     0.274 HD
ENDBRANCH  11  18
BRANCH  13  22
HETATM   22  N2  UNL     1      -5.847   0.479  29.080  1.00  0.00    -0.072 N 
ATOM     23  H23 UNL     1      -4.969   0.881  29.410  1.00  0.00     0.274 HD
ATOM     24  H22 UNL     1      -6.288   1.321  28.712  1.00  0.00     0.274 HD
ATOM     25  H21 UNL     1      -6.385   0.093  29.855  1.00  0.00     0.274 HD
ENDBRANCH  13  22
ENDBRANCH   7   8
ENDBRANCH   1   7
BRANCH   2  26
HETATM   26  N3  UNL     1      -8.832  -3.554  26.356  1.00  0.00    -0.072 N 
ATOM     27  H33 UNL     1      -8.926  -4.328  25.698  1.00  0.00     0.274 HD
ATOM     28  H32 UNL     1      -7.872  -3.733  26.652  1.00  0.00     0.274 HD
ATOM     29  H31 UNL     1      -9.495  -3.619  27.129  1.00  0.00     0.274 HD
ENDBRANCH   2  26
BRANCH   6  30
HETATM   30  O6  UNL     1      -9.525   0.554  27.495  1.00  0.00    -0.390 OA
ATOM     31  H6  UNL     1     -10.292   1.055  27.247  1.00  0.00     0.210 HD
ENDBRANCH   6  30
BRANCH   5  32
HETATM   32  O4  UNL     1      -9.946   1.469  24.634  1.00  0.00    -0.311 OA
BRANCH  32  33
HETATM   33  C13 UNL     1      -9.587   1.958  23.391  1.00  0.00     0.255 C 
HETATM   34  C14 UNL     1      -9.393   0.981  22.285  1.00  0.00     0.126 C 
HETATM   35  O5  UNL     1      -9.448   3.185  23.264  1.00  0.00    -0.266 OA
ENDBRANCH  32  33
ENDBRANCH   5  32
BRANCH   4  36
HETATM   36  N4  UNL     1     -11.971  -0.407  24.524  1.00  0.00    -0.072 N 
ATOM     37  H43 UNL     1     -12.176   0.586  24.420  1.00  0.00     0.274 HD
ATOM     38  H42 UNL     1     -11.676  -0.619  23.571  1.00  0.00     0.274 HD
ATOM     39  H41 UNL     1     -12.813  -0.927  24.767  1.00  0.00     0.274 HD
ENDBRANCH   4  36
TORSDOF 11
ENDMDL
MODEL 3
REMARK VINA RESULT: -6.292547294      2.257      6.993
REMARK  11 active torsions:
REMARK  status: ('A' for Active; 'I' for Inactive)
REMARK    1  A    between atoms: O1_2  and  C2_3 
REMARK    2  A    between atoms: C3_4  and  O2_5 
REMARK    3  A    between atoms: C4_7  and  N1_8 
REMARK    4  A    between atoms: C6_13  and  N2_14 
REMARK    5  A    between atoms: C7_18  and  O3_19 
REMARK    6  A    between atoms: O3_19  and  C8_20 
REMARK    7  A    between atoms: C9_21  and  N3_22 
REMARK    8  A    between atoms: C11_27  and  N4_28 
REMARK    9  A    between atoms: C12_32  and  O4_33 
REMARK   10  A    between atoms: O4_33  and  C13_34 
REMARK   11  A    between atoms: C15_37  and  O6_38 
ROOT
HETATM    1  C8  UNL     1      -6.772   0.805  24.898  1.00  0.00     0.183 C 
HETATM    2  C9  UNL     1      -5.997   1.066  23.647  1.00  0.00     0.217 C 
HETATM    3  C10 UNL     1      -4.700   1.759  23.807  1.00  0.00     0.071 C 
HETATM    4  C11 UNL     1      -3.953   1.429  25.072  1.00  0.00     0.217 C 
HETATM    5  C12 UNL     1      -4.542   0.137  25.595  1.00  0.00     0.193 C 
HETATM    6  C15 UNL     1      -5.922   0.493  26.097  1.00  0.00     0.180 C 
ENDROOT
BRANCH   1   7
HETATM    7  O3  UNL     1      -7.674  -0.250  24.762  1.00  0.00    -0.371 OA
BRANCH   7   8
HETATM    8  C7  UNL     1      -8.970   0.080  25.027  1.00  0.00     0.184 C 
HETATM    9  C2  UNL     1      -9.808  -1.031  25.619  1.00  0.00     0.182 C 
HETATM   10  C3  UNL     1     -11.284  -0.684  25.427  1.00  0.00     0.180 C 
HETATM   11  C4  UNL     1     -11.636  -0.862  23.975  1.00  0.00     0.216 C 
HETATM   12  C5  UNL     1     -10.404  -0.635  23.129  1.00  0.00     0.071 C 
HETATM   13  C6  UNL     1      -9.600   0.507  23.692  1.00  0.00     0.217 C 
BRANCH   9  14
HETATM   14  O1  UNL     1      -9.609  -1.001  27.007  1.00  0.00    -0.385 OA
HETATM   15  C1  UNL     1      -8.800  -2.068  27.393  1.00  0.00     0.202 C 
ENDBRANCH   9  14
BRANCH  10  16
HETATM   16  O2  UNL     1     -12.009  -1.582  26.232  1.00  0.00    -0.391 OA
ATOM     17  H2  UNL     1     -12.482  -2.151  25.637  1.00  0.00     0.210 HD
ENDBRANCH  10  16
BRANCH  11  18
HETATM   18  N1  UNL     1     -12.156  -2.179  23.745  1.00  0.00    -0.072 N 
ATOM     19  H13 UNL     1     -11.583  -2.897  24.188  1.00  0.00     0.274 HD
ATOM     20  H12 UNL     1     -13.024  -2.340  24.257  1.00  0.00     0.274 HD
ATOM     21  H11 UNL     1     -12.269  -2.347  22.745  1.00  0.00     0.274 HD
ENDBRANCH  11  18
BRANCH  13  22
HETATM   22  N2  UNL     1     -10.360   1.717  23.819  1.00  0.00    -0.072 N 
ATOM     23  H23 UNL     1     -10.411   2.210  22.927  1.00  0.00     0.274 HD
ATOM     24  H22 UNL     1     -11.350   1.513  23.953  1.00  0.00     0.274 HD
ATOM     25  H21 UNL     1     -10.012   2.330  24.555  1.00  0.00     0.274 HD
ENDBRANCH  13  22
ENDBRANCH   7   8
ENDBRANCH   1   7
BRANCH   2  26
HETATM   26  N3  UNL     1      -6.797   1.930  22.758  1.00  0.00    -0.072 N 
ATOM     27  H33 UNL     1      -6.715   2.918  23.001  1.00  0.00     0.274 HD
ATOM     28  H32 UNL     1      -6.409   1.982  21.815  1.00  0.00     0.274 HD
ATOM     29  H31 UNL     1      -7.765   1.608  22.763  1.00  0.00     0.274 HD
ENDBRANCH   2  26
BRANCH   6  30
HETATM   30  O6  UNL     1      -5.894   1.593  26.967  1.00  0.00    -0.390 OA
ATOM     31  H6  UNL     1      -5.094   2.089  26.840  1.00  0.00     0.210 HD
ENDBRANCH   6  30
BRANCH   5  32
HETATM   32  O4  UNL     1      -3.745  -0.502  26.527  1.00  0.00    -0.311 OA
BRANCH  32  33
HETATM   33  C13 UNL     1      -3.535  -0.081  27.827  1.00  0.00     0.255 C 
HETATM   34  C14 UNL     1      -4.030  -0.948  28.931  1.00  0.00     0.126 C 
HETATM   35  O5  UNL     1      -2.945   0.997  28.004  1.00  0.00    -0.266 OA
ENDBRANCH  32  33
ENDBRANCH   5  32
BRANCH   4  36
HETATM   36  N4  UNL     1      -2.524   1.357  24.887  1.00  0.00    -0.072 N 
ATOM     37  H43 UNL     1      -2.062   2.156  25.320  1.00  0.00     0.274 HD
ATOM     38  H42 UNL     1      -2.124   0.606  25.449  1.00  0.00     0.274 HD
ATOM     39  H41 UNL     1      -2.249   1.265  23.909  1.00  0.00     0.274 HD
ENDBRANCH   4  36
TORSDOF 11
ENDMDL
MODEL 4
REMARK VINA RESULT: -6.280626578      2.368      6.767
REMARK  11 active torsions:
REMARK  status: ('A' for Active; 'I' for Inactive)
REMARK    1  A    between atoms: O1_2  and  C2_3 
REMARK    2  A    between atoms: C3_4  and  O2_5 
REMARK    3  A    between atoms: C4_7  and  N1_8 
REMARK    4  A    between atoms: C6_13  and  N2_14 
REMARK    5  A    between atoms: C7_18  and  O3_19 
REMARK    6  A    between atoms: O3_19  and  C8_20 
REMARK    7  A    between atoms: C9_21  and  N3_22 
REMARK    8  A    between atoms: C11_27  and  N4_28 
REMARK    9  A    between atoms: C12_32  and  O4_33 
REMARK   10  A    between atoms: O4_33  and  C13_34 
REMARK   11  A    between atoms: C15_37  and  O6_38 
ROOT
HETATM    1  C8  UNL     1      -7.374   0.693  24.100  1.00  0.00     0.183 C 
HETATM    2  C9  UNL     1      -5.882   0.722  24.022  1.00  0.00     0.217 C 
HETATM    3  C10 UNL     1      -5.155   0.735  25.311  1.00  0.00     0.071 C 
HETATM    4  C11 UNL     1      -5.812  -0.040  26.421  1.00  0.00     0.217 C 
HETATM    5  C12 UNL     1      -6.799  -0.981  25.765  1.00  0.00     0.193 C 
HETATM    6  C15 UNL     1      -7.918  -0.104  25.252  1.00  0.00     0.180 C 
ENDROOT
BRANCH   1   7
HETATM    7  O3  UNL     1      -7.964   0.180  22.946  1.00  0.00    -0.371 OA
BRANCH   7   8
HETATM    8  C7  UNL     1      -9.262   0.555  22.762  1.00  0.00     0.184 C 
HETATM    9  C2  UNL     1      -9.942  -0.053  21.556  1.00  0.00     0.182 C 
HETATM   10  C3  UNL     1     -11.176   0.783  21.218  1.00  0.00     0.180 C 
HETATM   11  C4  UNL     1     -10.724   2.083  20.610  1.00  0.00     0.216 C 
HETATM   12  C5  UNL     1      -9.352   2.434  21.140  1.00  0.00     0.071 C 
HETATM   13  C6  UNL     1      -9.263   2.083  22.601  1.00  0.00     0.217 C 
BRANCH   9  14
HETATM   14  O1  UNL     1     -10.450  -1.298  21.956  1.00  0.00    -0.385 OA
HETATM   15  C1  UNL     1     -10.950  -1.210  23.254  1.00  0.00     0.202 C 
ENDBRANCH   9  14
BRANCH  10  16
HETATM   16  O2  UNL     1     -11.922   0.030  20.292  1.00  0.00    -0.391 OA
ATOM     17  H2  UNL     1     -12.647  -0.346  20.777  1.00  0.00     0.210 HD
ENDBRANCH  10  16
BRANCH  11  18
HETATM   18  N1  UNL     1     -10.689   1.981  19.180  1.00  0.00    -0.072 N 
ATOM     19  H13 UNL     1      -9.803   1.600  18.848  1.00  0.00     0.274 HD
ATOM     20  H12 UNL     1     -11.308   1.247  18.836  1.00  0.00     0.274 HD
ATOM     21  H11 UNL     1     -10.896   2.885  18.754  1.00  0.00     0.274 HD
ENDBRANCH  11  18
BRANCH  13  22
HETATM   22  N2  UNL     1     -10.287   2.706  23.390  1.00  0.00    -0.072 N 
ATOM     23  H23 UNL     1     -11.214   2.465  23.040  1.00  0.00     0.274 HD
ATOM     24  H22 UNL     1     -10.343   2.282  24.315  1.00  0.00     0.274 HD
ATOM     25  H21 UNL     1     -10.176   3.717  23.459  1.00  0.00     0.274 HD
ENDBRANCH  13  22
ENDBRANCH   7   8
ENDBRANCH   1   7
BRANCH   2  26
HETATM   26  N3  UNL     1      -5.461   1.950  23.322  1.00  0.00    -0.072 N 
ATOM     27  H33 UNL     1      -5.538   1.865  22.308  1.00  0.00     0.274 HD
ATOM     28  H32 UNL     1      -6.121   2.718  23.452  1.00  0.00     0.274 HD
ATOM     29  H31 UNL     1      -4.517   2.196  23.620  1.00  0.00     0.274 HD
ENDBRANCH   2  26
BRANCH   6  30
HETATM   30  O6  UNL     1      -8.404   0.757  26.248  1.00  0.00    -0.390 OA
ATOM     31  H6  UNL     1      -9.197   1.186  25.949  1.00  0.00     0.210 HD
ENDBRANCH   6  30
BRANCH   5  32
HETATM   32  O4  UNL     1      -7.215  -2.014  26.585  1.00  0.00    -0.311 OA
BRANCH  32  33
HETATM   33  C13 UNL     1      -8.137  -1.903  27.609  1.00  0.00     0.255 C 
HETATM   34  C14 UNL     1      -9.484  -2.501  27.407  1.00  0.00     0.126 C 
HETATM   35  O5  UNL     1      -7.791  -1.310  28.644  1.00  0.00    -0.266 OA
ENDBRANCH  32  33
ENDBRANCH   5  32
BRANCH   4  36
HETATM   36  N4  UNL     1      -4.870  -0.724  27.273  1.00  0.00    -0.072 N 
ATOM     37  H43 UNL     1      -5.354  -1.233  28.013  1.00  0.00     0.274 HD
ATOM     38  H42 UNL     1      -4.441  -1.509  26.782  1.00  0.00     0.274 HD
ATOM     39  H41 UNL     1      -4.158  -0.108  27.663  1.00  0.00     0.274 HD
ENDBRANCH   4  36
TORSDOF 11
ENDMDL
MODEL 5
REMARK VINA RESULT: -6.269522098      1.723      6.438
REMARK  11 active torsions:
REMARK  status: ('A' for Active; 'I' for Inactive)
REMARK    1  A    between atoms: O1_2  and  C2_3 
REMARK    2  A    between atoms: C3_4  and  O2_5 
REMARK    3  A    between atoms: C4_7  and  N1_8 
REMARK    4  A    between atoms: C6_13  and  N2_14 
REMARK    5  A    between atoms: C7_18  and  O3_19 
REMARK    6  A    between atoms: O3_19  and  C8_20 
REMARK    7  A    between atoms: C9_21  and  N3_22 
REMARK    8  A    between atoms: C11_27  and  N4_28 
REMARK    9  A    between atoms: C12_32  and  O4_33 
REMARK   10  A    between atoms: O4_33  and  C13_34 
REMARK   11  A    between atoms: C15_37  and  O6_38 
ROOT
HETATM    1  C8  UNL     1      -7.115   0.036  26.497  1.00  0.00     0.183 C 
HETATM    2  C9  UNL     1      -6.855   0.737  27.791  1.00  0.00     0.217 C 
HETATM    3  C10 UNL     1      -5.769   0.187  28.632  1.00  0.00     0.071 C 
HETATM    4  C11 UNL     1      -4.607  -0.395  27.872  1.00  0.00     0.217 C 
HETATM    5  C12 UNL     1      -4.688   0.162  26.467  1.00  0.00     0.193 C 
HETATM    6  C15 UNL     1      -5.883  -0.510  25.831  1.00  0.00     0.180 C 
ENDROOT
BRANCH   1   7
HETATM    7  O3  UNL     1      -7.746   0.853  25.560  1.00  0.00    -0.371 OA
BRANCH   7   8
HETATM    8  C7  UNL     1      -8.611   0.198  24.734  1.00  0.00     0.184 C 
HETATM    9  C2  UNL     1      -9.401   1.085  23.797  1.00  0.00     0.182 C 
HETATM   10  C3  UNL     1     -10.614   0.303  23.293  1.00  0.00     0.180 C 
HETATM   11  C4  UNL     1     -11.610   0.187  24.413  1.00  0.00     0.216 C 
HETATM   12  C5  UNL     1     -10.882   0.221  25.738  1.00  0.00     0.071 C 
HETATM   13  C6  UNL     1      -9.598  -0.558  25.636  1.00  0.00     0.217 C 
BRANCH   9  14
HETATM   14  O1  UNL     1      -8.607   1.290  22.659  1.00  0.00    -0.385 OA
HETATM   15  C1  UNL     1      -8.320   2.647  22.520  1.00  0.00     0.202 C 
ENDBRANCH   9  14
BRANCH  10  16
HETATM   16  O2  UNL     1     -11.147   1.048  22.224  1.00  0.00    -0.391 OA
ATOM     17  H2  UNL     1     -11.398   1.890  22.586  1.00  0.00     0.210 HD
ENDBRANCH  10  16
BRANCH  11  18
HETATM   18  N1  UNL     1     -12.564   1.256  24.348  1.00  0.00    -0.072 N 
ATOM     19  H13 UNL     1     -12.119   2.151  24.146  1.00  0.00     0.274 HD
ATOM     20  H12 UNL     1     -13.153   1.190  23.517  1.00  0.00     0.274 HD
ATOM     21  H11 UNL     1     -13.118   1.292  25.204  1.00  0.00     0.274 HD
ENDBRANCH  11  18
BRANCH  13  22
HETATM   22  N2  UNL     1      -9.797  -1.910  25.200  1.00  0.00    -0.072 N 
ATOM     23  H23 UNL     1     -10.693  -2.011  24.722  1.00  0.00     0.274 HD
ATOM     24  H22 UNL     1      -9.171  -2.140  24.428  1.00  0.00     0.274 HD
ATOM     25  H21 UNL     1      -9.708  -2.589  25.955  1.00  0.00     0.274 HD
ENDBRANCH  13  22
ENDBRANCH   7   8
ENDBRANCH   1   7
BRANCH   2  26
HETATM   26  N3  UNL     1      -8.069   0.670  28.626  1.00  0.00    -0.072 N 
ATOM     27  H33 UNL     1      -8.486  -0.262  28.632  1.00  0.00     0.274 HD
ATOM     28  H32 UNL     1      -7.860   0.740  29.622  1.00  0.00     0.274 HD
ATOM     29  H31 UNL     1      -8.726   1.387  28.317  1.00  0.00     0.274 HD
ENDBRANCH   2  26
BRANCH   6  30
HETATM   30  O6  UNL     1      -5.835  -1.904  25.975  1.00  0.00    -0.390 OA
ATOM     31  H6  UNL     1      -5.625  -2.311  25.143  1.00  0.00     0.210 HD
ENDBRANCH   6  30
BRANCH   5  32
HETATM   32  O4  UNL     1      -3.514   0.035  25.748  1.00  0.00    -0.311 OA
BRANCH  32  33
HETATM   33  C13 UNL     1      -2.658   1.071  25.423  1.00  0.00     0.255 C 
HETATM   34  C14 UNL     1      -1.204   0.883  25.676  1.00  0.00     0.126 C 
HETATM   35  O5  UNL     1      -3.148   2.103  24.935  1.00  0.00    -0.266 OA
ENDBRANCH  32  33
ENDBRANCH   5  32
BRANCH   4  36
HETATM   36  N4  UNL     1      -3.333  -0.144  28.500  1.00  0.00    -0.072 N 
ATOM     37  H43 UNL     1      -3.119   0.853  28.500  1.00  0.00     0.274 HD
ATOM     38  H42 UNL     1      -3.387  -0.305  29.506  1.00  0.00     0.274 HD
ATOM     39  H41 UNL     1      -2.569  -0.679  28.088  1.00  0.00     0.274 HD
ENDBRANCH   4  36
TORSDOF 11
ENDMDL
