MODEL 1
REMARK VINA RESULT: -6.051600543      0.000      0.000
REMARK  6 active torsions:
REMARK  status: ('A' for Active; 'I' for Inactive)
REMARK    1  A    between atoms: N1_2  and  C4_5 
REMARK    2  A    between atoms: C4_5  and  C5_6 
REMARK    3  A    between atoms: C5_6  and  C6_7 
REMARK    4  A    between atoms: C6_7  and  N2_8 
REMARK    5  A    between atoms: C8_10  and  O1_11 
REMARK    6  A    between atoms: C9_13  and  O2_14 
ROOT
HETATM    1  N2  UNL     1      -1.020  15.594  16.517  1.00  0.00    -0.367 N 
HETATM    2  C7  UNL     1      -0.430  15.280  17.795  1.00  0.00     0.158 C 
HETATM    3  C8  UNL     1      -1.411  14.579  18.666  1.00  0.00     0.166 C 
HETATM    4  C9  UNL     1      -1.119  13.081  18.798  1.00  0.00     0.174 C 
HETATM    5  C10 UNL     1      -1.092  12.446  17.402  1.00  0.00     0.266 C 
HETATM    6  N3  UNL     1      -2.346  12.738  16.764  1.00  0.00    -0.066 N 
ATOM      7  H31 UNL     1      -2.937  13.303  17.374  1.00  0.00     0.277 HD
ATOM      8  H32 UNL     1      -2.921  11.898  16.699  1.00  0.00     0.277 HD
HETATM    9  C11 UNL     1      -2.207  13.357  15.478  1.00  0.00     0.307 C 
HETATM   10  C12 UNL     1      -1.858  14.788  15.674  1.00  0.00     0.099 C 
HETATM   11  N4  UNL     1      -2.493  15.562  14.831  1.00  0.00    -0.388 N 
ATOM     12  H41 UNL     1      -3.088  14.989  14.232  1.00  0.00     0.157 HD
ATOM     13  H42 UNL     1      -2.253  16.544  14.966  1.00  0.00     0.157 HD
ENDROOT
BRANCH   1  14
HETATM   14  C6  UNL     1      -0.772  16.873  15.961  1.00  0.00     0.126 C 
BRANCH  14  15
HETATM   15  C5  UNL     1      -0.157  17.930  16.770  1.00  0.00     0.048 C 
BRANCH  15  16
HETATM   16  C4  UNL     1       1.301  18.168  16.688  1.00  0.00     0.237 C 
BRANCH  16  17
HETATM   17  N1  UNL     1       1.888  18.486  17.990  1.00  0.00    -0.079 N 
HETATM   18  C1  UNL     1       2.901  19.494  17.770  1.00  0.00     0.271 C 
HETATM   19  C2  UNL     1       2.495  17.361  18.635  1.00  0.00     0.271 C 
HETATM   20  C3  UNL     1       0.896  19.034  18.891  1.00  0.00     0.271 C 
ENDBRANCH  16  17
ENDBRANCH  15  16
ENDBRANCH  14  15
ENDBRANCH   1  14
BRANCH   3  21
HETATM   21  O1  UNL     1      -2.739  14.718  18.235  1.00  0.00    -0.391 OA
ATOM     22  H1  UNL     1      -3.326  15.024  18.916  1.00  0.00     0.210 HD
ENDBRANCH   3  21
BRANCH   4  23
HETATM   23  O2  UNL     1       0.077  12.919  19.462  1.00  0.00    -0.391 OA
ATOM     24  H2  UNL     1       0.788  13.010  18.839  1.00  0.00     0.210 HD
ENDBRANCH   4  23
TORSDOF 6
ENDMDL
MODEL 2
REMARK VINA RESULT: -6.009333936      1.328      1.870
REMARK  6 active torsions:
REMARK  status: ('A' for Active; 'I' for Inactive)
REMARK    1  A    between atoms: N1_2  and  C4_5 
REMARK    2  A    between atoms: C4_5  and  C5_6 
REMARK    3  A    between atoms: C5_6  and  C6_7 
REMARK    4  A    between atoms: C6_7  and  N2_8 
REMARK    5  A    between atoms: C8_10  and  O1_11 
REMARK    6  A    between atoms: C9_13  and  O2_14 
ROOT
HETATM    1  N2  UNL     1      -1.083  15.563  16.471  1.00  0.00    -0.367 N 
HETATM    2  C7  UNL     1      -0.464  15.314  17.749  1.00  0.00     0.158 C 
HETATM    3  C8  UNL     1      -1.406  14.600  18.655  1.00  0.00     0.166 C 
HETATM    4  C9  UNL     1      -1.050  13.121  18.829  1.00  0.00     0.174 C 
HETATM    5  C10 UNL     1      -1.014  12.444  17.453  1.00  0.00     0.266 C 
HETATM    6  N3  UNL     1      -2.287  12.664  16.823  1.00  0.00    -0.066 N 
ATOM      7  H31 UNL     1      -2.893  13.223  17.423  1.00  0.00     0.277 HD
ATOM      8  H32 UNL     1      -2.828  11.800  16.792  1.00  0.00     0.277 HD
HETATM    9  C11 UNL     1      -2.189  13.247  15.517  1.00  0.00     0.307 C 
HETATM   10  C12 UNL     1      -1.897  14.697  15.664  1.00  0.00     0.099 C 
HETATM   11  N4  UNL     1      -2.573  15.417  14.806  1.00  0.00    -0.388 N 
ATOM     12  H41 UNL     1      -3.152  14.802  14.233  1.00  0.00     0.157 HD
ATOM     13  H42 UNL     1      -2.373  16.412  14.907  1.00  0.00     0.157 HD
ENDROOT
BRANCH   1  14
HETATM   14  C6  UNL     1      -0.895  16.833  15.872  1.00  0.00     0.126 C 
BRANCH  14  15
HETATM   15  C5  UNL     1       0.433  17.454  15.845  1.00  0.00     0.048 C 
BRANCH  15  16
HETATM   16  C4  UNL     1       0.611  18.790  15.236  1.00  0.00     0.237 C 
BRANCH  16  17
HETATM   17  N1  UNL     1       2.002  19.242  15.278  1.00  0.00    -0.079 N 
HETATM   18  C1  UNL     1       2.477  19.044  16.630  1.00  0.00     0.271 C 
HETATM   19  C2  UNL     1       2.168  20.621  14.932  1.00  0.00     0.271 C 
HETATM   20  C3  UNL     1       2.834  18.457  14.390  1.00  0.00     0.271 C 
ENDBRANCH  16  17
ENDBRANCH  15  16
ENDBRANCH  14  15
ENDBRANCH   1  14
BRANCH   3  21
HETATM   21  O1  UNL     1      -2.743  14.672  18.238  1.00  0.00    -0.391 OA
ATOM     22  H1  UNL     1      -2.843  14.968  17.341  1.00  0.00     0.210 HD
ENDBRANCH   3  21
BRANCH   4  23
HETATM   23  O2  UNL     1       0.159  13.028  19.482  1.00  0.00    -0.391 OA
ATOM     24  H2  UNL     1       0.278  13.803  20.018  1.00  0.00     0.210 HD
ENDBRANCH   4  23
TORSDOF 6
ENDMDL
MODEL 3
REMARK VINA RESULT: -5.987673370      2.043      2.999
REMARK  6 active torsions:
REMARK  status: ('A' for Active; 'I' for Inactive)
REMARK    1  A    between atoms: N1_2  and  C4_5 
REMARK    2  A    between atoms: C4_5  and  C5_6 
REMARK    3  A    between atoms: C5_6  and  C6_7 
REMARK    4  A    between atoms: C6_7  and  N2_8 
REMARK    5  A    between atoms: C8_10  and  O1_11 
REMARK    6  A    between atoms: C9_13  and  O2_14 
ROOT
HETATM    1  N2  UNL     1      -1.140  15.588  16.612  1.00  0.00    -0.367 N 
HETATM    2  C7  UNL     1      -0.535  15.284  17.885  1.00  0.00     0.158 C 
HETATM    3  C8  UNL     1      -1.452  14.457  18.716  1.00  0.00     0.166 C 
HETATM    4  C9  UNL     1      -1.015  12.991  18.796  1.00  0.00     0.174 C 
HETATM    5  C10 UNL     1      -0.911  12.416  17.378  1.00  0.00     0.266 C 
HETATM    6  N3  UNL     1      -2.181  12.608  16.733  1.00  0.00    -0.066 N 
ATOM      7  H31 UNL     1      -2.831  13.088  17.355  1.00  0.00     0.277 HD
ATOM      8  H32 UNL     1      -2.670  11.719  16.629  1.00  0.00     0.277 HD
HETATM    9  C11 UNL     1      -2.090  13.286  15.474  1.00  0.00     0.307 C 
HETATM   10  C12 UNL     1      -1.885  14.736  15.728  1.00  0.00     0.099 C 
HETATM   11  N4  UNL     1      -2.584  15.476  14.905  1.00  0.00    -0.388 N 
ATOM     12  H41 UNL     1      -3.113  14.871  14.276  1.00  0.00     0.157 HD
ATOM     13  H42 UNL     1      -2.444  16.470  15.079  1.00  0.00     0.157 HD
ENDROOT
BRANCH   1  14
HETATM   14  C6  UNL     1      -1.013  16.905  16.107  1.00  0.00     0.126 C 
BRANCH  14  15
HETATM   15  C5  UNL     1      -1.288  18.061  16.966  1.00  0.00     0.048 C 
BRANCH  15  16
HETATM   16  C4  UNL     1      -2.567  18.792  16.834  1.00  0.00     0.237 C 
BRANCH  16  17
HETATM   17  N1  UNL     1      -3.532  18.420  17.869  1.00  0.00    -0.079 N 
HETATM   18  C1  UNL     1      -4.307  19.601  18.178  1.00  0.00     0.271 C 
HETATM   19  C2  UNL     1      -2.923  17.943  19.075  1.00  0.00     0.271 C 
HETATM   20  C3  UNL     1      -4.440  17.397  17.394  1.00  0.00     0.271 C 
ENDBRANCH  16  17
ENDBRANCH  15  16
ENDBRANCH  14  15
ENDBRANCH   1  14
BRANCH   3  21
HETATM   21  O1  UNL     1      -2.782  14.483  18.272  1.00  0.00    -0.391 OA
ATOM     22  H1  UNL     1      -3.124  13.624  18.056  1.00  0.00     0.210 HD
ENDBRANCH   3  21
BRANCH   4  23
HETATM   23  O2  UNL     1       0.184  12.921  19.471  1.00  0.00    -0.391 OA
ATOM     24  H2  UNL     1       0.842  12.562  18.889  1.00  0.00     0.210 HD
ENDBRANCH   4  23
TORSDOF 6
ENDMDL
MODEL 4
REMARK VINA RESULT: -5.949153944      1.689      2.192
REMARK  6 active torsions:
REMARK  status: ('A' for Active; 'I' for Inactive)
REMARK    1  A    between atoms: N1_2  and  C4_5 
REMARK    2  A    between atoms: C4_5  and  C5_6 
REMARK    3  A    between atoms: C5_6  and  C6_7 
REMARK    4  A    between atoms: C6_7  and  N2_8 
REMARK    5  A    between atoms: C8_10  and  O1_11 
REMARK    6  A    between atoms: C9_13  and  O2_14 
ROOT
HETATM    1  N2  UNL     1      -1.035  15.586  16.517  1.00  0.00    -0.367 N 
HETATM    2  C7  UNL     1      -0.428  15.287  17.791  1.00  0.00     0.158 C 
HETATM    3  C8  UNL     1      -1.392  14.574  18.673  1.00  0.00     0.166 C 
HETATM    4  C9  UNL     1      -1.076  13.082  18.810  1.00  0.00     0.174 C 
HETATM    5  C10 UNL     1      -1.051  12.441  17.416  1.00  0.00     0.266 C 
HETATM    6  N3  UNL     1      -2.315  12.711  16.788  1.00  0.00    -0.066 N 
ATOM      7  H31 UNL     1      -2.909  13.270  17.400  1.00  0.00     0.277 HD
ATOM      8  H32 UNL     1      -2.878  11.863  16.731  1.00  0.00     0.277 HD
HETATM    9  C11 UNL     1      -2.196  13.326  15.498  1.00  0.00     0.307 C 
HETATM   10  C12 UNL     1      -1.868  14.763  15.685  1.00  0.00     0.099 C 
HETATM   11  N4  UNL     1      -2.521  15.523  14.843  1.00  0.00    -0.388 N 
ATOM     12  H41 UNL     1      -3.112  14.939  14.252  1.00  0.00     0.157 HD
ATOM     13  H42 UNL     1      -2.295  16.509  14.972  1.00  0.00     0.157 HD
ENDROOT
BRANCH   1  14
HETATM   14  C6  UNL     1      -0.811  16.866  15.953  1.00  0.00     0.126 C 
BRANCH  14  15
HETATM   15  C5  UNL     1      -0.900  18.071  16.783  1.00  0.00     0.048 C 
BRANCH  15  16
HETATM   16  C4  UNL     1      -2.192  18.451  17.397  1.00  0.00     0.237 C 
BRANCH  16  17
HETATM   17  N1  UNL     1      -2.052  18.818  18.806  1.00  0.00    -0.079 N 
HETATM   18  C1  UNL     1      -0.641  18.790  19.120  1.00  0.00     0.271 C 
HETATM   19  C2  UNL     1      -2.737  17.932  19.700  1.00  0.00     0.271 C 
HETATM   20  C3  UNL     1      -2.541  20.159  19.048  1.00  0.00     0.271 C 
ENDBRANCH  16  17
ENDBRANCH  15  16
ENDBRANCH  14  15
ENDBRANCH   1  14
BRANCH   3  21
HETATM   21  O1  UNL     1      -2.725  14.692  18.253  1.00  0.00    -0.391 OA
ATOM     22  H1  UNL     1      -3.308  15.008  18.933  1.00  0.00     0.210 HD
ENDBRANCH   3  21
BRANCH   4  23
HETATM   23  O2  UNL     1       0.128  12.941  19.464  1.00  0.00    -0.391 OA
ATOM     24  H2  UNL     1       0.780  13.473  19.024  1.00  0.00     0.210 HD
ENDBRANCH   4  23
TORSDOF 6
ENDMDL
MODEL 5
REMARK VINA RESULT: -5.704774718      2.773      3.713
REMARK  6 active torsions:
REMARK  status: ('A' for Active; 'I' for Inactive)
REMARK    1  A    between atoms: N1_2  and  C4_5 
REMARK    2  A    between atoms: C4_5  and  C5_6 
REMARK    3  A    between atoms: C5_6  and  C6_7 
REMARK    4  A    between atoms: C6_7  and  N2_8 
REMARK    5  A    between atoms: C8_10  and  O1_11 
REMARK    6  A    between atoms: C9_13  and  O2_14 
ROOT
HETATM    1  N2  UNL     1      -1.658  14.848  16.055  1.00  0.00    -0.367 N 
HETATM    2  C7  UNL     1      -1.045  15.268  17.291  1.00  0.00     0.158 C 
HETATM    3  C8  UNL     1      -1.699  14.604  18.451  1.00  0.00     0.166 C 
HETATM    4  C9  UNL     1      -0.838  13.493  19.058  1.00  0.00     0.174 C 
HETATM    5  C10 UNL     1      -0.500  12.464  17.971  1.00  0.00     0.266 C 
HETATM    6  N3  UNL     1      -1.738  11.997  17.411  1.00  0.00    -0.066 N 
ATOM      7  H31 UNL     1      -2.531  12.465  17.849  1.00  0.00     0.277 HD
ATOM      8  H32 UNL     1      -1.925  11.037  17.702  1.00  0.00     0.277 HD
HETATM    9  C11 UNL     1      -1.804  12.115  15.984  1.00  0.00     0.307 C 
HETATM   10  C12 UNL     1      -2.067  13.536  15.637  1.00  0.00     0.099 C 
HETATM   11  N4  UNL     1      -2.922  13.645  14.652  1.00  0.00    -0.388 N 
ATOM     12  H41 UNL     1      -3.212  12.713  14.355  1.00  0.00     0.157 HD
ATOM     13  H42 UNL     1      -3.102  14.620  14.414  1.00  0.00     0.157 HD
ENDROOT
BRANCH   1  14
HETATM   14  C6  UNL     1      -1.920  15.831  15.069  1.00  0.00     0.126 C 
BRANCH  14  15
HETATM   15  C5  UNL     1      -2.715  17.019  15.396  1.00  0.00     0.048 C 
BRANCH  15  16
HETATM   16  C4  UNL     1      -4.140  16.875  15.767  1.00  0.00     0.237 C 
BRANCH  16  17
HETATM   17  N1  UNL     1      -4.542  17.817  16.811  1.00  0.00    -0.079 N 
HETATM   18  C1  UNL     1      -4.406  19.149  16.263  1.00  0.00     0.271 C 
HETATM   19  C2  UNL     1      -3.748  17.729  18.000  1.00  0.00     0.271 C 
HETATM   20  C3  UNL     1      -5.927  17.624  17.185  1.00  0.00     0.271 C 
ENDBRANCH  16  17
ENDBRANCH  15  16
ENDBRANCH  14  15
ENDBRANCH   1  14
BRANCH   3  21
HETATM   21  O1  UNL     1      -2.952  14.053  18.144  1.00  0.00    -0.391 OA
ATOM     22  H1  UNL     1      -3.003  13.118  18.305  1.00  0.00     0.210 HD
ENDBRANCH   3  21
BRANCH   4  23
HETATM   23  O2  UNL     1       0.294  14.057  19.604  1.00  0.00    -0.391 OA
ATOM     24  H2  UNL     1       0.552  13.550  20.365  1.00  0.00     0.210 HD
ENDBRANCH   4  23
TORSDOF 6
ENDMDL
