MODEL 1
REMARK VINA RESULT: -6.259767133      0.000      0.000
REMARK  8 active torsions:
REMARK  status: ('A' for Active; 'I' for Inactive)
REMARK    1  A    between atoms: C2_2  and  N1_3 
REMARK       I    between atoms: C3_5  and  N3_7 
REMARK    2  A    between atoms: N3_7  and  C4_9 
REMARK    3  A    between atoms: C4_9  and  N4_10 
REMARK    4  A    between atoms: C4_9  and  C10_21 
REMARK       I    between atoms: N4_10  and  C5_12 
REMARK    5  A    between atoms: C5_12  and  C6_14 
REMARK       I    between atoms: C10_21  and  N6_23 
REMARK       I    between atoms: N6_23  and  C11_25 
REMARK       I    between atoms: C11_25  and  N8_29 
REMARK    6  A    between atoms: N8_29  and  C12_31 
REMARK    7  A    between atoms: C12_31  and  C13_32 
REMARK    8  A    between atoms: C13_32  and  N9_33 
ROOT
HETATM    1  C4  UNL     1      -0.076  19.107  18.733  1.00  0.00     0.281 C 
ENDROOT
BRANCH   1   2
HETATM    2  N3  UNL     1      -1.183  19.976  18.439  1.00  0.00    -0.336 N 
HETATM    3  C3  UNL     1      -2.480  19.654  18.939  1.00  0.00     0.185 C 
HETATM    4  N1  UNL     1      -3.503  19.893  18.229  1.00  0.00    -0.365 N 
HETATM    5  N2  UNL     1      -2.624  19.071  20.223  1.00  0.00    -0.064 NA
ATOM      6  H1  UNL     1      -3.341  20.312  17.314  1.00  0.00     0.162 HD
ATOM      7  H3  UNL     1      -1.042  20.816  17.877  1.00  0.00     0.164 HD
BRANCH   4   8
HETATM    8  C2  UNL     1      -4.874  19.631  18.589  1.00  0.00     0.118 C 
HETATM    9  C1  UNL     1      -5.573  18.772  17.577  1.00  0.00     0.026 C 
ENDBRANCH   4   8
ENDBRANCH   1   2
BRANCH   1  10
HETATM   10  N4  UNL     1      -0.327  17.738  18.312  1.00  0.00    -0.330 N 
HETATM   11  C5  UNL     1      -0.115  16.614  19.116  1.00  0.00     0.251 C 
HETATM   12  O1  UNL     1       0.317  16.651  20.294  1.00  0.00    -0.271 OA
ATOM     13  H4  UNL     1      -0.679  17.588  17.367  1.00  0.00     0.165 HD
BRANCH  11  14
HETATM   14  C6  UNL     1      -0.417  15.270  18.556  1.00  0.00     0.283 C 
HETATM   15  N5  UNL     1      -1.533  14.568  19.188  1.00  0.00    -0.057 N 
HETATM   16  C7  UNL     1      -1.525  13.882  17.898  1.00  0.00     0.194 A 
ATOM     17  H52 UNL     1      -1.475  14.094  20.089  1.00  0.00     0.278 HD
ATOM     18  H51 UNL     1      -2.350  15.032  19.585  1.00  0.00     0.278 HD
HETATM   19  C8  UNL     1      -2.000  14.338  16.644  1.00  0.00     0.043 A 
HETATM   20  C9  UNL     1      -1.474  15.400  17.439  1.00  0.00     0.058 A 
ENDBRANCH  11  14
ENDBRANCH   1  10
BRANCH   1  21
HETATM   21  C10 UNL     1       1.116  19.555  17.963  1.00  0.00     0.278 C 
HETATM   22  O2  UNL     1       1.288  19.159  16.810  1.00  0.00    -0.268 OA
HETATM   23  N6  UNL     1       2.015  20.431  18.602  1.00  0.00    -0.157 N 
HETATM   24  C11 UNL     1       3.171  20.914  17.957  1.00  0.00     0.674 C 
ATOM     25  H6  UNL     1       1.823  20.724  19.560  1.00  0.00     0.187 HD
HETATM   26  N7  UNL     1       3.965  21.706  18.570  1.00  0.00    -0.235 N 
HETATM   27  N8  UNL     1       3.413  20.486  16.604  1.00  0.00    -0.225 N 
ATOM     28  H72 UNL     1       3.794  22.010  19.529  1.00  0.00     0.174 HD
ATOM     29  H71 UNL     1       4.802  22.056  18.104  1.00  0.00     0.174 HD
ATOM     30  H8  UNL     1       3.796  19.556  16.433  1.00  0.00     0.177 HD
BRANCH  27  31
HETATM   31  C12 UNL     1       3.125  21.338  15.499  1.00  0.00     0.166 C 
BRANCH  31  32
HETATM   32  C13 UNL     1       3.609  20.826  14.200  1.00  0.00     0.256 C 
BRANCH  32  33
HETATM   33  N9  UNL     1       4.929  21.162  13.832  1.00  0.00    -0.077 N 
HETATM   34  C14 UNL     1       5.929  20.212  14.170  1.00  0.00     0.271 C 
HETATM   35  C15 UNL     1       5.305  22.456  14.409  1.00  0.00     0.271 C 
HETATM   36  C16 UNL     1       4.933  21.342  12.349  1.00  0.00     0.271 C 
ENDBRANCH  32  33
ENDBRANCH  31  32
ENDBRANCH  27  31
ENDBRANCH   1  21
TORSDOF 8
ENDMDL
MODEL 2
REMARK VINA RESULT: -6.194019553      0.891      1.211
REMARK  8 active torsions:
REMARK  status: ('A' for Active; 'I' for Inactive)
REMARK    1  A    between atoms: C2_2  and  N1_3 
REMARK       I    between atoms: C3_5  and  N3_7 
REMARK    2  A    between atoms: N3_7  and  C4_9 
REMARK    3  A    between atoms: C4_9  and  N4_10 
REMARK    4  A    between atoms: C4_9  and  C10_21 
REMARK       I    between atoms: N4_10  and  C5_12 
REMARK    5  A    between atoms: C5_12  and  C6_14 
REMARK       I    between atoms: C10_21  and  N6_23 
REMARK       I    between atoms: N6_23  and  C11_25 
REMARK       I    between atoms: C11_25  and  N8_29 
REMARK    6  A    between atoms: N8_29  and  C12_31 
REMARK    7  A    between atoms: C12_31  and  C13_32 
REMARK    8  A    between atoms: C13_32  and  N9_33 
ROOT
HETATM    1  C4  UNL     1       0.016  19.242  18.834  1.00  0.00     0.281 C 
ENDROOT
BRANCH   1   2
HETATM    2  N3  UNL     1      -1.101  20.125  18.634  1.00  0.00    -0.336 N 
HETATM    3  C3  UNL     1      -2.403  19.714  19.049  1.00  0.00     0.185 C 
HETATM    4  N1  UNL     1      -3.413  20.032  18.353  1.00  0.00    -0.365 N 
HETATM    5  N2  UNL     1      -2.566  18.954  20.235  1.00  0.00    -0.064 NA
ATOM      6  H1  UNL     1      -3.238  20.578  17.510  1.00  0.00     0.162 HD
ATOM      7  H3  UNL     1      -0.964  21.038  18.199  1.00  0.00     0.164 HD
BRANCH   4   8
HETATM    8  C2  UNL     1      -4.787  19.698  18.635  1.00  0.00     0.118 C 
HETATM    9  C1  UNL     1      -5.302  18.609  17.742  1.00  0.00     0.026 C 
ENDBRANCH   4   8
ENDBRANCH   1   2
BRANCH   1  10
HETATM   10  N4  UNL     1      -0.248  17.902  18.335  1.00  0.00    -0.330 N 
HETATM   11  C5  UNL     1      -0.107  16.736  19.093  1.00  0.00     0.251 C 
HETATM   12  O1  UNL     1       0.266  16.705  20.291  1.00  0.00    -0.271 OA
ATOM     13  H4  UNL     1      -0.555  17.807  17.367  1.00  0.00     0.165 HD
BRANCH  11  14
HETATM   14  C6  UNL     1      -0.414  15.428  18.454  1.00  0.00     0.283 C 
HETATM   15  N5  UNL     1      -1.442  14.634  19.123  1.00  0.00    -0.057 N 
HETATM   16  C7  UNL     1      -1.531  14.053  17.786  1.00  0.00     0.194 A 
ATOM     17  H52 UNL     1      -1.286  14.093  19.974  1.00  0.00     0.278 HD
ATOM     18  H51 UNL     1      -2.235  15.032  19.628  1.00  0.00     0.278 HD
HETATM   19  C8  UNL     1      -2.135  14.586  16.620  1.00  0.00     0.043 A 
HETATM   20  C9  UNL     1      -1.573  15.603  17.450  1.00  0.00     0.058 A 
ENDBRANCH  11  14
ENDBRANCH   1  10
BRANCH   1  21
HETATM   21  C10 UNL     1       1.181  19.742  18.054  1.00  0.00     0.278 C 
HETATM   22  O2  UNL     1       2.145  19.004  17.848  1.00  0.00    -0.268 OA
HETATM   23  N6  UNL     1       1.127  21.065  17.575  1.00  0.00    -0.157 N 
HETATM   24  C11 UNL     1       2.178  21.630  16.825  1.00  0.00     0.674 C 
ATOM     25  H6  UNL     1       0.304  21.631  17.778  1.00  0.00     0.187 HD
HETATM   26  N7  UNL     1       2.094  22.836  16.409  1.00  0.00    -0.235 N 
HETATM   27  N8  UNL     1       3.326  20.805  16.550  1.00  0.00    -0.225 N 
ATOM     28  H72 UNL     1       1.281  23.421  16.603  1.00  0.00     0.174 HD
ATOM     29  H71 UNL     1       2.855  23.245  15.866  1.00  0.00     0.174 HD
ATOM     30  H8  UNL     1       4.024  20.659  17.280  1.00  0.00     0.177 HD
BRANCH  27  31
HETATM   31  C12 UNL     1       3.502  20.188  15.278  1.00  0.00     0.166 C 
BRANCH  31  32
HETATM   32  C13 UNL     1       4.835  20.409  14.680  1.00  0.00     0.256 C 
BRANCH  32  33
HETATM   33  N9  UNL     1       4.892  21.217  13.525  1.00  0.00    -0.077 N 
HETATM   34  C14 UNL     1       3.686  21.323  12.783  1.00  0.00     0.271 C 
HETATM   35  C15 UNL     1       5.950  20.747  12.627  1.00  0.00     0.271 C 
HETATM   36  C16 UNL     1       5.291  22.585  13.972  1.00  0.00     0.271 C 
ENDBRANCH  32  33
ENDBRANCH  31  32
ENDBRANCH  27  31
ENDBRANCH   1  21
TORSDOF 8
ENDMDL
MODEL 3
REMARK VINA RESULT: -6.182803674      3.139      8.095
REMARK  8 active torsions:
REMARK  status: ('A' for Active; 'I' for Inactive)
REMARK    1  A    between atoms: C2_2  and  N1_3 
REMARK       I    between atoms: C3_5  and  N3_7 
REMARK    2  A    between atoms: N3_7  and  C4_9 
REMARK    3  A    between atoms: C4_9  and  N4_10 
REMARK    4  A    between atoms: C4_9  and  C10_21 
REMARK       I    between atoms: N4_10  and  C5_12 
REMARK    5  A    between atoms: C5_12  and  C6_14 
REMARK       I    between atoms: C10_21  and  N6_23 
REMARK       I    between atoms: N6_23  and  C11_25 
REMARK       I    between atoms: C11_25  and  N8_29 
REMARK    6  A    between atoms: N8_29  and  C12_31 
REMARK    7  A    between atoms: C12_31  and  C13_32 
REMARK    8  A    between atoms: C13_32  and  N9_33 
ROOT
HETATM    1  C4  UNL     1      -2.170  17.265  18.680  1.00  0.00     0.281 C 
ENDROOT
BRANCH   1   2
HETATM    2  N3  UNL     1      -2.118  15.902  18.223  1.00  0.00    -0.336 N 
HETATM    3  C3  UNL     1      -2.110  15.633  16.822  1.00  0.00     0.185 C 
HETATM    4  N1  UNL     1      -2.732  14.623  16.373  1.00  0.00    -0.365 N 
HETATM    5  N2  UNL     1      -1.410  16.490  15.935  1.00  0.00    -0.064 NA
ATOM      6  H1  UNL     1      -3.219  14.042  17.056  1.00  0.00     0.162 HD
ATOM      7  H3  UNL     1      -2.087  15.135  18.895  1.00  0.00     0.164 HD
BRANCH   4   8
HETATM    8  C2  UNL     1      -2.818  14.214  14.994  1.00  0.00     0.118 C 
HETATM    9  C1  UNL     1      -1.760  13.216  14.630  1.00  0.00     0.026 C 
ENDBRANCH   4   8
ENDBRANCH   1   2
BRANCH   1  10
HETATM   10  N4  UNL     1      -0.924  17.973  18.438  1.00  0.00    -0.330 N 
HETATM   11  C5  UNL     1       0.293  17.661  19.051  1.00  0.00     0.251 C 
HETATM   12  O1  UNL     1       0.455  16.736  19.885  1.00  0.00    -0.271 OA
ATOM     13  H4  UNL     1      -0.938  18.749  17.777  1.00  0.00     0.165 HD
BRANCH  11  14
HETATM   14  C6  UNL     1       1.493  18.469  18.708  1.00  0.00     0.283 C 
HETATM   15  N5  UNL     1       1.220  19.845  18.296  1.00  0.00    -0.057 N 
HETATM   16  C7  UNL     1       2.607  20.001  18.727  1.00  0.00     0.194 A 
ATOM     17  H52 UNL     1       0.874  20.110  17.374  1.00  0.00     0.278 HD
ATOM     18  H51 UNL     1       0.444  20.406  18.650  1.00  0.00     0.278 HD
HETATM   19  C8  UNL     1       3.129  20.074  20.043  1.00  0.00     0.043 A 
HETATM   20  C9  UNL     1       1.987  19.220  19.962  1.00  0.00     0.058 A 
ENDBRANCH  11  14
ENDBRANCH   1  10
BRANCH   1  21
HETATM   21  C10 UNL     1      -3.209  18.000  17.909  1.00  0.00     0.278 C 
HETATM   22  O2  UNL     1      -4.387  17.644  17.970  1.00  0.00    -0.268 OA
HETATM   23  N6  UNL     1      -2.791  19.094  17.127  1.00  0.00    -0.157 N 
HETATM   24  C11 UNL     1      -3.698  19.856  16.364  1.00  0.00     0.674 C 
ATOM     25  H6  UNL     1      -1.802  19.343  17.113  1.00  0.00     0.187 HD
HETATM   26  N7  UNL     1      -3.281  20.841  15.665  1.00  0.00    -0.235 N 
HETATM   27  N8  UNL     1      -5.089  19.484  16.407  1.00  0.00    -0.225 N 
ATOM     28  H72 UNL     1      -2.296  21.105  15.634  1.00  0.00     0.174 HD
ATOM     29  H71 UNL     1      -3.938  21.393  15.112  1.00  0.00     0.174 HD
ATOM     30  H8  UNL     1      -5.412  18.687  15.859  1.00  0.00     0.177 HD
BRANCH  27  31
HETATM   31  C12 UNL     1      -6.021  20.210  17.203  1.00  0.00     0.166 C 
BRANCH  31  32
HETATM   32  C13 UNL     1      -7.397  20.218  16.664  1.00  0.00     0.256 C 
BRANCH  32  33
HETATM   33  N9  UNL     1      -8.380  19.535  17.410  1.00  0.00    -0.077 N 
HETATM   34  C14 UNL     1      -7.901  18.735  18.481  1.00  0.00     0.271 C 
HETATM   35  C15 UNL     1      -9.194  18.693  16.530  1.00  0.00     0.271 C 
HETATM   36  C16 UNL     1      -9.297  20.573  17.971  1.00  0.00     0.271 C 
ENDBRANCH  32  33
ENDBRANCH  31  32
ENDBRANCH  27  31
ENDBRANCH   1  21
TORSDOF 8
ENDMDL
MODEL 4
REMARK VINA RESULT: -6.127674642      2.706      7.501
REMARK  8 active torsions:
REMARK  status: ('A' for Active; 'I' for Inactive)
REMARK    1  A    between atoms: C2_2  and  N1_3 
REMARK       I    between atoms: C3_5  and  N3_7 
REMARK    2  A    between atoms: N3_7  and  C4_9 
REMARK    3  A    between atoms: C4_9  and  N4_10 
REMARK    4  A    between atoms: C4_9  and  C10_21 
REMARK       I    between atoms: N4_10  and  C5_12 
REMARK    5  A    between atoms: C5_12  and  C6_14 
REMARK       I    between atoms: C10_21  and  N6_23 
REMARK       I    between atoms: N6_23  and  C11_25 
REMARK       I    between atoms: C11_25  and  N8_29 
REMARK    6  A    between atoms: N8_29  and  C12_31 
REMARK    7  A    between atoms: C12_31  and  C13_32 
REMARK    8  A    between atoms: C13_32  and  N9_33 
ROOT
HETATM    1  C4  UNL     1      -0.466  19.370  16.473  1.00  0.00     0.281 C 
ENDROOT
BRANCH   1   2
HETATM    2  N3  UNL     1       0.095  20.349  17.364  1.00  0.00    -0.336 N 
HETATM    3  C3  UNL     1       1.511  20.422  17.524  1.00  0.00     0.185 C 
HETATM    4  N1  UNL     1       2.002  20.685  18.662  1.00  0.00    -0.365 N 
HETATM    5  N2  UNL     1       2.366  20.201  16.414  1.00  0.00    -0.064 NA
ATOM      6  H1  UNL     1       1.341  20.834  19.425  1.00  0.00     0.162 HD
ATOM      7  H3  UNL     1      -0.514  20.986  17.878  1.00  0.00     0.164 HD
BRANCH   4   8
HETATM    8  C2  UNL     1       3.402  20.796  18.986  1.00  0.00     0.118 C 
HETATM    9  C1  UNL     1       3.730  20.177  20.312  1.00  0.00     0.026 C 
ENDBRANCH   4   8
ENDBRANCH   1   2
BRANCH   1  10
HETATM   10  N4  UNL     1      -0.365  18.021  17.006  1.00  0.00    -0.330 N 
HETATM   11  C5  UNL     1      -0.631  17.676  18.334  1.00  0.00     0.251 C 
HETATM   12  O1  UNL     1      -0.985  18.487  19.224  1.00  0.00    -0.271 OA
ATOM     13  H4  UNL     1      -0.082  17.278  16.368  1.00  0.00     0.165 HD
BRANCH  11  14
HETATM   14  C6  UNL     1      -0.491  16.252  18.743  1.00  0.00     0.283 C 
HETATM   15  N5  UNL     1      -1.436  15.801  19.762  1.00  0.00    -0.057 N 
HETATM   16  C7  UNL     1      -1.099  14.510  19.168  1.00  0.00     0.194 A 
ATOM     17  H52 UNL     1      -1.352  16.014  20.756  1.00  0.00     0.278 HD
ATOM     18  H51 UNL     1      -2.388  16.156  19.858  1.00  0.00     0.278 HD
HETATM   19  C8  UNL     1      -1.537  13.951  17.942  1.00  0.00     0.043 A 
HETATM   20  C9  UNL     1      -1.413  15.372  17.873  1.00  0.00     0.058 A 
ENDBRANCH  11  14
ENDBRANCH   1  10
BRANCH   1  21
HETATM   21  C10 UNL     1      -1.922  19.633  16.311  1.00  0.00     0.278 C 
HETATM   22  O2  UNL     1      -2.535  19.136  15.366  1.00  0.00    -0.268 OA
HETATM   23  N6  UNL     1      -2.547  20.457  17.267  1.00  0.00    -0.157 N 
HETATM   24  C11 UNL     1      -3.922  20.763  17.203  1.00  0.00     0.674 C 
ATOM     25  H6  UNL     1      -1.989  20.843  18.028  1.00  0.00     0.187 HD
HETATM   26  N7  UNL     1      -4.454  21.516  18.087  1.00  0.00    -0.235 N 
HETATM   27  N8  UNL     1      -4.684  20.199  16.119  1.00  0.00    -0.225 N 
ATOM     28  H72 UNL     1      -3.913  21.916  18.855  1.00  0.00     0.174 HD
ATOM     29  H71 UNL     1      -5.449  21.738  18.041  1.00  0.00     0.174 HD
ATOM     30  H8  UNL     1      -4.623  20.619  15.191  1.00  0.00     0.177 HD
BRANCH  27  31
HETATM   31  C12 UNL     1      -5.523  19.065  16.321  1.00  0.00     0.166 C 
BRANCH  31  32
HETATM   32  C13 UNL     1      -6.940  19.292  15.969  1.00  0.00     0.256 C 
BRANCH  32  33
HETATM   33  N9  UNL     1      -7.872  19.278  17.029  1.00  0.00    -0.077 N 
HETATM   34  C14 UNL     1      -7.391  18.785  18.271  1.00  0.00     0.271 C 
HETATM   35  C15 UNL     1      -9.059  18.506  16.651  1.00  0.00     0.271 C 
HETATM   36  C16 UNL     1      -8.327  20.687  17.225  1.00  0.00     0.271 C 
ENDBRANCH  32  33
ENDBRANCH  31  32
ENDBRANCH  27  31
ENDBRANCH   1  21
TORSDOF 8
ENDMDL
MODEL 5
REMARK VINA RESULT: -6.029043258      1.115      1.543
REMARK  8 active torsions:
REMARK  status: ('A' for Active; 'I' for Inactive)
REMARK    1  A    between atoms: C2_2  and  N1_3 
REMARK       I    between atoms: C3_5  and  N3_7 
REMARK    2  A    between atoms: N3_7  and  C4_9 
REMARK    3  A    between atoms: C4_9  and  N4_10 
REMARK    4  A    between atoms: C4_9  and  C10_21 
REMARK       I    between atoms: N4_10  and  C5_12 
REMARK    5  A    between atoms: C5_12  and  C6_14 
REMARK       I    between atoms: C10_21  and  N6_23 
REMARK       I    between atoms: N6_23  and  C11_25 
REMARK       I    between atoms: C11_25  and  N8_29 
REMARK    6  A    between atoms: N8_29  and  C12_31 
REMARK    7  A    between atoms: C12_31  and  C13_32 
REMARK    8  A    between atoms: C13_32  and  N9_33 
ROOT
HETATM    1  C4  UNL     1      -0.064  19.131  18.665  1.00  0.00     0.281 C 
ENDROOT
BRANCH   1   2
HETATM    2  N3  UNL     1      -1.194  19.985  18.417  1.00  0.00    -0.336 N 
HETATM    3  C3  UNL     1      -2.474  19.619  18.929  1.00  0.00     0.185 C 
HETATM    4  N1  UNL     1      -3.515  19.857  18.246  1.00  0.00    -0.365 N 
HETATM    5  N2  UNL     1      -2.582  18.995  20.198  1.00  0.00    -0.064 NA
ATOM      6  H1  UNL     1      -3.379  20.307  17.341  1.00  0.00     0.162 HD
ATOM      7  H3  UNL     1      -1.081  20.844  17.879  1.00  0.00     0.164 HD
BRANCH   4   8
HETATM    8  C2  UNL     1      -4.873  19.554  18.621  1.00  0.00     0.118 C 
HETATM    9  C1  UNL     1      -5.593  18.769  17.565  1.00  0.00     0.026 C 
ENDBRANCH   4   8
ENDBRANCH   1   2
BRANCH   1  10
HETATM   10  N4  UNL     1      -0.317  17.756  18.267  1.00  0.00    -0.330 N 
HETATM   11  C5  UNL     1      -0.107  16.645  19.090  1.00  0.00     0.251 C 
HETATM   12  O1  UNL     1       0.326  16.702  20.267  1.00  0.00    -0.271 OA
ATOM     13  H4  UNL     1      -0.670  17.591  17.325  1.00  0.00     0.165 HD
BRANCH  11  14
HETATM   14  C6  UNL     1      -0.412  15.292  18.553  1.00  0.00     0.283 C 
HETATM   15  N5  UNL     1      -1.528  14.603  19.197  1.00  0.00    -0.057 N 
HETATM   16  C7  UNL     1      -1.523  13.896  17.919  1.00  0.00     0.194 A 
ATOM     17  H52 UNL     1      -1.471  14.144  20.106  1.00  0.00     0.278 HD
ATOM     18  H51 UNL     1      -2.345  15.075  19.586  1.00  0.00     0.278 HD
HETATM   19  C8  UNL     1      -1.997  14.331  16.657  1.00  0.00     0.043 A 
HETATM   20  C9  UNL     1      -1.469  15.406  17.434  1.00  0.00     0.058 A 
ENDBRANCH  11  14
ENDBRANCH   1  10
BRANCH   1  21
HETATM   21  C10 UNL     1       1.085  19.587  17.836  1.00  0.00     0.278 C 
HETATM   22  O2  UNL     1       1.152  19.266  16.649  1.00  0.00    -0.268 OA
HETATM   23  N6  UNL     1       2.066  20.383  18.459  1.00  0.00    -0.157 N 
HETATM   24  C11 UNL     1       3.189  20.867  17.759  1.00  0.00     0.674 C 
ATOM     25  H6  UNL     1       1.959  20.616  19.446  1.00  0.00     0.187 HD
HETATM   26  N7  UNL     1       4.059  21.585  18.360  1.00  0.00    -0.235 N 
HETATM   27  N8  UNL     1       3.310  20.524  16.366  1.00  0.00    -0.225 N 
ATOM     28  H72 UNL     1       3.974  21.827  19.347  1.00  0.00     0.174 HD
ATOM     29  H71 UNL     1       4.873  21.935  17.853  1.00  0.00     0.174 HD
ATOM     30  H8  UNL     1       3.640  19.595  16.104  1.00  0.00     0.177 HD
BRANCH  27  31
HETATM   31  C12 UNL     1       2.976  21.461  15.346  1.00  0.00     0.166 C 
BRANCH  31  32
HETATM   32  C13 UNL     1       2.825  20.863  14.003  1.00  0.00     0.256 C 
BRANCH  32  33
HETATM   33  N9  UNL     1       2.198  21.654  13.017  1.00  0.00    -0.077 N 
HETATM   34  C14 UNL     1       0.803  21.860  13.183  1.00  0.00     0.271 C 
HETATM   35  C15 UNL     1       2.429  21.086  11.686  1.00  0.00     0.271 C 
HETATM   36  C16 UNL     1       2.876  22.985  13.035  1.00  0.00     0.271 C 
ENDBRANCH  32  33
ENDBRANCH  31  32
ENDBRANCH  27  31
ENDBRANCH   1  21
TORSDOF 8
ENDMDL
