MODEL 1
REMARK VINA RESULT: -8.950968520      0.000      0.000
REMARK  4 active torsions:
REMARK  status: ('A' for Active; 'I' for Inactive)
REMARK    1  A    between atoms: C3_3  and  C4_4 
REMARK    2  A    between atoms: C6_6  and  N1_7 
REMARK       I    between atoms: N1_7  and  C7_9 
REMARK    3  A    between atoms: C7_9  and  C8_11 
REMARK    4  A    between atoms: C8_11  and  C9_12 
ROOT
HETATM    1  C1  UNL     1      53.692   6.077  48.838  1.00  0.00     0.112 C 
HETATM    2  C2  UNL     1      53.754   7.339  49.619  1.00  0.00    -0.104 C 
HETATM    3  C3  UNL     1      53.828   8.369  50.231  1.00  0.00    -0.048 C 
ENDROOT
BRANCH   3   4
HETATM    4  C4  UNL     1      53.926   9.640  50.939  1.00  0.00     0.104 A 
HETATM    5  C5  UNL     1      55.043  10.193  51.497  1.00  0.00     0.090 A 
HETATM    6  C6  UNL     1      54.663  11.399  52.114  1.00  0.00     0.125 A 
HETATM    7  N2  UNL     1      53.345  11.535  51.912  1.00  0.00    -0.284 N 
HETATM    8  N3  UNL     1      52.906  10.495  51.216  1.00  0.00    -0.291 N 
ATOM      9  H2  UNL     1      52.773  12.312  52.241  1.00  0.00     0.188 HD
ATOM     10  H3  UNL     1      51.937  10.356  50.928  1.00  0.00     0.188 HD
BRANCH   6  11
HETATM   11  N1  UNL     1      55.503  12.102  52.710  1.00  0.00    -0.308 N 
HETATM   12  C7  UNL     1      55.336  13.178  53.617  1.00  0.00     0.247 C 
HETATM   13  O1  UNL     1      54.199  13.283  54.127  1.00  0.00    -0.268 OA
ATOM     14  H1  UNL     1      56.474  11.861  52.511  1.00  0.00     0.170 HD
BRANCH  12  15
HETATM   15  C8  UNL     1      56.400  14.062  53.906  1.00  0.00     0.087 C 
BRANCH  15  16
HETATM   16  C9  UNL     1      56.572  15.404  53.456  1.00  0.00    -0.019 A 
HETATM   17  C10 UNL     1      56.413  15.904  52.199  1.00  0.00    -0.051 A 
HETATM   18  C11 UNL     1      56.093  15.004  51.099  1.00  0.00     0.049 C 
HETATM   19  C12 UNL     1      56.581  17.288  51.982  1.00  0.00     0.014 A 
HETATM   20  C13 UNL     1      56.897  18.164  52.983  1.00  0.00    -0.061 A 
HETATM   21  C14 UNL     1      57.038  19.625  52.694  1.00  0.00     0.048 C 
HETATM   22  C15 UNL     1      57.058  17.663  54.243  1.00  0.00     0.014 A 
HETATM   23  C16 UNL     1      56.902  16.322  54.483  1.00  0.00    -0.051 A 
HETATM   24  C17 UNL     1      57.112  15.852  55.868  1.00  0.00     0.049 C 
ENDBRANCH  15  16
ENDBRANCH  12  15
ENDBRANCH   6  11
ENDBRANCH   3   4
TORSDOF 4
ENDMDL
MODEL 2
REMARK VINA RESULT: -8.925340422      2.736      8.441
REMARK  4 active torsions:
REMARK  status: ('A' for Active; 'I' for Inactive)
REMARK    1  A    between atoms: C3_3  and  C4_4 
REMARK    2  A    between atoms: C6_6  and  N1_7 
REMARK       I    between atoms: N1_7  and  C7_9 
REMARK    3  A    between atoms: C7_9  and  C8_11 
REMARK    4  A    between atoms: C8_11  and  C9_12 
ROOT
HETATM    1  C1  UNL     1      58.351  22.551  53.363  1.00  0.00     0.112 C 
HETATM    2  C2  UNL     1      57.898  21.145  53.217  1.00  0.00    -0.104 C 
HETATM    3  C3  UNL     1      57.507  20.018  53.077  1.00  0.00    -0.048 C 
ENDROOT
BRANCH   3   4
HETATM    4  C4  UNL     1      57.028  18.657  52.869  1.00  0.00     0.104 A 
HETATM    5  C5  UNL     1      57.237  17.573  53.673  1.00  0.00     0.090 A 
HETATM    6  C6  UNL     1      56.632  16.460  53.061  1.00  0.00     0.125 A 
HETATM    7  N2  UNL     1      56.083  16.901  51.921  1.00  0.00    -0.284 N 
HETATM    8  N3  UNL     1      56.315  18.202  51.805  1.00  0.00    -0.291 N 
ATOM      9  H2  UNL     1      55.570  16.328  51.251  1.00  0.00     0.188 HD
ATOM     10  H3  UNL     1      56.002  18.780  51.026  1.00  0.00     0.188 HD
BRANCH   6  11
HETATM   11  N1  UNL     1      56.686  15.334  53.593  1.00  0.00    -0.308 N 
HETATM   12  C7  UNL     1      56.744  14.040  53.018  1.00  0.00     0.247 C 
HETATM   13  O1  UNL     1      57.069  13.997  51.811  1.00  0.00    -0.268 OA
ATOM     14  H1  UNL     1      56.688  15.345  54.613  1.00  0.00     0.170 HD
BRANCH  12  15
HETATM   15  C8  UNL     1      56.448  12.887  53.781  1.00  0.00     0.087 C 
BRANCH  15  16
HETATM   16  C9  UNL     1      55.895  11.654  53.328  1.00  0.00    -0.019 A 
HETATM   17  C10 UNL     1      56.529  10.615  52.715  1.00  0.00    -0.051 A 
HETATM   18  C11 UNL     1      57.943  10.726  52.384  1.00  0.00     0.049 C 
HETATM   19  C12 UNL     1      55.796   9.452  52.397  1.00  0.00     0.014 A 
HETATM   20  C13 UNL     1      54.465   9.313  52.677  1.00  0.00    -0.061 A 
HETATM   21  C14 UNL     1      53.748   8.046  52.336  1.00  0.00     0.048 C 
HETATM   22  C15 UNL     1      53.829  10.355  53.288  1.00  0.00     0.014 A 
HETATM   23  C16 UNL     1      54.516  11.498  53.608  1.00  0.00    -0.051 A 
HETATM   24  C17 UNL     1      53.755  12.590  54.250  1.00  0.00     0.049 C 
ENDBRANCH  15  16
ENDBRANCH  12  15
ENDBRANCH   6  11
ENDBRANCH   3   4
TORSDOF 4
ENDMDL
MODEL 3
REMARK VINA RESULT: -8.853155954      2.725      8.478
REMARK  4 active torsions:
REMARK  status: ('A' for Active; 'I' for Inactive)
REMARK    1  A    between atoms: C3_3  and  C4_4 
REMARK    2  A    between atoms: C6_6  and  N1_7 
REMARK       I    between atoms: N1_7  and  C7_9 
REMARK    3  A    between atoms: C7_9  and  C8_11 
REMARK    4  A    between atoms: C8_11  and  C9_12 
ROOT
HETATM    1  C1  UNL     1      58.394  22.508  53.364  1.00  0.00     0.112 C 
HETATM    2  C2  UNL     1      57.948  21.099  53.214  1.00  0.00    -0.104 C 
HETATM    3  C3  UNL     1      57.565  19.971  53.071  1.00  0.00    -0.048 C 
ENDROOT
BRANCH   3   4
HETATM    4  C4  UNL     1      57.095  18.607  52.858  1.00  0.00     0.104 A 
HETATM    5  C5  UNL     1      57.369  17.508  53.620  1.00  0.00     0.090 A 
HETATM    6  C6  UNL     1      56.745  16.400  53.018  1.00  0.00     0.125 A 
HETATM    7  N2  UNL     1      56.121  16.859  51.925  1.00  0.00    -0.284 N 
HETATM    8  N3  UNL     1      56.326  18.166  51.827  1.00  0.00    -0.291 N 
ATOM      9  H2  UNL     1      55.577  16.294  51.272  1.00  0.00     0.188 HD
ATOM     10  H3  UNL     1      55.957  18.758  51.083  1.00  0.00     0.188 HD
BRANCH   6  11
HETATM   11  N1  UNL     1      56.849  15.262  53.516  1.00  0.00    -0.308 N 
HETATM   12  C7  UNL     1      56.682  13.979  52.939  1.00  0.00     0.247 C 
HETATM   13  O1  UNL     1      56.706  13.940  51.690  1.00  0.00    -0.268 OA
ATOM     14  H1  UNL     1      57.095  15.253  54.506  1.00  0.00     0.170 HD
BRANCH  12  15
HETATM   15  C8  UNL     1      56.499  12.833  53.746  1.00  0.00     0.087 C 
BRANCH  15  16
HETATM   16  C9  UNL     1      55.690  11.690  53.477  1.00  0.00    -0.019 A 
HETATM   17  C10 UNL     1      54.356  11.525  53.699  1.00  0.00    -0.051 A 
HETATM   18  C11 UNL     1      53.598  12.580  54.357  1.00  0.00     0.049 C 
HETATM   19  C12 UNL     1      53.736  10.321  53.303  1.00  0.00     0.014 A 
HETATM   20  C13 UNL     1      54.414   9.300  52.698  1.00  0.00    -0.061 A 
HETATM   21  C14 UNL     1      53.696   8.057  52.279  1.00  0.00     0.048 C 
HETATM   22  C15 UNL     1      55.751   9.465  52.476  1.00  0.00     0.014 A 
HETATM   23  C16 UNL     1      56.382  10.623  52.852  1.00  0.00    -0.051 A 
HETATM   24  C17 UNL     1      57.833  10.720  52.598  1.00  0.00     0.049 C 
ENDBRANCH  15  16
ENDBRANCH  12  15
ENDBRANCH   6  11
ENDBRANCH   3   4
TORSDOF 4
ENDMDL
MODEL 4
REMARK VINA RESULT: -8.809307880      4.753      6.142
REMARK  4 active torsions:
REMARK  status: ('A' for Active; 'I' for Inactive)
REMARK    1  A    between atoms: C3_3  and  C4_4 
REMARK    2  A    between atoms: C6_6  and  N1_7 
REMARK       I    between atoms: N1_7  and  C7_9 
REMARK    3  A    between atoms: C7_9  and  C8_11 
REMARK    4  A    between atoms: C8_11  and  C9_12 
ROOT
HETATM    1  C1  UNL     1      62.846   7.123  57.770  1.00  0.00     0.112 C 
HETATM    2  C2  UNL     1      61.760   7.335  56.780  1.00  0.00    -0.104 C 
HETATM    3  C3  UNL     1      60.878   7.538  55.991  1.00  0.00    -0.048 C 
ENDROOT
BRANCH   3   4
HETATM    4  C4  UNL     1      59.821   7.822  55.028  1.00  0.00     0.104 A 
HETATM    5  C5  UNL     1      59.122   8.986  54.884  1.00  0.00     0.090 A 
HETATM    6  C6  UNL     1      58.171   8.794  53.865  1.00  0.00     0.125 A 
HETATM    7  N2  UNL     1      58.324   7.536  53.430  1.00  0.00    -0.284 N 
HETATM    8  N3  UNL     1      59.301   6.958  54.116  1.00  0.00    -0.291 N 
ATOM      9  H2  UNL     1      57.777   7.095  52.691  1.00  0.00     0.188 HD
ATOM     10  H3  UNL     1      59.618   5.998  53.979  1.00  0.00     0.188 HD
BRANCH   6  11
HETATM   11  N1  UNL     1      57.392   9.711  53.540  1.00  0.00    -0.308 N 
HETATM   12  C7  UNL     1      56.327   9.736  52.606  1.00  0.00     0.247 C 
HETATM   13  O1  UNL     1      55.904   8.618  52.238  1.00  0.00    -0.268 OA
ATOM     14  H1  UNL     1      57.547  10.593  54.030  1.00  0.00     0.170 HD
BRANCH  12  15
HETATM   15  C8  UNL     1      55.797  10.958  52.134  1.00  0.00     0.087 C 
BRANCH  15  16
HETATM   16  C9  UNL     1      55.974  12.261  52.684  1.00  0.00    -0.019 A 
HETATM   17  C10 UNL     1      55.221  12.892  53.628  1.00  0.00    -0.051 A 
HETATM   18  C11 UNL     1      54.022  12.247  54.145  1.00  0.00     0.049 C 
HETATM   19  C12 UNL     1      55.609  14.173  54.075  1.00  0.00     0.014 A 
HETATM   20  C13 UNL     1      56.718  14.820  53.604  1.00  0.00    -0.061 A 
HETATM   21  C14 UNL     1      57.091  16.168  54.135  1.00  0.00     0.048 C 
HETATM   22  C15 UNL     1      57.471  14.189  52.657  1.00  0.00     0.014 A 
HETATM   23  C16 UNL     1      57.117  12.944  52.202  1.00  0.00    -0.051 A 
HETATM   24  C17 UNL     1      57.971  12.334  51.162  1.00  0.00     0.049 C 
ENDBRANCH  15  16
ENDBRANCH  12  15
ENDBRANCH   6  11
ENDBRANCH   3   4
TORSDOF 4
ENDMDL
MODEL 5
REMARK VINA RESULT: -8.734135656      0.852      2.026
REMARK  4 active torsions:
REMARK  status: ('A' for Active; 'I' for Inactive)
REMARK    1  A    between atoms: C3_3  and  C4_4 
REMARK    2  A    between atoms: C6_6  and  N1_7 
REMARK       I    between atoms: N1_7  and  C7_9 
REMARK    3  A    between atoms: C7_9  and  C8_11 
REMARK    4  A    between atoms: C8_11  and  C9_12 
ROOT
HETATM    1  C1  UNL     1      53.102   7.119  48.480  1.00  0.00     0.112 C 
HETATM    2  C2  UNL     1      53.467   8.017  49.604  1.00  0.00    -0.104 C 
HETATM    3  C3  UNL     1      53.740   8.729  50.531  1.00  0.00    -0.048 C 
ENDROOT
BRANCH   3   4
HETATM    4  C4  UNL     1      54.067   9.562  51.682  1.00  0.00     0.104 A 
HETATM    5  C5  UNL     1      55.086  10.465  51.789  1.00  0.00     0.090 A 
HETATM    6  C6  UNL     1      55.051  11.003  53.088  1.00  0.00     0.125 A 
HETATM    7  N2  UNL     1      54.024  10.416  53.718  1.00  0.00    -0.284 N 
HETATM    8  N3  UNL     1      53.439   9.563  52.888  1.00  0.00    -0.291 N 
ATOM      9  H2  UNL     1      53.739  10.596  54.681  1.00  0.00     0.188 HD
ATOM     10  H3  UNL     1      52.630   8.987  53.121  1.00  0.00     0.188 HD
BRANCH   6  11
HETATM   11  N1  UNL     1      55.889  11.853  53.449  1.00  0.00    -0.308 N 
HETATM   12  C7  UNL     1      55.731  13.213  53.813  1.00  0.00     0.247 C 
HETATM   13  O1  UNL     1      54.565  13.568  54.089  1.00  0.00    -0.268 OA
ATOM     14  H1  UNL     1      56.849  11.511  53.489  1.00  0.00     0.170 HD
BRANCH  12  15
HETATM   15  C8  UNL     1      56.838  14.092  53.851  1.00  0.00     0.087 C 
BRANCH  15  16
HETATM   16  C9  UNL     1      56.837  15.510  53.705  1.00  0.00    -0.019 A 
HETATM   17  C10 UNL     1      57.012  16.462  54.664  1.00  0.00    -0.051 A 
HETATM   18  C11 UNL     1      57.158  16.063  56.057  1.00  0.00     0.049 C 
HETATM   19  C12 UNL     1      57.030  17.822  54.289  1.00  0.00     0.014 A 
HETATM   20  C13 UNL     1      56.881  18.238  52.995  1.00  0.00    -0.061 A 
HETATM   21  C14 UNL     1      56.933  19.694  52.658  1.00  0.00     0.048 C 
HETATM   22  C15 UNL     1      56.703  17.285  52.034  1.00  0.00     0.014 A 
HETATM   23  C16 UNL     1      56.679  15.955  52.369  1.00  0.00    -0.051 A 
HETATM   24  C17 UNL     1      56.463  14.984  51.277  1.00  0.00     0.049 C 
ENDBRANCH  15  16
ENDBRANCH  12  15
ENDBRANCH   6  11
ENDBRANCH   3   4
TORSDOF 4
ENDMDL
