MODEL 1
REMARK VINA RESULT: -9.058479828      0.000      0.000
REMARK  10 active torsions:
REMARK  status: ('A' for Active; 'I' for Inactive)
REMARK    1  A    between atoms: C6_6  and  C7_7 
REMARK    2  A    between atoms: C7_7  and  S1_8 
REMARK    3  A    between atoms: S1_8  and  C8_9 
REMARK    4  A    between atoms: C8_9  and  C9_10 
REMARK    5  A    between atoms: C9_10  and  C10_11 
REMARK    6  A    between atoms: C11_15  and  C12_16 
REMARK    7  A    between atoms: C12_16  and  N2_17 
REMARK    8  A    between atoms: N5_23  and  C15_24 
REMARK    9  A    between atoms: C15_24  and  C16_25 
REMARK   10  A    between atoms: C16_25  and  C17_26 
ROOT
HETATM    1  C10 UNL     1       5.891  -2.611  13.988  1.00  0.00     0.214 C 
HETATM    2  N1  UNL     1       5.109  -3.618  14.749  1.00  0.00    -0.061 N 
ATOM      3  H11 UNL     1       5.650  -4.424  15.065  1.00  0.00     0.278 HD
ATOM      4  H12 UNL     1       4.444  -4.150  14.187  1.00  0.00     0.278 HD
HETATM    5  C11 UNL     1       4.503  -2.836  15.826  1.00  0.00     0.221 C 
HETATM    6  C14 UNL     1       3.485  -1.972  15.173  1.00  0.00     0.152 C 
HETATM    7  N5  UNL     1       3.777  -1.442  13.898  1.00  0.00    -0.400 N 
HETATM    8  C27 UNL     1       5.086  -1.566  13.361  1.00  0.00     0.049 C 
HETATM    9  C28 UNL     1       4.927  -1.640  11.854  1.00  0.00     0.040 C 
HETATM   10  C29 UNL     1       5.890  -0.252  13.564  1.00  0.00     0.040 C 
ENDROOT
BRANCH   7  11
HETATM   11  C15 UNL     1       3.156  -0.154  13.793  1.00  0.00     0.118 C 
BRANCH  11  12
HETATM   12  C16 UNL     1       1.828  -0.204  13.044  1.00  0.00     0.029 C 
BRANCH  12  13
HETATM   13  C17 UNL     1       1.820   0.740  11.891  1.00  0.00    -0.038 C 
HETATM   14  C18 UNL     1       0.550   1.585  12.028  1.00  0.00     0.014 C 
HETATM   15  C19 UNL     1       0.445   2.634  10.949  1.00  0.00    -0.013 C 
HETATM   16  C20 UNL     1       0.496   2.009   9.587  1.00  0.00     0.009 C 
HETATM   17  C24 UNL     1       1.600   3.615  11.051  1.00  0.00     0.009 C 
HETATM   18  C21 UNL     1       1.780   1.224   9.490  1.00  0.00    -0.013 C 
HETATM   19  C22 UNL     1       3.004   2.058   9.658  1.00  0.00     0.009 C 
HETATM   20  C26 UNL     1       1.824   0.114  10.542  1.00  0.00     0.014 C 
HETATM   21  C23 UNL     1       2.868   2.811  10.975  1.00  0.00    -0.013 C 
HETATM   22  C25 UNL     1       2.961   1.752  12.057  1.00  0.00     0.014 C 
ENDBRANCH  12  13
ENDBRANCH  11  12
ENDBRANCH   7  11
BRANCH   5  23
HETATM   23  C12 UNL     1       3.870  -3.773  16.848  1.00  0.00     0.156 C 
BRANCH  23  24
HETATM   24  N2  UNL     1       4.833  -4.156  17.857  1.00  0.00    -0.365 N 
HETATM   25  C13 UNL     1       5.427  -5.293  17.765  1.00  0.00     0.197 C 
HETATM   26  N3  UNL     1       6.362  -5.619  18.782  1.00  0.00    -0.067 NA
HETATM   27  N4  UNL     1       5.183  -6.209  16.708  1.00  0.00    -0.067 NA
ATOM     28  H2  UNL     1       5.040  -3.529  18.635  1.00  0.00     0.161 HD
ENDBRANCH  23  24
ENDBRANCH   5  23
BRANCH   1  29
HETATM   29  C9  UNL     1       6.923  -3.378  13.269  1.00  0.00     0.045 C 
BRANCH  29  30
HETATM   30  C8  UNL     1       6.966  -4.862  13.493  1.00  0.00     0.076 C 
BRANCH  30  31
HETATM   31  S1  UNL     1       8.239  -5.671  12.508  1.00  0.00    -0.164 SA
BRANCH  31  32
HETATM   32  C7  UNL     1       9.614  -6.231  13.494  1.00  0.00     0.112 C 
BRANCH  32  33
HETATM   33  C6  UNL     1       9.988  -5.203  14.481  1.00  0.00    -0.048 A 
HETATM   34  C5  UNL     1      10.415  -3.955  14.104  1.00  0.00     0.008 A 
HETATM   35  C4  UNL     1      10.783  -3.007  15.062  1.00  0.00     0.001 A 
HETATM   36  C3  UNL     1      10.693  -3.387  16.388  1.00  0.00     0.007 A 
HETATM   37  C2  UNL     1      10.265  -4.631  16.761  1.00  0.00    -0.061 A 
HETATM   38  C1  UNL     1      10.174  -5.014  18.194  1.00  0.00     0.048 C 
HETATM   39  C30 UNL     1       9.910  -5.545  15.824  1.00  0.00     0.014 A 
ENDBRANCH  32  33
ENDBRANCH  31  32
ENDBRANCH  30  31
ENDBRANCH  29  30
ENDBRANCH   1  29
TORSDOF 10
ENDMDL
MODEL 2
REMARK VINA RESULT: -9.000681252      0.141      1.243
REMARK  10 active torsions:
REMARK  status: ('A' for Active; 'I' for Inactive)
REMARK    1  A    between atoms: C6_6  and  C7_7 
REMARK    2  A    between atoms: C7_7  and  S1_8 
REMARK    3  A    between atoms: S1_8  and  C8_9 
REMARK    4  A    between atoms: C8_9  and  C9_10 
REMARK    5  A    between atoms: C9_10  and  C10_11 
REMARK    6  A    between atoms: C11_15  and  C12_16 
REMARK    7  A    between atoms: C12_16  and  N2_17 
REMARK    8  A    between atoms: N5_23  and  C15_24 
REMARK    9  A    between atoms: C15_24  and  C16_25 
REMARK   10  A    between atoms: C16_25  and  C17_26 
ROOT
HETATM    1  C10 UNL     1       5.889  -2.602  13.812  1.00  0.00     0.214 C 
HETATM    2  N1  UNL     1       5.123  -3.582  14.623  1.00  0.00    -0.061 N 
ATOM      3  H11 UNL     1       5.664  -4.389  14.933  1.00  0.00     0.278 HD
ATOM      4  H12 UNL     1       4.429  -4.114  14.098  1.00  0.00     0.278 HD
HETATM    5  C11 UNL     1       4.570  -2.770  15.706  1.00  0.00     0.221 C 
HETATM    6  C14 UNL     1       3.541  -1.902  15.075  1.00  0.00     0.152 C 
HETATM    7  N5  UNL     1       3.791  -1.403  13.779  1.00  0.00    -0.400 N 
HETATM    8  C27 UNL     1       5.076  -1.557  13.194  1.00  0.00     0.049 C 
HETATM    9  C28 UNL     1       4.858  -1.659  11.697  1.00  0.00     0.040 C 
HETATM   10  C29 UNL     1       5.907  -0.252  13.340  1.00  0.00     0.040 C 
ENDROOT
BRANCH   7  11
HETATM   11  C15 UNL     1       3.185  -0.107  13.672  1.00  0.00     0.118 C 
BRANCH  11  12
HETATM   12  C16 UNL     1       1.806  -0.159  13.022  1.00  0.00     0.029 C 
BRANCH  12  13
HETATM   13  C17 UNL     1       1.672   0.869  11.952  1.00  0.00    -0.038 C 
HETATM   14  C18 UNL     1       2.919   1.755  12.039  1.00  0.00     0.014 C 
HETATM   15  C19 UNL     1       2.943   2.811  10.963  1.00  0.00    -0.013 C 
HETATM   16  C20 UNL     1       1.710   3.662  11.018  1.00  0.00     0.009 C 
HETATM   17  C24 UNL     1       2.998   2.165   9.589  1.00  0.00     0.009 C 
HETATM   18  C21 UNL     1       0.517   2.748  10.888  1.00  0.00    -0.013 C 
HETATM   19  C22 UNL     1       0.488   1.982   9.610  1.00  0.00     0.009 C 
HETATM   20  C26 UNL     1       0.471   1.741  12.038  1.00  0.00     0.014 C 
HETATM   21  C23 UNL     1       1.815   1.244   9.489  1.00  0.00    -0.013 C 
HETATM   22  C25 UNL     1       1.793   0.191  10.581  1.00  0.00     0.014 C 
ENDBRANCH  12  13
ENDBRANCH  11  12
ENDBRANCH   7  11
BRANCH   5  23
HETATM   23  C12 UNL     1       3.964  -3.677  16.770  1.00  0.00     0.156 C 
BRANCH  23  24
HETATM   24  N2  UNL     1       4.960  -4.055  17.749  1.00  0.00    -0.365 N 
HETATM   25  C13 UNL     1       5.538  -5.199  17.651  1.00  0.00     0.197 C 
HETATM   26  N3  UNL     1       6.507  -5.521  18.637  1.00  0.00    -0.067 NA
HETATM   27  N4  UNL     1       5.246  -6.127  16.618  1.00  0.00    -0.067 NA
ATOM     28  H2  UNL     1       5.202  -3.419  18.509  1.00  0.00     0.161 HD
ENDBRANCH  23  24
ENDBRANCH   5  23
BRANCH   1  29
HETATM   29  C9  UNL     1       6.882  -3.399  13.069  1.00  0.00     0.045 C 
BRANCH  29  30
HETATM   30  C8  UNL     1       6.895  -4.882  13.303  1.00  0.00     0.076 C 
BRANCH  30  31
HETATM   31  S1  UNL     1       8.246  -5.704  12.441  1.00  0.00    -0.164 SA
BRANCH  31  32
HETATM   32  C7  UNL     1       9.490  -6.327  13.555  1.00  0.00     0.112 C 
BRANCH  32  33
HETATM   33  C6  UNL     1       9.900  -5.276  14.503  1.00  0.00    -0.048 A 
HETATM   34  C5  UNL     1      10.341  -4.048  14.081  1.00  0.00     0.008 A 
HETATM   35  C4  UNL     1      10.743  -3.079  15.003  1.00  0.00     0.001 A 
HETATM   36  C3  UNL     1      10.672  -3.417  16.341  1.00  0.00     0.007 A 
HETATM   37  C2  UNL     1      10.230  -4.642  16.760  1.00  0.00    -0.061 A 
HETATM   38  C1  UNL     1      10.160  -4.980  18.205  1.00  0.00     0.048 C 
HETATM   39  C30 UNL     1       9.842  -5.577  15.857  1.00  0.00     0.014 A 
ENDBRANCH  32  33
ENDBRANCH  31  32
ENDBRANCH  30  31
ENDBRANCH  29  30
ENDBRANCH   1  29
TORSDOF 10
ENDMDL
MODEL 3
REMARK VINA RESULT: -8.854443392      1.498      2.869
REMARK  10 active torsions:
REMARK  status: ('A' for Active; 'I' for Inactive)
REMARK    1  A    between atoms: C6_6  and  C7_7 
REMARK    2  A    between atoms: C7_7  and  S1_8 
REMARK    3  A    between atoms: S1_8  and  C8_9 
REMARK    4  A    between atoms: C8_9  and  C9_10 
REMARK    5  A    between atoms: C9_10  and  C10_11 
REMARK    6  A    between atoms: C11_15  and  C12_16 
REMARK    7  A    between atoms: C12_16  and  N2_17 
REMARK    8  A    between atoms: N5_23  and  C15_24 
REMARK    9  A    between atoms: C15_24  and  C16_25 
REMARK   10  A    between atoms: C16_25  and  C17_26 
ROOT
HETATM    1  C10 UNL     1       6.708  -1.693  15.446  1.00  0.00     0.214 C 
HETATM    2  N1  UNL     1       6.280  -3.091  15.706  1.00  0.00    -0.061 N 
ATOM      3  H11 UNL     1       7.007  -3.690  16.098  1.00  0.00     0.278 HD
ATOM      4  H12 UNL     1       6.124  -3.648  14.866  1.00  0.00     0.278 HD
HETATM    5  C11 UNL     1       5.101  -2.934  16.556  1.00  0.00     0.221 C 
HETATM    6  C14 UNL     1       4.044  -2.364  15.679  1.00  0.00     0.152 C 
HETATM    7  N5  UNL     1       4.425  -1.424  14.697  1.00  0.00    -0.400 N 
HETATM    8  C27 UNL     1       5.742  -0.892  14.697  1.00  0.00     0.049 C 
HETATM    9  C28 UNL     1       6.083  -0.588  13.252  1.00  0.00     0.040 C 
HETATM   10  C29 UNL     1       5.768   0.510  15.367  1.00  0.00     0.040 C 
ENDROOT
BRANCH   7  11
HETATM   11  C15 UNL     1       3.351  -0.489  14.529  1.00  0.00     0.118 C 
BRANCH  11  12
HETATM   12  C16 UNL     1       2.355  -0.929  13.462  1.00  0.00     0.029 C 
BRANCH  12  13
HETATM   13  C17 UNL     1       2.292   0.052  12.341  1.00  0.00    -0.038 C 
HETATM   14  C18 UNL     1       3.124   1.263  12.774  1.00  0.00     0.014 C 
HETATM   15  C19 UNL     1       3.197   2.317  11.699  1.00  0.00    -0.013 C 
HETATM   16  C20 UNL     1       1.825   2.762  11.289  1.00  0.00     0.009 C 
HETATM   17  C24 UNL     1       3.891   1.767  10.465  1.00  0.00     0.009 C 
HETATM   18  C21 UNL     1       1.064   1.542  10.835  1.00  0.00    -0.013 C 
HETATM   19  C22 UNL     1       1.687   0.848   9.672  1.00  0.00     0.009 C 
HETATM   20  C26 UNL     1       0.933   0.525  11.970  1.00  0.00     0.014 C 
HETATM   21  C23 UNL     1       3.131   0.541  10.043  1.00  0.00    -0.013 C 
HETATM   22  C25 UNL     1       3.054  -0.510  11.134  1.00  0.00     0.014 C 
ENDBRANCH  12  13
ENDBRANCH  11  12
ENDBRANCH   7  11
BRANCH   5  23
HETATM   23  C12 UNL     1       4.690  -4.288  17.120  1.00  0.00     0.156 C 
BRANCH  23  24
HETATM   24  N2  UNL     1       5.423  -4.581  18.333  1.00  0.00    -0.365 N 
HETATM   25  C13 UNL     1       6.451  -5.351  18.280  1.00  0.00     0.197 C 
HETATM   26  N3  UNL     1       7.134  -5.605  19.498  1.00  0.00    -0.067 NA
HETATM   27  N4  UNL     1       6.914  -5.940  17.074  1.00  0.00    -0.067 NA
ATOM     28  H2  UNL     1       5.127  -4.179  19.223  1.00  0.00     0.161 HD
ENDBRANCH  23  24
ENDBRANCH   5  23
BRANCH   1  29
HETATM   29  C9  UNL     1       8.135  -1.780  15.088  1.00  0.00     0.045 C 
BRANCH  29  30
HETATM   30  C8  UNL     1       9.026  -2.591  15.985  1.00  0.00     0.076 C 
BRANCH  30  31
HETATM   31  S1  UNL     1      10.263  -3.524  15.067  1.00  0.00    -0.164 SA
BRANCH  31  32
HETATM   32  C7  UNL     1       9.910  -5.270  15.023  1.00  0.00     0.112 C 
BRANCH  32  33
HETATM   33  C6  UNL     1       9.266  -5.629  13.747  1.00  0.00    -0.048 A 
HETATM   34  C5  UNL     1       9.713  -6.673  12.976  1.00  0.00     0.008 A 
HETATM   35  C4  UNL     1       9.096  -6.977  11.760  1.00  0.00     0.001 A 
HETATM   36  C3  UNL     1       8.028  -6.185  11.382  1.00  0.00     0.007 A 
HETATM   37  C2  UNL     1       7.584  -5.146  12.154  1.00  0.00    -0.061 A 
HETATM   38  C1  UNL     1       6.431  -4.311  11.727  1.00  0.00     0.048 C 
HETATM   39  C30 UNL     1       8.190  -4.858  13.332  1.00  0.00     0.014 A 
ENDBRANCH  32  33
ENDBRANCH  31  32
ENDBRANCH  30  31
ENDBRANCH  29  30
ENDBRANCH   1  29
TORSDOF 10
ENDMDL
MODEL 4
REMARK VINA RESULT: -8.845180778      2.164      3.773
REMARK  10 active torsions:
REMARK  status: ('A' for Active; 'I' for Inactive)
REMARK    1  A    between atoms: C6_6  and  C7_7 
REMARK    2  A    between atoms: C7_7  and  S1_8 
REMARK    3  A    between atoms: S1_8  and  C8_9 
REMARK    4  A    between atoms: C8_9  and  C9_10 
REMARK    5  A    between atoms: C9_10  and  C10_11 
REMARK    6  A    between atoms: C11_15  and  C12_16 
REMARK    7  A    between atoms: C12_16  and  N2_17 
REMARK    8  A    between atoms: N5_23  and  C15_24 
REMARK    9  A    between atoms: C15_24  and  C16_25 
REMARK   10  A    between atoms: C16_25  and  C17_26 
ROOT
HETATM    1  C10 UNL     1       4.993  -4.738  15.453  1.00  0.00     0.214 C 
HETATM    2  N1  UNL     1       6.225  -4.694  14.626  1.00  0.00    -0.061 N 
ATOM      3  H11 UNL     1       6.739  -5.575  14.587  1.00  0.00     0.278 HD
ATOM      4  H12 UNL     1       6.985  -4.145  15.029  1.00  0.00     0.278 HD
HETATM    5  C11 UNL     1       5.750  -4.213  13.330  1.00  0.00     0.221 C 
HETATM    6  C14 UNL     1       5.377  -2.789  13.541  1.00  0.00     0.152 C 
HETATM    7  N5  UNL     1       4.783  -2.429  14.770  1.00  0.00    -0.400 N 
HETATM    8  C27 UNL     1       4.369  -3.437  15.680  1.00  0.00     0.049 C 
HETATM    9  C28 UNL     1       4.511  -2.846  17.070  1.00  0.00     0.040 C 
HETATM   10  C29 UNL     1       2.840  -3.690  15.562  1.00  0.00     0.040 C 
ENDROOT
BRANCH   7  11
HETATM   11  C15 UNL     1       3.859  -1.360  14.526  1.00  0.00     0.118 C 
BRANCH  11  12
HETATM   12  C16 UNL     1       4.347  -0.400  13.447  1.00  0.00     0.029 C 
BRANCH  12  13
HETATM   13  C17 UNL     1       3.223   0.061  12.583  1.00  0.00    -0.038 C 
HETATM   14  C18 UNL     1       3.437   1.561  12.352  1.00  0.00     0.014 C 
HETATM   15  C19 UNL     1       2.395   2.150  11.435  1.00  0.00    -0.013 C 
HETATM   16  C20 UNL     1       1.014   1.909  11.967  1.00  0.00     0.009 C 
HETATM   17  C24 UNL     1       2.478   1.511  10.060  1.00  0.00     0.009 C 
HETATM   18  C21 UNL     1       0.842   0.420  12.137  1.00  0.00    -0.013 C 
HETATM   19  C22 UNL     1       0.984  -0.347  10.867  1.00  0.00     0.009 C 
HETATM   20  C26 UNL     1       1.858  -0.138  13.136  1.00  0.00     0.014 C 
HETATM   21  C23 UNL     1       2.327   0.028  10.254  1.00  0.00    -0.013 C 
HETATM   22  C25 UNL     1       3.373  -0.554  11.186  1.00  0.00     0.014 C 
ENDBRANCH  12  13
ENDBRANCH  11  12
ENDBRANCH   7  11
BRANCH   5  23
HETATM   23  C12 UNL     1       6.856  -4.354  12.292  1.00  0.00     0.156 C 
BRANCH  23  24
HETATM   24  N2  UNL     1       7.946  -5.152  12.811  1.00  0.00    -0.365 N 
HETATM   25  C13 UNL     1       8.368  -6.161  12.135  1.00  0.00     0.197 C 
HETATM   26  N3  UNL     1       9.439  -6.910  12.689  1.00  0.00    -0.067 NA
HETATM   27  N4  UNL     1       7.814  -6.539  10.884  1.00  0.00    -0.067 NA
ATOM     28  H2  UNL     1       8.375  -4.917  13.706  1.00  0.00     0.161 HD
ENDBRANCH  23  24
ENDBRANCH   5  23
BRANCH   1  29
HETATM   29  C9  UNL     1       5.279  -5.697  16.534  1.00  0.00     0.045 C 
BRANCH  29  30
HETATM   30  C8  UNL     1       6.711  -6.097  16.744  1.00  0.00     0.076 C 
BRANCH  30  31
HETATM   31  S1  UNL     1       7.425  -5.355  18.222  1.00  0.00    -0.164 SA
BRANCH  31  32
HETATM   32  C7  UNL     1       9.175  -5.060  18.063  1.00  0.00     0.112 C 
BRANCH  32  33
HETATM   33  C6  UNL     1       9.464  -4.374  16.791  1.00  0.00    -0.048 A 
HETATM   34  C5  UNL     1      10.439  -4.814  15.932  1.00  0.00     0.008 A 
HETATM   35  C4  UNL     1      10.705  -4.130  14.744  1.00  0.00     0.001 A 
HETATM   36  C3  UNL     1       9.945  -3.006  14.483  1.00  0.00     0.007 A 
HETATM   37  C2  UNL     1       8.972  -2.570  15.340  1.00  0.00    -0.061 A 
HETATM   38  C1  UNL     1       8.166  -1.360  15.034  1.00  0.00     0.048 C 
HETATM   39  C30 UNL     1       8.722  -3.241  16.492  1.00  0.00     0.014 A 
ENDBRANCH  32  33
ENDBRANCH  31  32
ENDBRANCH  30  31
ENDBRANCH  29  30
ENDBRANCH   1  29
TORSDOF 10
ENDMDL
MODEL 5
REMARK VINA RESULT: -8.823736555      0.835      1.313
REMARK  10 active torsions:
REMARK  status: ('A' for Active; 'I' for Inactive)
REMARK    1  A    between atoms: C6_6  and  C7_7 
REMARK    2  A    between atoms: C7_7  and  S1_8 
REMARK    3  A    between atoms: S1_8  and  C8_9 
REMARK    4  A    between atoms: C8_9  and  C9_10 
REMARK    5  A    between atoms: C9_10  and  C10_11 
REMARK    6  A    between atoms: C11_15  and  C12_16 
REMARK    7  A    between atoms: C12_16  and  N2_17 
REMARK    8  A    between atoms: N5_23  and  C15_24 
REMARK    9  A    between atoms: C15_24  and  C16_25 
REMARK   10  A    between atoms: C16_25  and  C17_26 
ROOT
HETATM    1  C10 UNL     1       6.042  -2.331  13.707  1.00  0.00     0.214 C 
HETATM    2  N1  UNL     1       5.390  -3.390  14.517  1.00  0.00    -0.061 N 
ATOM      3  H11 UNL     1       6.009  -4.154  14.792  1.00  0.00     0.278 HD
ATOM      4  H12 UNL     1       4.728  -3.970  14.002  1.00  0.00     0.278 HD
HETATM    5  C11 UNL     1       4.805  -2.652  15.636  1.00  0.00     0.221 C 
HETATM    6  C14 UNL     1       3.685  -1.864  15.058  1.00  0.00     0.152 C 
HETATM    7  N5  UNL     1       3.848  -1.318  13.767  1.00  0.00    -0.400 N 
HETATM    8  C27 UNL     1       5.122  -1.348  13.140  1.00  0.00     0.049 C 
HETATM    9  C28 UNL     1       4.865  -1.437  11.648  1.00  0.00     0.040 C 
HETATM   10  C29 UNL     1       5.842   0.021  13.290  1.00  0.00     0.040 C 
ENDROOT
BRANCH   7  11
HETATM   11  C15 UNL     1       3.129  -0.078  13.709  1.00  0.00     0.118 C 
BRANCH  11  12
HETATM   12  C16 UNL     1       1.810  -0.202  12.955  1.00  0.00     0.029 C 
BRANCH  12  13
HETATM   13  C17 UNL     1       1.737   0.768  11.826  1.00  0.00    -0.038 C 
HETATM   14  C18 UNL     1       0.433   1.551  12.007  1.00  0.00     0.014 C 
HETATM   15  C19 UNL     1       0.261   2.619  10.957  1.00  0.00    -0.013 C 
HETATM   16  C20 UNL     1       0.312   2.031   9.579  1.00  0.00     0.009 C 
HETATM   17  C24 UNL     1       1.372   3.649  11.062  1.00  0.00     0.009 C 
HETATM   18  C21 UNL     1       1.628   1.307   9.440  1.00  0.00    -0.013 C 
HETATM   19  C22 UNL     1       2.817   2.191   9.605  1.00  0.00     0.009 C 
HETATM   20  C26 UNL     1       1.742   0.175  10.463  1.00  0.00     0.014 C 
HETATM   21  C23 UNL     1       2.673   2.905  10.943  1.00  0.00    -0.013 C 
HETATM   22  C25 UNL     1       2.834   1.827  11.996  1.00  0.00     0.014 C 
ENDBRANCH  12  13
ENDBRANCH  11  12
ENDBRANCH   7  11
BRANCH   5  23
HETATM   23  C12 UNL     1       4.314  -3.630  16.696  1.00  0.00     0.156 C 
BRANCH  23  24
HETATM   24  N2  UNL     1       5.354  -3.897  17.667  1.00  0.00    -0.365 N 
HETATM   25  C13 UNL     1       6.080  -4.950  17.541  1.00  0.00     0.197 C 
HETATM   26  N3  UNL     1       7.085  -5.165  18.520  1.00  0.00    -0.067 NA
HETATM   27  N4  UNL     1       5.914  -5.881  16.483  1.00  0.00    -0.067 NA
ATOM     28  H2  UNL     1       5.509  -3.255  18.444  1.00  0.00     0.161 HD
ENDBRANCH  23  24
ENDBRANCH   5  23
BRANCH   1  29
HETATM   29  C9  UNL     1       7.075  -3.023  12.915  1.00  0.00     0.045 C 
BRANCH  29  30
HETATM   30  C8  UNL     1       6.906  -4.499  12.695  1.00  0.00     0.076 C 
BRANCH  30  31
HETATM   31  S1  UNL     1       8.255  -5.459  13.403  1.00  0.00    -0.164 SA
BRANCH  31  32
HETATM   32  C7  UNL     1       9.409  -4.450  14.313  1.00  0.00     0.112 C 
BRANCH  32  33
HETATM   33  C6  UNL     1       9.773  -5.106  15.581  1.00  0.00    -0.048 A 
HETATM   34  C5  UNL     1      10.460  -4.448  16.569  1.00  0.00     0.008 A 
HETATM   35  C4  UNL     1      10.810  -5.102  17.753  1.00  0.00     0.001 A 
HETATM   36  C3  UNL     1      10.430  -6.425  17.874  1.00  0.00     0.007 A 
HETATM   37  C2  UNL     1       9.743  -7.079  16.889  1.00  0.00    -0.061 A 
HETATM   38  C1  UNL     1       9.343  -8.501  17.045  1.00  0.00     0.048 C 
HETATM   39  C30 UNL     1       9.409  -6.435  15.743  1.00  0.00     0.014 A 
ENDBRANCH  32  33
ENDBRANCH  31  32
ENDBRANCH  30  31
ENDBRANCH  29  30
ENDBRANCH   1  29
TORSDOF 10
ENDMDL
