MODEL 1
REMARK VINA RESULT: -5.954004198      0.000      0.000
REMARK  6 active torsions:
REMARK  status: ('A' for Active; 'I' for Inactive)
REMARK    1  A    between atoms: N1_1  and  C1_4 
REMARK    2  A    between atoms: N2_7  and  C4_8 
REMARK    3  A    between atoms: C5_10  and  C6_11 
REMARK       I    between atoms: C6_11  and  N3_13 
REMARK       I    between atoms: N3_13  and  C7_15 
REMARK       I    between atoms: C7_15  and  N4_17 
REMARK    4  A    between atoms: N4_17  and  N5_19 
REMARK    5  A    between atoms: C8_22  and  O4_23 
REMARK    6  A    between atoms: C8_22  and  C9_25 
ROOT
HETATM    1  C4  UNL     1      19.580 -37.140  32.274  1.00  0.00     0.385 C 
HETATM    2  O1  UNL     1      18.926 -38.030  31.461  1.00  0.00    -0.322 OA
HETATM    3  C5  UNL     1      17.985 -37.271  30.788  1.00  0.00     0.292 C 
HETATM    4  C8  UNL     1      17.863 -36.046  31.656  1.00  0.00     0.293 C 
HETATM    5  O7  UNL     1      18.475 -36.464  32.835  1.00  0.00    -0.294 OA
ENDROOT
BRANCH   1   6
HETATM    6  N2  UNL     1      20.423 -37.698  33.282  1.00  0.00    -0.259 N 
HETATM    7  C3  UNL     1      19.993 -38.306  34.400  1.00  0.00     0.104 A 
HETATM    8  C2  UNL     1      20.870 -38.847  35.351  1.00  0.00     0.065 A 
HETATM    9  C1  UNL     1      22.240 -38.756  35.143  1.00  0.00     0.103 A 
HETATM   10  N6  UNL     1      22.632 -38.135  34.004  1.00  0.00    -0.295 N 
HETATM   11  C10 UNL     1      21.774 -37.625  33.107  1.00  0.00     0.331 A 
ATOM     12  H6  UNL     1      23.632 -38.052  33.818  1.00  0.00     0.172 HD
HETATM   13  O8  UNL     1      22.199 -37.059  32.067  1.00  0.00    -0.246 OA
BRANCH   9  14
HETATM   14  N1  UNL     1      23.095 -39.240  35.970  1.00  0.00    -0.385 N 
ATOM     15  H12 UNL     1      23.205 -40.246  36.093  1.00  0.00     0.157 HD
ATOM     16  H11 UNL     1      23.694 -38.648  36.546  1.00  0.00     0.157 HD
ENDBRANCH   9  14
ENDBRANCH   1   6
BRANCH   3  17
HETATM   17  C6  UNL     1      16.782 -37.956  30.494  1.00  0.00     0.261 C 
HETATM   18  O2  UNL     1      16.148 -38.812  30.962  1.00  0.00    -0.270 OA
HETATM   19  N3  UNL     1      16.063 -37.360  29.045  1.00  0.00    -0.276 N 
HETATM   20  C7  UNL     1      14.973 -38.195  28.973  1.00  0.00     0.341 C 
ATOM     21  H3  UNL     1      16.359 -36.609  28.423  1.00  0.00     0.173 HD
HETATM   22  O3  UNL     1      14.739 -39.128  29.844  1.00  0.00    -0.245 OA
HETATM   23  N4  UNL     1      13.989 -38.137  27.963  1.00  0.00    -0.258 N 
ATOM     24  H4  UNL     1      14.077 -37.433  27.231  1.00  0.00     0.191 HD
BRANCH  23  25
HETATM   25  N5  UNL     1      12.896 -39.015  27.933  1.00  0.00    -0.341 N 
ATOM     26  H52 UNL     1      12.626 -39.472  28.805  1.00  0.00     0.177 HD
ATOM     27  H51 UNL     1      12.373 -39.205  27.078  1.00  0.00     0.177 HD
ENDBRANCH  23  25
ENDBRANCH   3  17
BRANCH   4  28
HETATM   28  O4  UNL     1      18.722 -35.060  31.111  1.00  0.00    -0.355 OA
ATOM     29  H4  UNL     1      18.171 -34.365  30.772  1.00  0.00     0.213 HD
ENDBRANCH   4  28
BRANCH   4  30
HETATM   30  C9  UNL     1      16.547 -35.463  31.788  1.00  0.00     0.242 C 
HETATM   31  O5  UNL     1      15.955 -34.809  30.915  1.00  0.00    -0.644 OA
HETATM   32  O6  UNL     1      15.851 -35.641  33.020  1.00  0.00    -0.644 OA
ENDBRANCH   4  30
TORSDOF 6
ENDMDL
MODEL 2
REMARK VINA RESULT: -5.607407181      2.317      3.742
REMARK  6 active torsions:
REMARK  status: ('A' for Active; 'I' for Inactive)
REMARK    1  A    between atoms: N1_1  and  C1_4 
REMARK    2  A    between atoms: N2_7  and  C4_8 
REMARK    3  A    between atoms: C5_10  and  C6_11 
REMARK       I    between atoms: C6_11  and  N3_13 
REMARK       I    between atoms: N3_13  and  C7_15 
REMARK       I    between atoms: C7_15  and  N4_17 
REMARK    4  A    between atoms: N4_17  and  N5_19 
REMARK    5  A    between atoms: C8_22  and  O4_23 
REMARK    6  A    between atoms: C8_22  and  C9_25 
ROOT
HETATM    1  C4  UNL     1      16.602 -37.202  30.771  1.00  0.00     0.385 C 
HETATM    2  O1  UNL     1      16.310 -38.053  29.736  1.00  0.00    -0.322 OA
HETATM    3  C5  UNL     1      14.930 -38.028  29.633  1.00  0.00     0.292 C 
HETATM    4  C8  UNL     1      14.506 -37.505  30.980  1.00  0.00     0.293 C 
HETATM    5  O7  UNL     1      15.670 -37.656  31.730  1.00  0.00    -0.294 OA
ENDROOT
BRANCH   1   6
HETATM    6  N2  UNL     1      17.937 -37.245  31.274  1.00  0.00    -0.259 N 
HETATM    7  C3  UNL     1      18.553 -38.343  31.741  1.00  0.00     0.104 A 
HETATM    8  C2  UNL     1      19.873 -38.326  32.212  1.00  0.00     0.065 A 
HETATM    9  C1  UNL     1      20.584 -37.133  32.203  1.00  0.00     0.103 A 
HETATM   10  N6  UNL     1      19.927 -36.048  31.725  1.00  0.00    -0.295 N 
HETATM   11  C10 UNL     1      18.662 -36.089  31.279  1.00  0.00     0.331 A 
ATOM     12  H6  UNL     1      20.419 -35.155  31.703  1.00  0.00     0.172 HD
HETATM   13  O8  UNL     1      18.105 -35.047  30.846  1.00  0.00    -0.246 OA
BRANCH   9  14
HETATM   14  N1  UNL     1      21.799 -37.053  32.612  1.00  0.00    -0.385 N 
ATOM     15  H12 UNL     1      22.413 -36.296  32.309  1.00  0.00     0.157 HD
ATOM     16  H11 UNL     1      22.209 -37.739  33.245  1.00  0.00     0.157 HD
ENDBRANCH   9  14
ENDBRANCH   1   6
BRANCH   3  17
HETATM   17  C6  UNL     1      14.351 -39.252  29.222  1.00  0.00     0.261 C 
HETATM   18  O2  UNL     1      14.563 -40.387  29.359  1.00  0.00    -0.270 OA
HETATM   19  N3  UNL     1      12.950 -38.986  28.255  1.00  0.00    -0.276 N 
HETATM   20  C7  UNL     1      12.621 -40.290  27.968  1.00  0.00     0.341 C 
ATOM     21  H3  UNL     1      12.498 -38.116  27.975  1.00  0.00     0.173 HD
HETATM   22  O3  UNL     1      13.318 -41.302  28.387  1.00  0.00    -0.245 OA
HETATM   23  N4  UNL     1      11.505 -40.680  27.199  1.00  0.00    -0.258 N 
ATOM     24  H4  UNL     1      10.888 -39.959  26.825  1.00  0.00     0.191 HD
BRANCH  23  25
HETATM   25  N5  UNL     1      11.214 -42.027  26.932  1.00  0.00    -0.341 N 
ATOM     26  H52 UNL     1      11.927 -42.722  27.156  1.00  0.00     0.177 HD
ATOM     27  H51 UNL     1      10.325 -42.322  26.528  1.00  0.00     0.177 HD
ENDBRANCH  23  25
ENDBRANCH   3  17
BRANCH   4  28
HETATM   28  O4  UNL     1      14.319 -36.107  30.846  1.00  0.00    -0.355 OA
ATOM     29  H4  UNL     1      15.105 -35.757  30.443  1.00  0.00     0.213 HD
ENDBRANCH   4  28
BRANCH   4  30
HETATM   30  C9  UNL     1      13.299 -38.060  31.550  1.00  0.00     0.242 C 
HETATM   31  O5  UNL     1      13.249 -38.866  32.492  1.00  0.00    -0.644 OA
HETATM   32  O6  UNL     1      12.046 -37.661  30.997  1.00  0.00    -0.644 OA
ENDBRANCH   4  30
TORSDOF 6
ENDMDL
MODEL 3
REMARK VINA RESULT: -5.591989450      1.206      1.294
REMARK  6 active torsions:
REMARK  status: ('A' for Active; 'I' for Inactive)
REMARK    1  A    between atoms: N1_1  and  C1_4 
REMARK    2  A    between atoms: N2_7  and  C4_8 
REMARK    3  A    between atoms: C5_10  and  C6_11 
REMARK       I    between atoms: C6_11  and  N3_13 
REMARK       I    between atoms: N3_13  and  C7_15 
REMARK       I    between atoms: C7_15  and  N4_17 
REMARK    4  A    between atoms: N4_17  and  N5_19 
REMARK    5  A    between atoms: C8_22  and  O4_23 
REMARK    6  A    between atoms: C8_22  and  C9_25 
ROOT
HETATM    1  C4  UNL     1      20.414 -38.297  31.955  1.00  0.00     0.385 C 
HETATM    2  O1  UNL     1      19.403 -39.041  31.403  1.00  0.00    -0.322 OA
HETATM    3  C5  UNL     1      18.683 -38.146  30.630  1.00  0.00     0.292 C 
HETATM    4  C8  UNL     1      19.086 -36.813  31.205  1.00  0.00     0.293 C 
HETATM    5  O7  UNL     1      19.677 -37.183  32.411  1.00  0.00    -0.294 OA
ENDROOT
BRANCH   1   6
HETATM    6  N2  UNL     1      21.151 -38.909  33.013  1.00  0.00    -0.259 N 
HETATM    7  C3  UNL     1      20.648 -39.780  33.903  1.00  0.00     0.104 A 
HETATM    8  C2  UNL     1      21.425 -40.359  34.916  1.00  0.00     0.065 A 
HETATM    9  C1  UNL     1      22.770 -40.027  35.016  1.00  0.00     0.103 A 
HETATM   10  N6  UNL     1      23.239 -39.146  34.100  1.00  0.00    -0.295 N 
HETATM   11  C10 UNL     1      22.476 -38.604  33.138  1.00  0.00     0.331 A 
ATOM     12  H6  UNL     1      24.223 -38.880  34.143  1.00  0.00     0.172 HD
HETATM   13  O8  UNL     1      22.968 -37.790  32.315  1.00  0.00    -0.246 OA
BRANCH   9  14
HETATM   14  N1  UNL     1      23.538 -40.530  35.915  1.00  0.00    -0.385 N 
ATOM     15  H12 UNL     1      23.168 -40.859  36.807  1.00  0.00     0.157 HD
ATOM     16  H11 UNL     1      24.546 -40.616  35.786  1.00  0.00     0.157 HD
ENDBRANCH   9  14
ENDBRANCH   1   6
BRANCH   3  17
HETATM   17  C6  UNL     1      17.295 -38.410  30.568  1.00  0.00     0.261 C 
HETATM   18  O2  UNL     1      16.487 -38.908  31.242  1.00  0.00    -0.270 OA
HETATM   19  N3  UNL     1      16.617 -37.840  29.090  1.00  0.00    -0.276 N 
HETATM   20  C7  UNL     1      15.315 -38.246  29.266  1.00  0.00     0.341 C 
ATOM     21  H3  UNL     1      17.054 -37.347  28.312  1.00  0.00     0.173 HD
HETATM   22  O3  UNL     1      14.912 -38.891  30.318  1.00  0.00    -0.245 OA
HETATM   23  N4  UNL     1      14.275 -38.013  28.341  1.00  0.00    -0.258 N 
ATOM     24  H4  UNL     1      14.486 -37.509  27.480  1.00  0.00     0.191 HD
BRANCH  23  25
HETATM   25  N5  UNL     1      12.962 -38.452  28.567  1.00  0.00    -0.341 N 
ATOM     26  H52 UNL     1      12.663 -39.316  28.114  1.00  0.00     0.177 HD
ATOM     27  H51 UNL     1      12.311 -37.938  29.161  1.00  0.00     0.177 HD
ENDBRANCH  23  25
ENDBRANCH   3  17
BRANCH   4  28
HETATM   28  O4  UNL     1      20.142 -36.315  30.403  1.00  0.00    -0.355 OA
ATOM     29  H4  UNL     1      19.933 -36.526  29.501  1.00  0.00     0.213 HD
ENDBRANCH   4  28
BRANCH   4  30
HETATM   30  C9  UNL     1      18.065 -35.793  31.277  1.00  0.00     0.242 C 
HETATM   31  O5  UNL     1      17.720 -35.048  30.346  1.00  0.00    -0.644 OA
HETATM   32  O6  UNL     1      17.382 -35.607  32.515  1.00  0.00    -0.644 OA
ENDBRANCH   4  30
TORSDOF 6
ENDMDL
MODEL 4
REMARK VINA RESULT: -5.569356790      3.299      5.378
REMARK  6 active torsions:
REMARK  status: ('A' for Active; 'I' for Inactive)
REMARK    1  A    between atoms: N1_1  and  C1_4 
REMARK    2  A    between atoms: N2_7  and  C4_8 
REMARK    3  A    between atoms: C5_10  and  C6_11 
REMARK       I    between atoms: C6_11  and  N3_13 
REMARK       I    between atoms: N3_13  and  C7_15 
REMARK       I    between atoms: C7_15  and  N4_17 
REMARK    4  A    between atoms: N4_17  and  N5_19 
REMARK    5  A    between atoms: C8_22  and  O4_23 
REMARK    6  A    between atoms: C8_22  and  C9_25 
ROOT
HETATM    1  C4  UNL     1      14.911 -37.241  30.016  1.00  0.00     0.385 C 
HETATM    2  O1  UNL     1      14.706 -38.114  28.978  1.00  0.00    -0.322 OA
HETATM    3  C5  UNL     1      13.336 -38.307  28.940  1.00  0.00     0.292 C 
HETATM    4  C8  UNL     1      12.902 -37.876  30.316  1.00  0.00     0.293 C 
HETATM    5  O7  UNL     1      14.111 -37.849  31.008  1.00  0.00    -0.294 OA
ENDROOT
BRANCH   1   6
HETATM    6  N2  UNL     1      16.259 -37.077  30.454  1.00  0.00    -0.259 N 
HETATM    7  C3  UNL     1      17.206 -38.029  30.415  1.00  0.00     0.104 A 
HETATM    8  C2  UNL     1      18.520 -37.805  30.851  1.00  0.00     0.065 A 
HETATM    9  C1  UNL     1      18.870 -36.555  31.345  1.00  0.00     0.103 A 
HETATM   10  N6  UNL     1      17.886 -35.624  31.368  1.00  0.00    -0.295 N 
HETATM   11  C10 UNL     1      16.635 -35.860  30.945  1.00  0.00     0.331 A 
ATOM     12  H6  UNL     1      18.108 -34.694  31.724  1.00  0.00     0.172 HD
HETATM   13  O8  UNL     1      15.764 -34.955  30.992  1.00  0.00    -0.246 OA
BRANCH   9  14
HETATM   14  N1  UNL     1      20.058 -36.283  31.750  1.00  0.00    -0.385 N 
ATOM     15  H12 UNL     1      20.360 -36.505  32.699  1.00  0.00     0.157 HD
ATOM     16  H11 UNL     1      20.748 -35.829  31.153  1.00  0.00     0.157 HD
ENDBRANCH   9  14
ENDBRANCH   1   6
BRANCH   3  17
HETATM   17  C6  UNL     1      12.939 -39.603  28.532  1.00  0.00     0.261 C 
HETATM   18  O2  UNL     1      12.118 -40.073  27.856  1.00  0.00    -0.270 OA
HETATM   19  N3  UNL     1      13.947 -40.813  29.232  1.00  0.00    -0.276 N 
HETATM   20  C7  UNL     1      13.340 -41.937  28.723  1.00  0.00     0.341 C 
ATOM     21  H3  UNL     1      14.757 -40.723  29.844  1.00  0.00     0.173 HD
HETATM   22  O3  UNL     1      12.290 -41.888  27.961  1.00  0.00    -0.245 OA
HETATM   23  N4  UNL     1      13.778 -43.257  28.959  1.00  0.00    -0.258 N 
ATOM     24  H4  UNL     1      14.601 -43.405  29.543  1.00  0.00     0.191 HD
BRANCH  23  25
HETATM   25  N5  UNL     1      13.119 -44.371  28.418  1.00  0.00    -0.341 N 
ATOM     26  H52 UNL     1      13.004 -44.412  27.405  1.00  0.00     0.177 HD
ATOM     27  H51 UNL     1      12.761 -45.127  29.001  1.00  0.00     0.177 HD
ENDBRANCH  23  25
ENDBRANCH   3  17
BRANCH   4  28
HETATM   28  O4  UNL     1      12.490 -36.524  30.220  1.00  0.00    -0.355 OA
ATOM     29  H4  UNL     1      12.878 -36.060  30.952  1.00  0.00     0.213 HD
ENDBRANCH   4  28
BRANCH   4  30
HETATM   30  C9  UNL     1      11.828 -38.623  30.931  1.00  0.00     0.242 C 
HETATM   31  O5  UNL     1      10.618 -38.372  30.822  1.00  0.00    -0.644 OA
HETATM   32  O6  UNL     1      12.165 -39.750  31.737  1.00  0.00    -0.644 OA
ENDBRANCH   4  30
TORSDOF 6
ENDMDL
MODEL 5
REMARK VINA RESULT: -5.535917253      3.080      7.983
REMARK  6 active torsions:
REMARK  status: ('A' for Active; 'I' for Inactive)
REMARK    1  A    between atoms: N1_1  and  C1_4 
REMARK    2  A    between atoms: N2_7  and  C4_8 
REMARK    3  A    between atoms: C5_10  and  C6_11 
REMARK       I    between atoms: C6_11  and  N3_13 
REMARK       I    between atoms: N3_13  and  C7_15 
REMARK       I    between atoms: C7_15  and  N4_17 
REMARK    4  A    between atoms: N4_17  and  N5_19 
REMARK    5  A    between atoms: C8_22  and  O4_23 
REMARK    6  A    between atoms: C8_22  and  C9_25 
ROOT
HETATM    1  C4  UNL     1      20.972 -37.945  32.205  1.00  0.00     0.385 C 
HETATM    2  O1  UNL     1      22.103 -37.184  32.056  1.00  0.00    -0.322 OA
HETATM    3  C5  UNL     1      23.046 -37.784  32.873  1.00  0.00     0.292 C 
HETATM    4  C8  UNL     1      22.198 -38.593  33.819  1.00  0.00     0.293 C 
HETATM    5  O7  UNL     1      20.932 -38.050  33.612  1.00  0.00    -0.294 OA
ENDROOT
BRANCH   1   6
HETATM    6  N2  UNL     1      19.762 -37.396  31.684  1.00  0.00    -0.259 N 
HETATM    7  C3  UNL     1      19.233 -36.214  32.039  1.00  0.00     0.104 A 
HETATM    8  C2  UNL     1      18.044 -35.721  31.483  1.00  0.00     0.065 A 
HETATM    9  C1  UNL     1      17.376 -36.473  30.527  1.00  0.00     0.103 A 
HETATM   10  N6  UNL     1      17.942 -37.660  30.197  1.00  0.00    -0.295 N 
HETATM   11  C10 UNL     1      19.081 -38.112  30.742  1.00  0.00     0.331 A 
ATOM     12  H6  UNL     1      17.478 -38.239  29.497  1.00  0.00     0.172 HD
HETATM   13  O8  UNL     1      19.558 -39.223  30.395  1.00  0.00    -0.246 OA
BRANCH   9  14
HETATM   14  N1  UNL     1      16.289 -36.074  29.972  1.00  0.00    -0.385 N 
ATOM     15  H12 UNL     1      15.421 -36.603  30.060  1.00  0.00     0.157 HD
ATOM     16  H11 UNL     1      16.241 -35.221  29.414  1.00  0.00     0.157 HD
ENDBRANCH   9  14
ENDBRANCH   1   6
BRANCH   3  17
HETATM   17  C6  UNL     1      23.965 -36.885  33.464  1.00  0.00     0.261 C 
HETATM   18  O2  UNL     1      25.102 -36.861  33.710  1.00  0.00    -0.270 OA
HETATM   19  N3  UNL     1      23.185 -35.429  33.954  1.00  0.00    -0.276 N 
HETATM   20  C7  UNL     1      24.257 -34.774  34.513  1.00  0.00     0.341 C 
ATOM     21  H3  UNL     1      22.212 -35.138  33.859  1.00  0.00     0.173 HD
HETATM   22  O3  UNL     1      25.446 -35.291  34.576  1.00  0.00    -0.245 OA
HETATM   23  N4  UNL     1      24.198 -33.480  35.072  1.00  0.00    -0.258 N 
ATOM     24  H4  UNL     1      23.308 -32.981  35.068  1.00  0.00     0.191 HD
BRANCH  23  25
HETATM   25  N5  UNL     1      25.322 -32.856  35.633  1.00  0.00    -0.341 N 
ATOM     26  H52 UNL     1      25.775 -32.115  35.096  1.00  0.00     0.177 HD
ATOM     27  H51 UNL     1      25.691 -33.119  36.547  1.00  0.00     0.177 HD
ENDBRANCH  23  25
ENDBRANCH   3  17
BRANCH   4  28
HETATM   28  O4  UNL     1      22.135 -39.910  33.300  1.00  0.00    -0.355 OA
ATOM     29  H4  UNL     1      21.233 -40.199  33.377  1.00  0.00     0.213 HD
ENDBRANCH   4  28
BRANCH   4  30
HETATM   30  C9  UNL     1      22.643 -38.679  35.191  1.00  0.00     0.242 C 
HETATM   31  O5  UNL     1      23.371 -39.567  35.661  1.00  0.00    -0.644 OA
HETATM   32  O6  UNL     1      22.222 -37.665  36.102  1.00  0.00    -0.644 OA
ENDBRANCH   4  30
TORSDOF 6
ENDMDL
