MODEL 1
REMARK VINA RESULT: -5.569150872      0.000      0.000
REMARK  8 active torsions:
REMARK  status: ('A' for Active; 'I' for Inactive)
REMARK    1  A    between atoms: S1_2  and  C2_3 
REMARK    2  A    between atoms: C2_3  and  C3_4 
REMARK    3  A    between atoms: C3_4  and  N1_5 
REMARK    4  A    between atoms: C5_12  and  C6_13 
REMARK       I    between atoms: C6_13  and  N4_15 
REMARK    5  A    between atoms: N4_15  and  C7_17 
REMARK    6  A    between atoms: C8_19  and  N5_20 
REMARK    7  A    between atoms: C8_19  and  O3_24 
REMARK    8  A    between atoms: N7_30  and  N8_31 
ROOT
HETATM    1  N1  UNL     1      15.764 -37.334  28.841  1.00  0.00    -0.223 N 
ATOM      2  H1  UNL     1      15.258 -36.492  28.565  1.00  0.00     0.177 HD
HETATM    3  C4  UNL     1      16.740 -37.254  29.652  1.00  0.00     0.709 A 
HETATM    4  N2  UNL     1      17.450 -38.411  30.043  1.00  0.00    -0.129 N 
ATOM      5  H2  UNL     1      17.170 -39.317  29.667  1.00  0.00     0.205 HD
HETATM    6  N3  UNL     1      18.503 -38.346  30.915  1.00  0.00    -0.264 N 
ATOM      7  H3  UNL     1      18.987 -39.207  31.171  1.00  0.00     0.189 HD
HETATM    8  C5  UNL     1      18.917 -37.195  31.440  1.00  0.00     0.228 A 
HETATM    9  N7  UNL     1      18.255 -35.998  31.095  1.00  0.00    -0.165 N 
HETATM   10  N9  UNL     1      17.150 -36.017  30.188  1.00  0.00    -0.108 N 
ATOM     11  H9  UNL     1      16.669 -35.154  29.935  1.00  0.00     0.208 HD
ENDROOT
BRANCH   8  12
HETATM   12  C6  UNL     1      20.038 -37.224  32.351  1.00  0.00     0.292 C 
HETATM   13  O1  UNL     1      19.752 -37.698  33.525  1.00  0.00    -0.264 OA
HETATM   14  N4  UNL     1      21.351 -36.816  32.125  1.00  0.00    -0.320 N 
ATOM     15  H4  UNL     1      21.627 -36.437  31.220  1.00  0.00     0.166 HD
BRANCH  14  16
HETATM   16  C7  UNL     1      22.349 -36.944  33.233  1.00  0.00     0.324 C 
HETATM   17  O2  UNL     1      22.652 -35.668  33.628  1.00  0.00    -0.281 OA
HETATM   18  C8  UNL     1      24.025 -35.574  33.786  1.00  0.00     0.427 C 
HETATM   19  N6  UNL     1      24.629 -36.632  33.052  1.00  0.00    -0.278 N 
HETATM   20  C9  UNL     1      23.600 -37.555  32.728  1.00  0.00     0.272 C 
ATOM     21  H6  UNL     1      25.615 -36.713  32.804  1.00  0.00     0.169 HD
HETATM   22  O4  UNL     1      23.722 -38.641  32.147  1.00  0.00    -0.268 OA
BRANCH  18  23
HETATM   23  N5  UNL     1      24.315 -35.628  35.208  1.00  0.00    -0.001 N 
ATOM     24  H53 UNL     1      23.475 -35.712  35.781  1.00  0.00     0.283 HD
ATOM     25  H52 UNL     1      24.758 -36.504  35.488  1.00  0.00     0.283 HD
ATOM     26  H51 UNL     1      24.874 -34.809  35.446  1.00  0.00     0.283 HD
ENDBRANCH  18  23
BRANCH  18  27
HETATM   27  O3  UNL     1      24.476 -34.354  33.307  1.00  0.00    -0.326 OA
ATOM     28  H3  UNL     1      25.342 -34.453  32.927  1.00  0.00     0.216 HD
ENDBRANCH  18  27
ENDBRANCH  14  16
ENDBRANCH   8  12
BRANCH   9  29
HETATM   29  N8  UNL     1      18.604 -34.737  31.585  1.00  0.00    -0.322 N 
ATOM     30  H82 UNL     1      19.605 -34.571  31.687  1.00  0.00     0.179 HD
ATOM     31  H81 UNL     1      17.931 -34.012  31.833  1.00  0.00     0.179 HD
ENDBRANCH   9  29
BRANCH   1  32
HETATM   32  C3  UNL     1      15.372 -38.613  28.311  1.00  0.00     0.148 C 
BRANCH  32  33
HETATM   33  C2  UNL     1      13.849 -38.661  28.130  1.00  0.00     0.093 C 
BRANCH  33  34
HETATM   34  S1  UNL     1      13.135 -38.685  29.807  1.00  0.00    -0.172 SA
HETATM   35  C1  UNL     1      12.153 -37.219  30.126  1.00  0.00     0.089 C 
ENDBRANCH  33  34
ENDBRANCH  32  33
ENDBRANCH   1  32
TORSDOF 8
ENDMDL
MODEL 2
REMARK VINA RESULT: -5.548381896      1.595      1.938
REMARK  8 active torsions:
REMARK  status: ('A' for Active; 'I' for Inactive)
REMARK    1  A    between atoms: S1_2  and  C2_3 
REMARK    2  A    between atoms: C2_3  and  C3_4 
REMARK    3  A    between atoms: C3_4  and  N1_5 
REMARK    4  A    between atoms: C5_12  and  C6_13 
REMARK       I    between atoms: C6_13  and  N4_15 
REMARK    5  A    between atoms: N4_15  and  C7_17 
REMARK    6  A    between atoms: C8_19  and  N5_20 
REMARK    7  A    between atoms: C8_19  and  O3_24 
REMARK    8  A    between atoms: N7_30  and  N8_31 
ROOT
HETATM    1  N1  UNL     1      16.096 -37.804  30.506  1.00  0.00    -0.223 N 
ATOM      2  H1  UNL     1      15.298 -38.186  31.014  1.00  0.00     0.177 HD
HETATM    3  C4  UNL     1      17.228 -37.710  31.077  1.00  0.00     0.709 A 
HETATM    4  N2  UNL     1      18.343 -37.184  30.387  1.00  0.00    -0.129 N 
ATOM      5  H2  UNL     1      18.231 -36.878  29.421  1.00  0.00     0.205 HD
HETATM    6  N3  UNL     1      19.570 -37.075  30.984  1.00  0.00    -0.264 N 
ATOM      7  H3  UNL     1      20.348 -36.689  30.448  1.00  0.00     0.189 HD
HETATM    8  C5  UNL     1      19.782 -37.456  32.242  1.00  0.00     0.228 A 
HETATM    9  N7  UNL     1      18.714 -37.991  32.992  1.00  0.00    -0.165 N 
HETATM   10  N9  UNL     1      17.415 -38.124  32.411  1.00  0.00    -0.108 N 
ATOM     11  H9  UNL     1      16.640 -38.510  32.950  1.00  0.00     0.208 HD
ENDROOT
BRANCH   8  12
HETATM   12  C6  UNL     1      21.111 -37.302  32.787  1.00  0.00     0.292 C 
HETATM   13  O1  UNL     1      21.592 -38.383  33.320  1.00  0.00    -0.264 OA
HETATM   14  N4  UNL     1      21.914 -36.164  32.808  1.00  0.00    -0.320 N 
ATOM     15  H4  UNL     1      21.582 -35.288  32.403  1.00  0.00     0.166 HD
BRANCH  14  16
HETATM   16  C7  UNL     1      23.270 -36.246  33.435  1.00  0.00     0.324 C 
HETATM   17  O2  UNL     1      23.237 -35.429  34.534  1.00  0.00    -0.281 OA
HETATM   18  C8  UNL     1      24.403 -34.681  34.556  1.00  0.00     0.427 C 
HETATM   19  N6  UNL     1      24.954 -34.679  33.245  1.00  0.00    -0.278 N 
HETATM   20  C9  UNL     1      24.295 -35.702  32.514  1.00  0.00     0.272 C 
ATOM     21  H6  UNL     1      25.685 -34.060  32.895  1.00  0.00     0.169 HD
HETATM   22  O4  UNL     1      24.527 -36.064  31.354  1.00  0.00    -0.268 OA
BRANCH  18  23
HETATM   23  N5  UNL     1      25.290 -35.267  35.546  1.00  0.00    -0.001 N 
ATOM     24  H53 UNL     1      26.263 -34.991  35.418  1.00  0.00     0.283 HD
ATOM     25  H52 UNL     1      25.158 -34.872  36.478  1.00  0.00     0.283 HD
ATOM     26  H51 UNL     1      25.160 -36.278  35.524  1.00  0.00     0.283 HD
ENDBRANCH  18  23
BRANCH  18  27
HETATM   27  O3  UNL     1      24.126 -33.381  34.950  1.00  0.00    -0.326 OA
ATOM     28  H3  UNL     1      23.498 -33.383  35.663  1.00  0.00     0.216 HD
ENDBRANCH  18  27
ENDBRANCH  14  16
ENDBRANCH   8  12
BRANCH   9  29
HETATM   29  N8  UNL     1      18.822 -38.421  34.317  1.00  0.00    -0.322 N 
ATOM     30  H82 UNL     1      19.747 -38.752  34.593  1.00  0.00     0.179 HD
ATOM     31  H81 UNL     1      18.052 -38.419  34.986  1.00  0.00     0.179 HD
ENDBRANCH   9  29
BRANCH   1  32
HETATM   32  C3  UNL     1      15.940 -37.371  29.143  1.00  0.00     0.148 C 
BRANCH  32  33
HETATM   33  C2  UNL     1      14.923 -38.265  28.422  1.00  0.00     0.093 C 
BRANCH  33  34
HETATM   34  S1  UNL     1      13.608 -38.623  29.632  1.00  0.00    -0.172 SA
HETATM   35  C1  UNL     1      12.551 -37.198  29.898  1.00  0.00     0.089 C 
ENDBRANCH  33  34
ENDBRANCH  32  33
ENDBRANCH   1  32
TORSDOF 8
ENDMDL
MODEL 3
REMARK VINA RESULT: -5.498486826      1.562      2.287
REMARK  8 active torsions:
REMARK  status: ('A' for Active; 'I' for Inactive)
REMARK    1  A    between atoms: S1_2  and  C2_3 
REMARK    2  A    between atoms: C2_3  and  C3_4 
REMARK    3  A    between atoms: C3_4  and  N1_5 
REMARK    4  A    between atoms: C5_12  and  C6_13 
REMARK       I    between atoms: C6_13  and  N4_15 
REMARK    5  A    between atoms: N4_15  and  C7_17 
REMARK    6  A    between atoms: C8_19  and  N5_20 
REMARK    7  A    between atoms: C8_19  and  O3_24 
REMARK    8  A    between atoms: N7_30  and  N8_31 
ROOT
HETATM    1  N1  UNL     1      16.446 -37.723  30.019  1.00  0.00    -0.223 N 
ATOM      2  H1  UNL     1      16.220 -38.473  29.366  1.00  0.00     0.177 HD
HETATM    3  C4  UNL     1      17.590 -37.682  30.571  1.00  0.00     0.709 A 
HETATM    4  N2  UNL     1      17.919 -36.649  31.477  1.00  0.00    -0.129 N 
ATOM      5  H2  UNL     1      17.225 -35.931  31.685  1.00  0.00     0.205 HD
HETATM    6  N3  UNL     1      19.145 -36.588  32.082  1.00  0.00    -0.264 N 
ATOM      7  H3  UNL     1      19.339 -35.824  32.729  1.00  0.00     0.189 HD
HETATM    8  C5  UNL     1      20.093 -37.494  31.852  1.00  0.00     0.228 A 
HETATM    9  N7  UNL     1      19.836 -38.554  30.959  1.00  0.00    -0.165 N 
HETATM   10  N9  UNL     1      18.570 -38.660  30.304  1.00  0.00    -0.108 N 
ATOM     11  H9  UNL     1      18.380 -39.425  29.657  1.00  0.00     0.208 HD
ENDROOT
BRANCH   8  12
HETATM   12  C6  UNL     1      21.357 -37.347  32.537  1.00  0.00     0.292 C 
HETATM   13  O1  UNL     1      21.850 -38.462  32.981  1.00  0.00    -0.264 OA
HETATM   14  N4  UNL     1      22.087 -36.183  32.771  1.00  0.00    -0.320 N 
ATOM     15  H4  UNL     1      21.743 -35.281  32.443  1.00  0.00     0.166 HD
BRANCH  14  16
HETATM   16  C7  UNL     1      23.385 -36.280  33.511  1.00  0.00     0.324 C 
HETATM   17  O2  UNL     1      23.288 -35.417  34.571  1.00  0.00    -0.281 OA
HETATM   18  C8  UNL     1      24.472 -34.703  34.661  1.00  0.00     0.427 C 
HETATM   19  N6  UNL     1      25.128 -34.772  33.401  1.00  0.00    -0.278 N 
HETATM   20  C9  UNL     1      24.498 -35.805  32.659  1.00  0.00     0.272 C 
ATOM     21  H6  UNL     1      25.905 -34.189  33.089  1.00  0.00     0.169 HD
HETATM   22  O4  UNL     1      24.813 -36.221  31.536  1.00  0.00    -0.268 OA
BRANCH  18  23
HETATM   23  N5  UNL     1      25.255 -35.273  35.744  1.00  0.00    -0.001 N 
ATOM     24  H53 UNL     1      25.135 -34.773  36.625  1.00  0.00     0.283 HD
ATOM     25  H52 UNL     1      24.902 -36.179  36.052  1.00  0.00     0.283 HD
ATOM     26  H51 UNL     1      26.228 -35.311  35.440  1.00  0.00     0.283 HD
ENDBRANCH  18  23
BRANCH  18  27
HETATM   27  O3  UNL     1      24.206 -33.380  34.980  1.00  0.00    -0.326 OA
ATOM     28  H3  UNL     1      23.690 -32.977  34.291  1.00  0.00     0.216 HD
ENDBRANCH  18  27
ENDBRANCH  14  16
ENDBRANCH   8  12
BRANCH   9  29
HETATM   29  N8  UNL     1      20.756 -39.558  30.645  1.00  0.00    -0.322 N 
ATOM     30  H82 UNL     1      21.612 -39.554  31.200  1.00  0.00     0.179 HD
ATOM     31  H81 UNL     1      20.614 -40.259  29.918  1.00  0.00     0.179 HD
ENDBRANCH   9  29
BRANCH   1  32
HETATM   32  C3  UNL     1      15.468 -36.709  30.314  1.00  0.00     0.148 C 
BRANCH  32  33
HETATM   33  C2  UNL     1      14.055 -37.297  30.210  1.00  0.00     0.093 C 
BRANCH  33  34
HETATM   34  S1  UNL     1      13.985 -38.181  28.618  1.00  0.00    -0.172 SA
HETATM   35  C1  UNL     1      12.882 -39.593  28.695  1.00  0.00     0.089 C 
ENDBRANCH  33  34
ENDBRANCH  32  33
ENDBRANCH   1  32
TORSDOF 8
ENDMDL
MODEL 4
REMARK VINA RESULT: -5.467888686      1.746      2.345
REMARK  8 active torsions:
REMARK  status: ('A' for Active; 'I' for Inactive)
REMARK    1  A    between atoms: S1_2  and  C2_3 
REMARK    2  A    between atoms: C2_3  and  C3_4 
REMARK    3  A    between atoms: C3_4  and  N1_5 
REMARK    4  A    between atoms: C5_12  and  C6_13 
REMARK       I    between atoms: C6_13  and  N4_15 
REMARK    5  A    between atoms: N4_15  and  C7_17 
REMARK    6  A    between atoms: C8_19  and  N5_20 
REMARK    7  A    between atoms: C8_19  and  O3_24 
REMARK    8  A    between atoms: N7_30  and  N8_31 
ROOT
HETATM    1  N1  UNL     1      16.116 -37.785  30.569  1.00  0.00    -0.223 N 
ATOM      2  H1  UNL     1      15.316 -38.157  31.081  1.00  0.00     0.177 HD
HETATM    3  C4  UNL     1      17.249 -37.691  31.139  1.00  0.00     0.709 A 
HETATM    4  N2  UNL     1      18.367 -37.179  30.443  1.00  0.00    -0.129 N 
ATOM      5  H2  UNL     1      18.256 -36.883  29.474  1.00  0.00     0.205 HD
HETATM    6  N3  UNL     1      19.594 -37.070  31.039  1.00  0.00    -0.264 N 
ATOM      7  H3  UNL     1      20.374 -36.695  30.499  1.00  0.00     0.189 HD
HETATM    8  C5  UNL     1      19.803 -37.439  32.301  1.00  0.00     0.228 A 
HETATM    9  N7  UNL     1      18.733 -37.960  33.058  1.00  0.00    -0.165 N 
HETATM   10  N9  UNL     1      17.433 -38.092  32.478  1.00  0.00    -0.108 N 
ATOM     11  H9  UNL     1      16.656 -38.467  33.021  1.00  0.00     0.208 HD
ENDROOT
BRANCH   8  12
HETATM   12  C6  UNL     1      21.133 -37.286  32.845  1.00  0.00     0.292 C 
HETATM   13  O1  UNL     1      21.585 -38.346  33.443  1.00  0.00    -0.264 OA
HETATM   14  N4  UNL     1      21.964 -36.169  32.805  1.00  0.00    -0.320 N 
ATOM     15  H4  UNL     1      21.657 -35.310  32.347  1.00  0.00     0.166 HD
BRANCH  14  16
HETATM   16  C7  UNL     1      23.316 -36.248  33.444  1.00  0.00     0.324 C 
HETATM   17  O2  UNL     1      23.273 -35.426  34.539  1.00  0.00    -0.281 OA
HETATM   18  C8  UNL     1      24.439 -34.678  34.568  1.00  0.00     0.427 C 
HETATM   19  N6  UNL     1      25.001 -34.682  33.261  1.00  0.00    -0.278 N 
HETATM   20  C9  UNL     1      24.348 -35.708  32.530  1.00  0.00     0.272 C 
ATOM     21  H6  UNL     1      25.734 -34.064  32.915  1.00  0.00     0.169 HD
HETATM   22  O4  UNL     1      24.590 -36.075  31.373  1.00  0.00    -0.268 OA
BRANCH  18  23
HETATM   23  N5  UNL     1      25.316 -35.258  35.569  1.00  0.00    -0.001 N 
ATOM     24  H53 UNL     1      24.830 -35.489  36.435  1.00  0.00     0.283 HD
ATOM     25  H52 UNL     1      25.620 -36.202  35.328  1.00  0.00     0.283 HD
ATOM     26  H51 UNL     1      26.096 -34.617  35.712  1.00  0.00     0.283 HD
ENDBRANCH  18  23
BRANCH  18  27
HETATM   27  O3  UNL     1      24.158 -33.375  34.953  1.00  0.00    -0.326 OA
ATOM     28  H3  UNL     1      24.306 -32.782  34.226  1.00  0.00     0.216 HD
ENDBRANCH  18  27
ENDBRANCH  14  16
ENDBRANCH   8  12
BRANCH   9  29
HETATM   29  N8  UNL     1      18.839 -38.376  34.386  1.00  0.00    -0.322 N 
ATOM     30  H82 UNL     1      19.163 -37.665  35.042  1.00  0.00     0.179 HD
ATOM     31  H81 UNL     1      18.617 -39.317  34.712  1.00  0.00     0.179 HD
ENDBRANCH   9  29
BRANCH   1  32
HETATM   32  C3  UNL     1      15.962 -37.366  29.201  1.00  0.00     0.148 C 
BRANCH  32  33
HETATM   33  C2  UNL     1      14.770 -38.089  28.562  1.00  0.00     0.093 C 
BRANCH  33  34
HETATM   34  S1  UNL     1      14.998 -39.863  28.916  1.00  0.00    -0.172 SA
HETATM   35  C1  UNL     1      16.548 -40.474  28.253  1.00  0.00     0.089 C 
ENDBRANCH  33  34
ENDBRANCH  32  33
ENDBRANCH   1  32
TORSDOF 8
ENDMDL
MODEL 5
REMARK VINA RESULT: -5.455535364      0.979      1.467
REMARK  8 active torsions:
REMARK  status: ('A' for Active; 'I' for Inactive)
REMARK    1  A    between atoms: S1_2  and  C2_3 
REMARK    2  A    between atoms: C2_3  and  C3_4 
REMARK    3  A    between atoms: C3_4  and  N1_5 
REMARK    4  A    between atoms: C5_12  and  C6_13 
REMARK       I    between atoms: C6_13  and  N4_15 
REMARK    5  A    between atoms: N4_15  and  C7_17 
REMARK    6  A    between atoms: C8_19  and  N5_20 
REMARK    7  A    between atoms: C8_19  and  O3_24 
REMARK    8  A    between atoms: N7_30  and  N8_31 
ROOT
HETATM    1  N1  UNL     1      15.948 -37.458  28.644  1.00  0.00    -0.223 N 
ATOM      2  H1  UNL     1      15.394 -36.634  28.410  1.00  0.00     0.177 HD
HETATM    3  C4  UNL     1      16.902 -37.367  29.480  1.00  0.00     0.709 A 
HETATM    4  N2  UNL     1      17.679 -38.499  29.815  1.00  0.00    -0.129 N 
ATOM      5  H2  UNL     1      17.466 -39.395  29.378  1.00  0.00     0.205 HD
HETATM    6  N3  UNL     1      18.710 -38.422  30.713  1.00  0.00    -0.264 N 
ATOM      7  H3  UNL     1      19.244 -39.264  30.925  1.00  0.00     0.189 HD
HETATM    8  C5  UNL     1      19.038 -37.282  31.317  1.00  0.00     0.228 A 
HETATM    9  N7  UNL     1      18.306 -36.110  31.031  1.00  0.00    -0.165 N 
HETATM   10  N9  UNL     1      17.221 -36.142  30.101  1.00  0.00    -0.108 N 
ATOM     11  H9  UNL     1      16.690 -35.298  29.891  1.00  0.00     0.208 HD
ENDROOT
BRANCH   8  12
HETATM   12  C6  UNL     1      20.141 -37.297  32.249  1.00  0.00     0.292 C 
HETATM   13  O1  UNL     1      19.855 -37.825  33.400  1.00  0.00    -0.264 OA
HETATM   14  N4  UNL     1      21.439 -36.825  32.065  1.00  0.00    -0.320 N 
ATOM     15  H4  UNL     1      21.716 -36.402  31.180  1.00  0.00     0.166 HD
BRANCH  14  16
HETATM   16  C7  UNL     1      22.422 -36.951  33.188  1.00  0.00     0.324 C 
HETATM   17  O2  UNL     1      22.689 -35.676  33.610  1.00  0.00    -0.281 OA
HETATM   18  C8  UNL     1      24.057 -35.556  33.794  1.00  0.00     0.427 C 
HETATM   19  N6  UNL     1      24.696 -36.588  33.052  1.00  0.00    -0.278 N 
HETATM   20  C9  UNL     1      23.694 -37.526  32.695  1.00  0.00     0.272 C 
ATOM     21  H6  UNL     1      25.688 -36.643  32.820  1.00  0.00     0.169 HD
HETATM   22  O4  UNL     1      23.849 -38.599  32.097  1.00  0.00    -0.268 OA
BRANCH  18  23
HETATM   23  N5  UNL     1      24.324 -35.629  35.219  1.00  0.00    -0.001 N 
ATOM     24  H53 UNL     1      23.629 -35.133  35.778  1.00  0.00     0.283 HD
ATOM     25  H52 UNL     1      24.168 -36.561  35.603  1.00  0.00     0.283 HD
ATOM     26  H51 UNL     1      25.273 -35.290  35.378  1.00  0.00     0.283 HD
ENDBRANCH  18  23
BRANCH  18  27
HETATM   27  O3  UNL     1      24.490 -34.318  33.343  1.00  0.00    -0.326 OA
ATOM     28  H3  UNL     1      25.090 -33.933  33.972  1.00  0.00     0.216 HD
ENDBRANCH  18  27
ENDBRANCH  14  16
ENDBRANCH   8  12
BRANCH   9  29
HETATM   29  N8  UNL     1      18.563 -34.863  31.606  1.00  0.00    -0.322 N 
ATOM     30  H82 UNL     1      18.044 -34.083  31.204  1.00  0.00     0.179 HD
ATOM     31  H81 UNL     1      19.218 -34.709  32.373  1.00  0.00     0.179 HD
ENDBRANCH   9  29
BRANCH   1  32
HETATM   32  C3  UNL     1      15.650 -38.723  28.028  1.00  0.00     0.148 C 
BRANCH  32  33
HETATM   33  C2  UNL     1      14.333 -39.279  28.583  1.00  0.00     0.093 C 
BRANCH  33  34
HETATM   34  S1  UNL     1      14.532 -41.090  28.654  1.00  0.00    -0.172 SA
HETATM   35  C1  UNL     1      16.227 -41.580  28.333  1.00  0.00     0.089 C 
ENDBRANCH  33  34
ENDBRANCH  32  33
ENDBRANCH   1  32
TORSDOF 8
ENDMDL
