MODEL 1
REMARK VINA RESULT: -6.808677449      0.000      0.000
REMARK  2 active torsions:
REMARK  status: ('A' for Active; 'I' for Inactive)
REMARK    1  A    between atoms: C5_6  and  N2_7 
REMARK    2  A    between atoms: C8_14  and  C9_15 
ROOT
HETATM    1  C1  UNL     1      10.427 -20.817 -13.215  1.00  0.00     0.012 C 
HETATM    2  C2  UNL     1      10.752 -22.031 -12.413  1.00  0.00     0.019 C 
HETATM    3  C3  UNL     1      12.226 -21.950 -11.982  1.00  0.00     0.129 C 
HETATM    4  C4  UNL     1      12.994 -21.905 -13.238  1.00  0.00     0.066 C 
HETATM    5  N1  UNL     1      13.599 -21.888 -14.230  1.00  0.00    -0.197 NA
HETATM    6  C5  UNL     1      12.503 -23.275 -11.338  1.00  0.00     0.219 C 
HETATM    7  C6  UNL     1      11.693 -23.564 -10.129  1.00  0.00     0.134 C 
HETATM    8  C7  UNL     1      11.876 -24.992  -9.839  1.00  0.00     0.067 C 
HETATM    9  N3  UNL     1      12.025 -26.128  -9.593  1.00  0.00    -0.197 NA
HETATM   10  C8  UNL     1      10.233 -23.208 -10.253  1.00  0.00     0.056 C 
HETATM   11  C15 UNL     1       9.999 -21.978 -11.098  1.00  0.00     0.107 C 
HETATM   12  C16 UNL     1       8.568 -21.950 -11.446  1.00  0.00     0.065 C 
HETATM   13  N4  UNL     1       7.444 -21.920 -11.723  1.00  0.00    -0.197 NA
ENDROOT
BRANCH   6  14
HETATM   14  N2  UNL     1      13.899 -23.469 -11.029  1.00  0.00    -0.072 N 
ATOM     15  H23 UNL     1      14.350 -24.056 -11.731  1.00  0.00     0.274 HD
ATOM     16  H22 UNL     1      14.426 -22.607 -11.169  1.00  0.00     0.274 HD
ATOM     17  H21 UNL     1      14.049 -23.841 -10.091  1.00  0.00     0.274 HD
ENDBRANCH   6  14
BRANCH  10  18
HETATM   18  C9  UNL     1       9.558 -23.041  -8.970  1.00  0.00    -0.051 A 
HETATM   19  C10 UNL     1       8.413 -23.739  -8.646  1.00  0.00     0.009 A 
HETATM   20  C11 UNL     1       7.784 -23.561  -7.409  1.00  0.00     0.024 A 
HETATM   21  C12 UNL     1       8.291 -22.681  -6.475  1.00  0.00     0.034 A 
HETATM   22 CL1  UNL     1       7.480 -22.472  -4.915  1.00  0.00    -0.084 Cl
HETATM   23  C13 UNL     1       9.427 -21.990  -6.795  1.00  0.00     0.024 A 
HETATM   24  C14 UNL     1      10.042 -22.170  -8.018  1.00  0.00     0.009 A 
ENDBRANCH  10  18
TORSDOF 2
ENDMDL
MODEL 2
REMARK VINA RESULT: -6.774456968      0.052      1.027
REMARK  2 active torsions:
REMARK  status: ('A' for Active; 'I' for Inactive)
REMARK    1  A    between atoms: C5_6  and  N2_7 
REMARK    2  A    between atoms: C8_14  and  C9_15 
ROOT
HETATM    1  C1  UNL     1      10.400 -20.873 -13.250  1.00  0.00     0.012 C 
HETATM    2  C2  UNL     1      10.731 -22.073 -12.430  1.00  0.00     0.019 C 
HETATM    3  C3  UNL     1      12.212 -21.992 -12.024  1.00  0.00     0.129 C 
HETATM    4  C4  UNL     1      12.960 -21.976 -13.292  1.00  0.00     0.066 C 
HETATM    5  N1  UNL     1      13.550 -21.981 -14.294  1.00  0.00    -0.197 NA
HETATM    6  C5  UNL     1      12.492 -23.306 -11.359  1.00  0.00     0.219 C 
HETATM    7  C6  UNL     1      11.700 -23.566 -10.132  1.00  0.00     0.134 C 
HETATM    8  C7  UNL     1      11.881 -24.989  -9.817  1.00  0.00     0.067 C 
HETATM    9  N3  UNL     1      12.027 -26.122  -9.551  1.00  0.00    -0.197 NA
HETATM   10  C8  UNL     1      10.240 -23.205 -10.240  1.00  0.00     0.056 C 
HETATM   11  C15 UNL     1      10.000 -21.990 -11.105  1.00  0.00     0.107 C 
HETATM   12  C16 UNL     1       8.564 -21.961 -11.431  1.00  0.00     0.065 C 
HETATM   13  N4  UNL     1       7.435 -21.931 -11.691  1.00  0.00    -0.197 NA
ENDROOT
BRANCH   6  14
HETATM   14  N2  UNL     1      13.892 -23.501 -11.068  1.00  0.00    -0.072 N 
ATOM     15  H23 UNL     1      14.361 -23.978 -11.838  1.00  0.00     0.274 HD
ATOM     16  H22 UNL     1      14.396 -22.614 -11.089  1.00  0.00     0.274 HD
ATOM     17  H21 UNL     1      14.050 -23.989 -10.187  1.00  0.00     0.274 HD
ENDBRANCH   6  14
BRANCH  10  18
HETATM   18  C9  UNL     1       9.587 -23.009  -8.950  1.00  0.00    -0.051 A 
HETATM   19  C10 UNL     1      10.071 -22.124  -8.009  1.00  0.00     0.009 A 
HETATM   20  C11 UNL     1       9.426 -21.954  -6.779  1.00  0.00     0.024 A 
HETATM   21  C12 UNL     1       8.286 -22.666  -6.470  1.00  0.00     0.034 A 
HETATM   22 CL1  UNL     1       7.485 -22.434  -4.907  1.00  0.00    -0.084 Cl
HETATM   23  C13 UNL     1       7.805 -23.543  -7.403  1.00  0.00     0.024 A 
HETATM   24  C14 UNL     1       8.447 -23.707  -8.614  1.00  0.00     0.009 A 
ENDBRANCH  10  18
TORSDOF 2
ENDMDL
MODEL 3
REMARK VINA RESULT: -6.674898029      1.142      1.228
REMARK  2 active torsions:
REMARK  status: ('A' for Active; 'I' for Inactive)
REMARK    1  A    between atoms: C5_6  and  N2_7 
REMARK    2  A    between atoms: C8_14  and  C9_15 
ROOT
HETATM    1  C1  UNL     1       8.922 -21.945 -13.152  1.00  0.00     0.012 C 
HETATM    2  C2  UNL     1       9.679 -22.749 -12.152  1.00  0.00     0.019 C 
HETATM    3  C3  UNL     1      11.153 -22.312 -12.192  1.00  0.00     0.129 C 
HETATM    4  C4  UNL     1      11.602 -22.590 -13.566  1.00  0.00     0.066 C 
HETATM    5  N1  UNL     1      11.959 -22.827 -14.647  1.00  0.00    -0.197 NA
HETATM    6  C5  UNL     1      11.857 -23.281 -11.289  1.00  0.00     0.219 C 
HETATM    7  C6  UNL     1      11.414 -23.251  -9.873  1.00  0.00     0.134 C 
HETATM    8  C7  UNL     1      11.976 -24.450  -9.239  1.00  0.00     0.067 C 
HETATM    9  N3  UNL     1      12.429 -25.399  -8.721  1.00  0.00    -0.197 NA
HETATM   10  C8  UNL     1       9.920 -23.176  -9.686  1.00  0.00     0.056 C 
HETATM   11  C15 UNL     1       9.235 -22.358 -10.756  1.00  0.00     0.107 C 
HETATM   12  C16 UNL     1       7.795 -22.660 -10.685  1.00  0.00     0.065 C 
HETATM   13  N4  UNL     1       6.662 -22.890 -10.634  1.00  0.00    -0.197 NA
ENDROOT
BRANCH   6  14
HETATM   14  N2  UNL     1      13.293 -23.151 -11.338  1.00  0.00    -0.072 N 
ATOM     15  H23 UNL     1      13.565 -22.235 -11.695  1.00  0.00     0.274 HD
ATOM     16  H22 UNL     1      13.685 -23.086 -10.398  1.00  0.00     0.274 HD
ATOM     17  H21 UNL     1      13.741 -23.898 -11.869  1.00  0.00     0.274 HD
ENDBRANCH   6  14
BRANCH  10  18
HETATM   18  C9  UNL     1       9.517 -22.678  -8.375  1.00  0.00    -0.051 A 
HETATM   19  C10 UNL     1       8.566 -23.318  -7.607  1.00  0.00     0.009 A 
HETATM   20  C11 UNL     1       8.197 -22.821  -6.352  1.00  0.00     0.024 A 
HETATM   21  C12 UNL     1       8.773 -21.675  -5.845  1.00  0.00     0.034 A 
HETATM   22 CL1  UNL     1       8.292 -21.063  -4.254  1.00  0.00    -0.084 Cl
HETATM   23  C13 UNL     1       9.717 -21.040  -6.605  1.00  0.00     0.024 A 
HETATM   24  C14 UNL     1      10.076 -21.536  -7.843  1.00  0.00     0.009 A 
ENDBRANCH  10  18
TORSDOF 2
ENDMDL
MODEL 4
REMARK VINA RESULT: -6.635606120      1.772      3.732
REMARK  2 active torsions:
REMARK  status: ('A' for Active; 'I' for Inactive)
REMARK    1  A    between atoms: C5_6  and  N2_7 
REMARK    2  A    between atoms: C8_14  and  C9_15 
ROOT
HETATM    1  C1  UNL     1      11.411 -26.145 -12.026  1.00  0.00     0.012 C 
HETATM    2  C2  UNL     1      11.139 -24.695 -11.811  1.00  0.00     0.019 C 
HETATM    3  C3  UNL     1      10.015 -24.263 -12.767  1.00  0.00     0.129 C 
HETATM    4  C4  UNL     1      10.536 -24.525 -14.119  1.00  0.00     0.066 C 
HETATM    5  N1  UNL     1      10.956 -24.716 -15.186  1.00  0.00    -0.197 NA
HETATM    6  C5  UNL     1       9.933 -22.775 -12.603  1.00  0.00     0.219 C 
HETATM    7  C6  UNL     1       9.568 -22.316 -11.240  1.00  0.00     0.134 C 
HETATM    8  C7  UNL     1       9.842 -20.874 -11.202  1.00  0.00     0.067 C 
HETATM    9  N3  UNL     1      10.047 -19.720 -11.165  1.00  0.00    -0.197 NA
HETATM   10  C8  UNL     1      10.277 -23.042 -10.124  1.00  0.00     0.056 C 
HETATM   11  C15 UNL     1      10.526 -24.499 -10.439  1.00  0.00     0.107 C 
HETATM   12  C16 UNL     1      11.521 -24.992  -9.471  1.00  0.00     0.065 C 
HETATM   13  N4  UNL     1      12.302 -25.388  -8.713  1.00  0.00    -0.197 NA
ENDROOT
BRANCH   6  14
HETATM   14  N2  UNL     1       9.053 -22.152 -13.562  1.00  0.00    -0.072 N 
ATOM     15  H23 UNL     1       8.334 -21.600 -13.092  1.00  0.00     0.274 HD
ATOM     16  H22 UNL     1       9.532 -21.406 -14.066  1.00  0.00     0.274 HD
ATOM     17  H21 UNL     1       8.635 -22.820 -14.209  1.00  0.00     0.274 HD
ENDBRANCH   6  14
BRANCH  10  18
HETATM   18  C9  UNL     1       9.600 -22.941  -8.836  1.00  0.00    -0.051 A 
HETATM   19  C10 UNL     1      10.140 -22.243  -7.775  1.00  0.00     0.009 A 
HETATM   20  C11 UNL     1       9.471 -22.162  -6.549  1.00  0.00     0.024 A 
HETATM   21  C12 UNL     1       8.251 -22.776  -6.364  1.00  0.00     0.034 A 
HETATM   22 CL1  UNL     1       7.421 -22.659  -4.803  1.00  0.00    -0.084 Cl
HETATM   23  C13 UNL     1       7.714 -23.468  -7.414  1.00  0.00     0.024 A 
HETATM   24  C14 UNL     1       8.380 -23.545  -8.622  1.00  0.00     0.009 A 
ENDBRANCH  10  18
TORSDOF 2
ENDMDL
MODEL 5
REMARK VINA RESULT: -6.614001337      3.122      4.929
REMARK  2 active torsions:
REMARK  status: ('A' for Active; 'I' for Inactive)
REMARK    1  A    between atoms: C5_6  and  N2_7 
REMARK    2  A    between atoms: C8_14  and  C9_15 
ROOT
HETATM    1  C1  UNL     1       5.756 -23.906  -8.147  1.00  0.00     0.012 C 
HETATM    2  C2  UNL     1       7.226 -24.118  -8.272  1.00  0.00     0.019 C 
HETATM    3  C3  UNL     1       7.639 -23.823  -9.723  1.00  0.00     0.129 C 
HETATM    4  C4  UNL     1       6.878 -24.780 -10.544  1.00  0.00     0.066 C 
HETATM    5  N1  UNL     1       6.290 -25.548 -11.189  1.00  0.00    -0.197 NA
HETATM    6  C5  UNL     1       9.081 -24.225  -9.793  1.00  0.00     0.219 C 
HETATM    7  C6  UNL     1       9.987 -23.461  -8.900  1.00  0.00     0.134 C 
HETATM    8  C7  UNL     1      11.260 -24.192  -8.879  1.00  0.00     0.067 C 
HETATM    9  N3  UNL     1      12.285 -24.762  -8.865  1.00  0.00    -0.197 NA
HETATM   10  C8  UNL     1       9.454 -23.240  -7.507  1.00  0.00     0.056 C 
HETATM   11  C15 UNL     1       7.955 -23.054  -7.476  1.00  0.00     0.107 C 
HETATM   12  C16 UNL     1       7.521 -23.219  -6.078  1.00  0.00     0.065 C 
HETATM   13  N4  UNL     1       7.172 -23.345  -4.981  1.00  0.00    -0.197 NA
ENDROOT
BRANCH   6  14
HETATM   14  N2  UNL     1       9.608 -24.197 -11.136  1.00  0.00    -0.072 N 
ATOM     15  H23 UNL     1       8.873 -23.981 -11.811  1.00  0.00     0.274 HD
ATOM     16  H22 UNL     1      10.206 -23.383 -11.276  1.00  0.00     0.274 HD
ATOM     17  H21 UNL     1      10.095 -25.056 -11.390  1.00  0.00     0.274 HD
ENDBRANCH   6  14
BRANCH  10  18
HETATM   18  C9  UNL     1      10.087 -22.129  -6.806  1.00  0.00    -0.051 A 
HETATM   19  C10 UNL     1      11.457 -21.961  -6.780  1.00  0.00     0.009 A 
HETATM   20  C11 UNL     1      12.040 -20.887  -6.100  1.00  0.00     0.024 A 
HETATM   21  C12 UNL     1      11.263 -19.962  -5.434  1.00  0.00     0.034 A 
HETATM   22 CL1  UNL     1      12.022 -18.609  -4.580  1.00  0.00    -0.084 Cl
HETATM   23  C13 UNL     1       9.906 -20.127  -5.459  1.00  0.00     0.024 A 
HETATM   24  C14 UNL     1       9.336 -21.190  -6.132  1.00  0.00     0.009 A 
ENDBRANCH  10  18
TORSDOF 2
ENDMDL
