MODEL 1
REMARK VINA RESULT: -6.733828831      0.000      0.000
REMARK  2 active torsions:
REMARK  status: ('A' for Active; 'I' for Inactive)
REMARK    1  A    between atoms: C3_6  and  N3_7 
REMARK    2  A    between atoms: N3_7  and  C4_9 
ROOT
HETATM    1  N1  UNL     1      10.283  -9.409  -5.590  1.00  0.00    -0.190 NA
HETATM    2  C1  UNL     1      11.444  -9.494  -5.764  1.00  0.00     0.120 C 
HETATM    3  C2  UNL     1      12.893  -9.602  -5.996  1.00  0.00     0.144 A 
HETATM    4  N2  UNL     1      13.495  -9.068  -7.018  1.00  0.00    -0.326 N 
ATOM      5  H2  UNL     1      12.969  -8.539  -7.713  1.00  0.00     0.169 HD
HETATM    6  C3  UNL     1      14.815  -9.223  -7.139  1.00  0.00     0.151 A 
HETATM    7  S2  UNL     1      15.223 -10.151  -5.772  1.00  0.00    -0.039 SA
HETATM    8  C10 UNL     1      13.659 -10.299  -5.097  1.00  0.00     0.115 A 
HETATM    9 CL1  UNL     1      13.154 -11.139  -3.618  1.00  0.00    -0.073 Cl
ENDROOT
BRANCH   6  10
HETATM   10  N3  UNL     1      15.608  -8.770  -8.083  1.00  0.00    -0.345 N 
ATOM     11  H3  UNL     1      16.502  -9.215  -8.295  1.00  0.00     0.167 HD
BRANCH  10  12
HETATM   12  C4  UNL     1      15.149  -7.616  -8.799  1.00  0.00     0.112 C 
HETATM   13  C5  UNL     1      14.735  -7.656 -10.032  1.00  0.00     0.061 C 
HETATM   14  S1  UNL     1      14.719  -9.186 -10.922  1.00  0.00    -0.125 SA
HETATM   15  C9  UNL     1      14.285  -6.470 -10.705  1.00  0.00     0.167 C 
HETATM   16  C6  UNL     1      13.550  -8.915 -12.286  1.00  0.00     0.080 C 
HETATM   17  C7  UNL     1      13.674  -7.560 -12.870  1.00  0.00     0.018 C 
HETATM   18  C8  UNL     1      13.493  -6.425 -11.919  1.00  0.00     0.085 C 
HETATM   19  O1  UNL     1      14.620  -5.359 -10.170  1.00  0.00    -0.292 OA
ENDBRANCH  10  12
ENDBRANCH   6  10
TORSDOF 2
ENDMDL
MODEL 2
REMARK VINA RESULT: -6.563765336      3.640      6.465
REMARK  2 active torsions:
REMARK  status: ('A' for Active; 'I' for Inactive)
REMARK    1  A    between atoms: C3_6  and  N3_7 
REMARK    2  A    between atoms: N3_7  and  C4_9 
ROOT
HETATM    1  N1  UNL     1      12.364 -11.030 -12.236  1.00  0.00    -0.190 NA
HETATM    2  C1  UNL     1      12.835 -10.141 -11.625  1.00  0.00     0.120 C 
HETATM    3  C2  UNL     1      13.412  -9.031 -10.852  1.00  0.00     0.144 A 
HETATM    4  N2  UNL     1      13.505  -9.035  -9.555  1.00  0.00    -0.326 N 
ATOM      5  H2  UNL     1      13.171  -9.832  -9.013  1.00  0.00     0.169 HD
HETATM    6  C3  UNL     1      14.045  -7.978  -8.946  1.00  0.00     0.151 A 
HETATM    7  S2  UNL     1      14.436  -6.944 -10.239  1.00  0.00    -0.039 SA
HETATM    8  C10 UNL     1      13.881  -7.928 -11.521  1.00  0.00     0.115 A 
HETATM    9 CL1  UNL     1      13.901  -7.611 -13.267  1.00  0.00    -0.073 Cl
ENDROOT
BRANCH   6  10
HETATM   10  N3  UNL     1      14.231  -7.781  -7.660  1.00  0.00    -0.345 N 
ATOM     11  H3  UNL     1      15.014  -7.231  -7.307  1.00  0.00     0.167 HD
BRANCH  10  12
HETATM   12  C4  UNL     1      13.272  -8.384  -6.781  1.00  0.00     0.112 C 
HETATM   13  C5  UNL     1      13.550  -9.381  -5.992  1.00  0.00     0.061 C 
HETATM   14  S1  UNL     1      15.181 -10.071  -5.963  1.00  0.00    -0.125 SA
HETATM   15  C9  UNL     1      12.554  -9.949  -5.130  1.00  0.00     0.167 C 
HETATM   16  C6  UNL     1      15.283 -10.948  -4.375  1.00  0.00     0.080 C 
HETATM   17  C7  UNL     1      14.024 -11.653  -4.042  1.00  0.00     0.018 C 
HETATM   18  C8  UNL     1      12.800 -10.802  -3.983  1.00  0.00     0.085 C 
HETATM   19  O1  UNL     1      11.339  -9.668  -5.413  1.00  0.00    -0.292 OA
ENDBRANCH  10  12
ENDBRANCH   6  10
TORSDOF 2
ENDMDL
MODEL 3
REMARK VINA RESULT: -6.450576338      3.556      6.668
REMARK  2 active torsions:
REMARK  status: ('A' for Active; 'I' for Inactive)
REMARK    1  A    between atoms: C3_6  and  N3_7 
REMARK    2  A    between atoms: N3_7  and  C4_9 
ROOT
HETATM    1  N1  UNL     1      13.982  -4.203 -11.929  1.00  0.00    -0.190 NA
HETATM    2  C1  UNL     1      14.029  -5.175 -11.267  1.00  0.00     0.120 C 
HETATM    3  C2  UNL     1      14.101  -6.385 -10.433  1.00  0.00     0.144 A 
HETATM    4  N2  UNL     1      14.344  -6.359  -9.155  1.00  0.00    -0.326 N 
ATOM      5  H2  UNL     1      14.497  -5.473  -8.673  1.00  0.00     0.169 HD
HETATM    6  C3  UNL     1      14.390  -7.512  -8.486  1.00  0.00     0.151 A 
HETATM    7  S2  UNL     1      14.080  -8.672  -9.693  1.00  0.00    -0.039 SA
HETATM    8  C10 UNL     1      13.904  -7.609 -11.019  1.00  0.00     0.115 A 
HETATM    9 CL1  UNL     1      13.558  -7.987 -12.718  1.00  0.00    -0.073 Cl
ENDROOT
BRANCH   6  10
HETATM   10  N3  UNL     1      14.617  -7.708  -7.207  1.00  0.00    -0.345 N 
ATOM     11  H3  UNL     1      15.498  -7.440  -6.770  1.00  0.00     0.167 HD
BRANCH  10  12
HETATM   12  C4  UNL     1      13.556  -8.319  -6.461  1.00  0.00     0.112 C 
HETATM   13  C5  UNL     1      13.707  -9.404  -5.758  1.00  0.00     0.061 C 
HETATM   14  S1  UNL     1      15.281 -10.211  -5.685  1.00  0.00    -0.125 SA
HETATM   15  C9  UNL     1      12.612  -9.977  -5.028  1.00  0.00     0.167 C 
HETATM   16  C6  UNL     1      15.205 -11.239  -4.190  1.00  0.00     0.080 C 
HETATM   17  C7  UNL     1      13.881 -11.879  -4.016  1.00  0.00     0.018 C 
HETATM   18  C8  UNL     1      12.714 -10.950  -3.957  1.00  0.00     0.085 C 
HETATM   19  O1  UNL     1      11.444  -9.582  -5.364  1.00  0.00    -0.292 OA
ENDBRANCH  10  12
ENDBRANCH   6  10
TORSDOF 2
ENDMDL
MODEL 4
REMARK VINA RESULT: -6.360470094      1.648      1.969
REMARK  2 active torsions:
REMARK  status: ('A' for Active; 'I' for Inactive)
REMARK    1  A    between atoms: C3_6  and  N3_7 
REMARK    2  A    between atoms: N3_7  and  C4_9 
ROOT
HETATM    1  N1  UNL     1      10.348  -9.393  -5.674  1.00  0.00    -0.190 NA
HETATM    2  C1  UNL     1      11.510  -9.495  -5.827  1.00  0.00     0.120 C 
HETATM    3  C2  UNL     1      12.961  -9.627  -6.032  1.00  0.00     0.144 A 
HETATM    4  N2  UNL     1      13.586  -9.129  -7.060  1.00  0.00    -0.326 N 
ATOM      5  H2  UNL     1      13.076  -8.616  -7.779  1.00  0.00     0.169 HD
HETATM    6  C3  UNL     1      14.905  -9.303  -7.155  1.00  0.00     0.151 A 
HETATM    7  S2  UNL     1      15.281 -10.194  -5.755  1.00  0.00    -0.039 SA
HETATM    8  C10 UNL     1      13.706 -10.305  -5.101  1.00  0.00     0.115 A 
HETATM    9 CL1  UNL     1      13.167 -11.094  -3.606  1.00  0.00    -0.073 Cl
ENDROOT
BRANCH   6  10
HETATM   10  N3  UNL     1      15.718  -8.887  -8.099  1.00  0.00    -0.345 N 
ATOM     11  H3  UNL     1      16.450  -8.201  -7.916  1.00  0.00     0.167 HD
BRANCH  10  12
HETATM   12  C4  UNL     1      15.520  -9.453  -9.402  1.00  0.00     0.112 C 
HETATM   13  C5  UNL     1      15.020  -8.788 -10.403  1.00  0.00     0.061 C 
HETATM   14  S1  UNL     1      14.541  -7.095 -10.203  1.00  0.00    -0.125 SA
HETATM   15  C9  UNL     1      14.841  -9.400 -11.689  1.00  0.00     0.167 C 
HETATM   16  C6  UNL     1      14.502  -6.423 -11.890  1.00  0.00     0.080 C 
HETATM   17  C7  UNL     1      13.940  -7.387 -12.865  1.00  0.00     0.018 C 
HETATM   18  C8  UNL     1      14.631  -8.707 -12.945  1.00  0.00     0.085 C 
HETATM   19  O1  UNL     1      14.872 -10.678 -11.712  1.00  0.00    -0.292 OA
ENDBRANCH  10  12
ENDBRANCH   6  10
TORSDOF 2
ENDMDL
MODEL 5
REMARK VINA RESULT: -6.319470937      2.290      2.582
REMARK  2 active torsions:
REMARK  status: ('A' for Active; 'I' for Inactive)
REMARK    1  A    between atoms: C3_6  and  N3_7 
REMARK    2  A    between atoms: N3_7  and  C4_9 
ROOT
HETATM    1  N1  UNL     1      10.453  -9.042  -5.340  1.00  0.00    -0.190 NA
HETATM    2  C1  UNL     1      11.568  -9.417  -5.303  1.00  0.00     0.120 C 
HETATM    3  C2  UNL     1      12.960  -9.891  -5.271  1.00  0.00     0.144 A 
HETATM    4  N2  UNL     1      13.805  -9.694  -6.240  1.00  0.00    -0.326 N 
ATOM      5  H2  UNL     1      13.523  -9.189  -7.080  1.00  0.00     0.169 HD
HETATM    6  C3  UNL     1      15.047 -10.164  -6.115  1.00  0.00     0.151 A 
HETATM    7  S2  UNL     1      15.028 -10.906  -4.584  1.00  0.00    -0.039 SA
HETATM    8  C10 UNL     1      13.404 -10.576  -4.168  1.00  0.00     0.115 A 
HETATM    9 CL1  UNL     1      12.516 -11.007  -2.693  1.00  0.00    -0.073 Cl
ENDROOT
BRANCH   6  10
HETATM   10  N3  UNL     1      16.044 -10.075  -6.966  1.00  0.00    -0.345 N 
ATOM     11  H3  UNL     1      16.935 -10.545  -6.803  1.00  0.00     0.167 HD
BRANCH  10  12
HETATM   12  C4  UNL     1      15.811  -9.280  -8.136  1.00  0.00     0.112 C 
HETATM   13  C5  UNL     1      16.483  -9.420  -9.242  1.00  0.00     0.061 C 
HETATM   14  S1  UNL     1      17.763 -10.638  -9.365  1.00  0.00    -0.125 SA
HETATM   15  C9  UNL     1      16.211  -8.598 -10.387  1.00  0.00     0.167 C 
HETATM   16  C6  UNL     1      17.977 -10.904 -11.149  1.00  0.00     0.080 C 
HETATM   17  C7  UNL     1      17.888  -9.643 -11.919  1.00  0.00     0.018 C 
HETATM   18  C8  UNL     1      16.623  -8.868 -11.751  1.00  0.00     0.085 C 
HETATM   19  O1  UNL     1      15.541  -7.532 -10.168  1.00  0.00    -0.292 OA
ENDBRANCH  10  12
ENDBRANCH   6  10
TORSDOF 2
ENDMDL
