MODEL 1
REMARK VINA RESULT: -6.442141132      0.000      0.000
REMARK  1 active torsions:
REMARK  status: ('A' for Active; 'I' for Inactive)
REMARK    1  A    between atoms: C5_11  and  N4_12 
ROOT
HETATM    1  N1  UNL     1      17.185  -9.640  -8.251  1.00  0.00    -0.191 NA
HETATM    2  C1  UNL     1      16.121  -9.563  -7.797  1.00  0.00     0.106 C 
HETATM    3  C2  UNL     1      14.804  -9.459  -7.206  1.00  0.00     0.127 A 
HETATM    4  C3  UNL     1      14.545  -9.904  -5.929  1.00  0.00     0.129 A 
HETATM    5 CL1  UNL     1      15.870 -10.615  -5.035  1.00  0.00    -0.063 Cl
HETATM    6  N2  UNL     1      13.343  -9.825  -5.339  1.00  0.00    -0.342 N 
ATOM      7  H2  UNL     1      13.208 -10.172  -4.391  1.00  0.00     0.167 HD
HETATM    8  C4  UNL     1      12.321  -9.281  -6.018  1.00  0.00     0.183 A 
HETATM    9  N3  UNL     1      12.556  -8.842  -7.261  1.00  0.00    -0.337 N 
ATOM     10  H3  UNL     1      11.770  -8.431  -7.767  1.00  0.00     0.168 HD
HETATM   11  C5  UNL     1      13.738  -8.896  -7.901  1.00  0.00     0.128 A 
ENDROOT
BRANCH  11  12
HETATM   12  N4  UNL     1      13.916  -8.415  -9.221  1.00  0.00    -0.366 N 
HETATM   13  C6  UNL     1      13.577  -9.129 -10.428  1.00  0.00     0.127 C 
HETATM   14  C7  UNL     1      14.675  -8.752 -11.435  1.00  0.00     0.059 C 
HETATM   15  C8  UNL     1      14.348  -7.359 -11.896  1.00  0.00     0.129 C 
HETATM   16  C9  UNL     1      15.540  -6.631 -12.461  1.00  0.00     0.039 C 
HETATM   17  N5  UNL     1      13.259  -7.461 -12.835  1.00  0.00    -0.066 N 
HETATM   18  C13 UNL     1      13.865  -6.567 -10.701  1.00  0.00     0.059 C 
HETATM   19  C10 UNL     1      15.373  -6.453 -13.959  1.00  0.00     0.004 C 
HETATM   20  C11 UNL     1      15.020  -7.813 -14.522  1.00  0.00     0.027 C 
HETATM   21  C12 UNL     1      13.614  -8.131 -14.056  1.00  0.00     0.233 C 
ATOM     22  H52 UNL     1      12.449  -7.906 -12.402  1.00  0.00     0.278 HD
ATOM     23  H51 UNL     1      12.864  -6.542 -13.030  1.00  0.00     0.278 HD
HETATM   24  C14 UNL     1      14.483  -7.101  -9.424  1.00  0.00     0.127 C 
ENDBRANCH  11  12
TORSDOF 1
ENDMDL
MODEL 2
REMARK VINA RESULT: -6.402170042      2.042      2.615
REMARK  1 active torsions:
REMARK  status: ('A' for Active; 'I' for Inactive)
REMARK    1  A    between atoms: C5_11  and  N4_12 
ROOT
HETATM    1  N1  UNL     1      15.662 -10.936  -5.404  1.00  0.00    -0.191 NA
HETATM    2  C1  UNL     1      14.610 -10.449  -5.436  1.00  0.00     0.106 C 
HETATM    3  C2  UNL     1      13.301  -9.835  -5.448  1.00  0.00     0.127 A 
HETATM    4  C3  UNL     1      12.414  -9.996  -4.406  1.00  0.00     0.129 A 
HETATM    5 CL1  UNL     1      12.924 -10.983  -3.055  1.00  0.00    -0.063 Cl
HETATM    6  N2  UNL     1      11.193  -9.443  -4.373  1.00  0.00    -0.342 N 
ATOM      7  H2  UNL     1      10.576  -9.597  -3.575  1.00  0.00     0.167 HD
HETATM    8  C4  UNL     1      10.794  -8.685  -5.405  1.00  0.00     0.183 A 
HETATM    9  N3  UNL     1      11.643  -8.518  -6.427  1.00  0.00    -0.337 N 
ATOM     10  H3  UNL     1      11.328  -7.940  -7.207  1.00  0.00     0.168 HD
HETATM   11  C5  UNL     1      12.877  -9.047  -6.514  1.00  0.00     0.128 A 
ENDROOT
BRANCH  11  12
HETATM   12  N4  UNL     1      13.725  -8.833  -7.628  1.00  0.00    -0.366 N 
HETATM   13  C6  UNL     1      13.385  -9.098  -9.005  1.00  0.00     0.127 C 
HETATM   14  C7  UNL     1      14.687  -9.607  -9.644  1.00  0.00     0.059 C 
HETATM   15  C8  UNL     1      15.545  -8.390  -9.853  1.00  0.00     0.129 C 
HETATM   16  C9  UNL     1      17.010  -8.717  -9.974  1.00  0.00     0.039 C 
HETATM   17  N5  UNL     1      15.030  -7.693 -11.004  1.00  0.00    -0.066 N 
HETATM   18  C13 UNL     1      15.386  -7.488  -8.648  1.00  0.00     0.059 C 
HETATM   19  C10 UNL     1      17.477  -8.473 -11.398  1.00  0.00     0.004 C 
HETATM   20  C11 UNL     1      16.497  -9.186 -12.304  1.00  0.00     0.027 C 
HETATM   21  C12 UNL     1      15.193  -8.418 -12.234  1.00  0.00     0.233 C 
ATOM     22  H52 UNL     1      14.053  -7.436 -10.863  1.00  0.00     0.278 HD
ATOM     23  H51 UNL     1      15.442  -6.763 -11.077  1.00  0.00     0.278 HD
HETATM   24  C14 UNL     1      15.052  -8.303  -7.414  1.00  0.00     0.127 C 
ENDBRANCH  11  12
TORSDOF 1
ENDMDL
MODEL 3
REMARK VINA RESULT: -6.338420874      1.725      3.055
REMARK  1 active torsions:
REMARK  status: ('A' for Active; 'I' for Inactive)
REMARK    1  A    between atoms: C5_11  and  N4_12 
ROOT
HETATM    1  N1  UNL     1      11.443  -9.339  -6.726  1.00  0.00    -0.191 NA
HETATM    2  C1  UNL     1      12.508  -9.597  -6.346  1.00  0.00     0.106 C 
HETATM    3  C2  UNL     1      13.827  -9.942  -5.862  1.00  0.00     0.127 A 
HETATM    4  C3  UNL     1      14.016 -10.541  -4.635  1.00  0.00     0.129 A 
HETATM    5 CL1  UNL     1      12.596 -10.868  -3.667  1.00  0.00    -0.063 Cl
HETATM    6  N2  UNL     1      15.217 -10.882  -4.148  1.00  0.00    -0.342 N 
ATOM      7  H2  UNL     1      15.299 -11.323  -3.232  1.00  0.00     0.167 HD
HETATM    8  C4  UNL     1      16.311 -10.634  -4.884  1.00  0.00     0.183 A 
HETATM    9  N3  UNL     1      16.146 -10.053  -6.079  1.00  0.00    -0.337 N 
ATOM     10  H3  UNL     1      16.986  -9.868  -6.629  1.00  0.00     0.168 HD
HETATM   11  C5  UNL     1      14.968  -9.690  -6.617  1.00  0.00     0.128 A 
ENDROOT
BRANCH  11  12
HETATM   12  N4  UNL     1      14.865  -9.073  -7.888  1.00  0.00    -0.366 N 
HETATM   13  C6  UNL     1      14.119  -7.874  -8.182  1.00  0.00     0.127 C 
HETATM   14  C7  UNL     1      13.540  -8.100  -9.588  1.00  0.00     0.059 C 
HETATM   15  C8  UNL     1      14.684  -7.895 -10.541  1.00  0.00     0.129 C 
HETATM   16  C9  UNL     1      14.466  -8.561 -11.875  1.00  0.00     0.039 C 
HETATM   17  N5  UNL     1      14.901  -6.475 -10.654  1.00  0.00    -0.066 N 
HETATM   18  C13 UNL     1      15.924  -8.513  -9.931  1.00  0.00     0.059 C 
HETATM   19  C10 UNL     1      14.252  -7.508 -12.947  1.00  0.00     0.004 C 
HETATM   20  C11 UNL     1      13.191  -6.564 -12.425  1.00  0.00     0.027 C 
HETATM   21  C12 UNL     1      13.819  -5.778 -11.293  1.00  0.00     0.233 C 
ATOM     22  H52 UNL     1      15.104  -6.067  -9.741  1.00  0.00     0.278 HD
ATOM     23  H51 UNL     1      15.784  -6.282 -11.126  1.00  0.00     0.278 HD
HETATM   24  C14 UNL     1      15.550  -9.662  -9.016  1.00  0.00     0.127 C 
ENDBRANCH  11  12
TORSDOF 1
ENDMDL
MODEL 4
REMARK VINA RESULT: -6.329198134      0.789      1.675
REMARK  1 active torsions:
REMARK  status: ('A' for Active; 'I' for Inactive)
REMARK    1  A    between atoms: C5_11  and  N4_12 
ROOT
HETATM    1  N1  UNL     1      17.248  -9.577  -8.280  1.00  0.00    -0.191 NA
HETATM    2  C1  UNL     1      16.181  -9.509  -7.831  1.00  0.00     0.106 C 
HETATM    3  C2  UNL     1      14.861  -9.417  -7.246  1.00  0.00     0.127 A 
HETATM    4  C3  UNL     1      14.603  -9.851  -5.964  1.00  0.00     0.129 A 
HETATM    5 CL1  UNL     1      15.935 -10.531  -5.057  1.00  0.00    -0.063 Cl
HETATM    6  N2  UNL     1      13.398  -9.781  -5.381  1.00  0.00    -0.342 N 
ATOM      7  H2  UNL     1      13.264 -10.118  -4.428  1.00  0.00     0.167 HD
HETATM    8  C4  UNL     1      12.371  -9.261  -6.070  1.00  0.00     0.183 A 
HETATM    9  N3  UNL     1      12.604  -8.834  -7.318  1.00  0.00    -0.337 N 
ATOM     10  H3  UNL     1      11.815  -8.441  -7.832  1.00  0.00     0.168 HD
HETATM   11  C5  UNL     1      13.790  -8.878  -7.952  1.00  0.00     0.128 A 
ENDROOT
BRANCH  11  12
HETATM   12  N4  UNL     1      13.966  -8.412  -9.278  1.00  0.00    -0.366 N 
HETATM   13  C6  UNL     1      14.485  -7.119  -9.652  1.00  0.00     0.127 C 
HETATM   14  C7  UNL     1      13.689  -6.718 -10.904  1.00  0.00     0.059 C 
HETATM   15  C8  UNL     1      14.262  -7.529 -12.033  1.00  0.00     0.129 C 
HETATM   16  C9  UNL     1      13.314  -7.672 -13.195  1.00  0.00     0.039 C 
HETATM   17  N5  UNL     1      15.515  -6.921 -12.405  1.00  0.00    -0.066 N 
HETATM   18  C13 UNL     1      14.550  -8.921 -11.515  1.00  0.00     0.059 C 
HETATM   19  C10 UNL     1      13.831  -6.880 -14.382  1.00  0.00     0.004 C 
HETATM   20  C11 UNL     1      14.148  -5.491 -13.872  1.00  0.00     0.027 C 
HETATM   21  C12 UNL     1      15.370  -5.615 -12.985  1.00  0.00     0.233 C 
ATOM     22  H52 UNL     1      16.153  -6.894 -11.609  1.00  0.00     0.278 HD
ATOM     23  H51 UNL     1      16.043  -7.535 -13.025  1.00  0.00     0.278 HD
HETATM   24  C14 UNL     1      13.607  -9.273 -10.382  1.00  0.00     0.127 C 
ENDBRANCH  11  12
TORSDOF 1
ENDMDL
MODEL 5
REMARK VINA RESULT: -6.172579172      3.348      4.758
REMARK  1 active torsions:
REMARK  status: ('A' for Active; 'I' for Inactive)
REMARK    1  A    between atoms: C5_11  and  N4_12 
ROOT
HETATM    1  N1  UNL     1      14.984  -7.109  -9.815  1.00  0.00    -0.191 NA
HETATM    2  C1  UNL     1      14.967  -7.816  -8.896  1.00  0.00     0.106 C 
HETATM    3  C2  UNL     1      14.919  -8.696  -7.749  1.00  0.00     0.127 A 
HETATM    4  C3  UNL     1      14.002  -8.518  -6.736  1.00  0.00     0.129 A 
HETATM    5 CL1  UNL     1      12.890  -7.175  -6.878  1.00  0.00    -0.063 Cl
HETATM    6  N2  UNL     1      13.917  -9.311  -5.658  1.00  0.00    -0.342 N 
ATOM      7  H2  UNL     1      13.218  -9.132  -4.937  1.00  0.00     0.167 HD
HETATM    8  C4  UNL     1      14.766 -10.343  -5.542  1.00  0.00     0.183 A 
HETATM    9  N3  UNL     1      15.664 -10.531  -6.518  1.00  0.00    -0.337 N 
ATOM     10  H3  UNL     1      16.305 -11.319  -6.417  1.00  0.00     0.168 HD
HETATM   11  C5  UNL     1      15.794  -9.770  -7.619  1.00  0.00     0.128 A 
ENDROOT
BRANCH  11  12
HETATM   12  N4  UNL     1      16.771 -10.023  -8.613  1.00  0.00    -0.366 N 
HETATM   13  C6  UNL     1      18.095  -9.451  -8.655  1.00  0.00     0.127 C 
HETATM   14  C7  UNL     1      18.383  -9.223 -10.147  1.00  0.00     0.059 C 
HETATM   15  C8  UNL     1      18.703 -10.578 -10.715  1.00  0.00     0.129 C 
HETATM   16  C9  UNL     1      18.504 -10.653 -12.206  1.00  0.00     0.039 C 
HETATM   17  N5  UNL     1      20.047 -10.906 -10.312  1.00  0.00    -0.066 N 
HETATM   18  C13 UNL     1      17.765 -11.587 -10.087  1.00  0.00     0.059 C 
HETATM   19  C10 UNL     1      19.849 -10.778 -12.899  1.00  0.00     0.004 C 
HETATM   20  C11 UNL     1      20.730  -9.683 -12.339  1.00  0.00     0.027 C 
HETATM   21  C12 UNL     1      21.047 -10.062 -10.906  1.00  0.00     0.233 C 
ATOM     22  H52 UNL     1      20.130 -10.903  -9.296  1.00  0.00     0.278 HD
ATOM     23  H51 UNL     1      20.249 -11.888 -10.497  1.00  0.00     0.278 HD
HETATM   24  C14 UNL     1      16.458 -10.926  -9.697  1.00  0.00     0.127 C 
ENDBRANCH  11  12
TORSDOF 1
ENDMDL
