MODEL 1
REMARK VINA RESULT: -6.825211771      0.000      0.000
REMARK  7 active torsions:
REMARK  status: ('A' for Active; 'I' for Inactive)
REMARK    1  A    between atoms: N3_14  and  C6_15 
REMARK    2  A    between atoms: C8_17  and  O5_18 
REMARK    3  A    between atoms: C8_17  and  C9_20 
REMARK    4  A    between atoms: C9_20  and  O6_21 
REMARK    5  A    between atoms: C9_20  and  O7_23 
REMARK    6  A    between atoms: C9_20  and  N4_25 
REMARK    7  A    between atoms: N4_25  and  O8_26 
ROOT
HETATM    1  O1  UNL     1      24.231  35.893  27.038  1.00  0.00    -0.247 OA
HETATM    2  C1  UNL     1      22.972  35.962  27.035  1.00  0.00     0.328 A 
HETATM    3  N1  UNL     1      22.407  37.135  27.360  1.00  0.00    -0.275 N 
ATOM      4  H1  UNL     1      22.981  37.942  27.602  1.00  0.00     0.173 HD
HETATM    5  C2  UNL     1      21.051  37.219  27.360  1.00  0.00     0.269 A 
HETATM    6  O2  UNL     1      20.465  38.296  27.659  1.00  0.00    -0.267 OA
HETATM    7  C3  UNL     1      20.276  36.129  27.034  1.00  0.00     0.144 A 
HETATM    8  C4  UNL     1      18.895  36.185  27.031  1.00  0.00     0.269 A 
HETATM    9  O3  UNL     1      18.360  37.273  27.333  1.00  0.00    -0.267 OA
HETATM   10  N2  UNL     1      18.171  35.100  26.713  1.00  0.00    -0.274 N 
ATOM     11  H2  UNL     1      17.153  35.162  26.717  1.00  0.00     0.173 HD
HETATM   12  C5  UNL     1      18.761  33.926  26.386  1.00  0.00     0.333 A 
HETATM   13  O4  UNL     1      18.061  32.928  26.095  1.00  0.00    -0.246 OA
HETATM   14  N3  UNL     1      20.086  33.837  26.378  1.00  0.00    -0.256 N 
HETATM   15  C10 UNL     1      20.868  34.933  26.702  1.00  0.00     0.139 A 
HETATM   16  N5  UNL     1      22.207  34.887  26.713  1.00  0.00    -0.293 N 
ATOM     17  H5  UNL     1      22.670  34.011  26.470  1.00  0.00     0.172 HD
ENDROOT
BRANCH  14  18
HETATM   18  C6  UNL     1      20.834  32.674  26.047  1.00  0.00     0.243 C 
HETATM   19  C7  UNL     1      20.295  31.458  25.461  1.00  0.00     0.130 C 
HETATM   20  C8  UNL     1      20.746  31.964  24.099  1.00  0.00     0.245 C 
HETATM   21  O9  UNL     1      21.446  32.940  24.779  1.00  0.00    -0.323 OA
BRANCH  20  22
HETATM   22  O5  UNL     1      19.727  32.362  23.273  1.00  0.00    -0.360 OA
ATOM     23  H5  UNL     1      19.888  32.215  22.348  1.00  0.00     0.213 HD
ENDBRANCH  20  22
BRANCH  20  24
HETATM   24  C9  UNL     1      21.727  31.029  23.404  1.00  0.00     0.322 C 
BRANCH  24  25
HETATM   25  O6  UNL     1      21.463  29.757  23.842  1.00  0.00    -0.346 OA
ATOM     26  H6  UNL     1      20.879  29.354  23.210  1.00  0.00     0.214 HD
ENDBRANCH  24  25
BRANCH  24  27
HETATM   27  O7  UNL     1      23.033  31.360  23.757  1.00  0.00    -0.346 OA
ATOM     28  H7  UNL     1      23.224  31.043  24.632  1.00  0.00     0.214 HD
ENDBRANCH  24  27
BRANCH  24  29
HETATM   29  N4  UNL     1      21.624  31.167  21.965  1.00  0.00    -0.029 NA
BRANCH  29  30
HETATM   30  O8  UNL     1      21.802  32.416  21.546  1.00  0.00    -0.291 OA
ATOM     31  H8  UNL     1      22.615  32.538  21.068  1.00  0.00     0.239 HD
ENDBRANCH  29  30
ENDBRANCH  24  29
ENDBRANCH  20  24
ENDBRANCH  14  18
TORSDOF 7
ENDMDL
MODEL 2
REMARK VINA RESULT: -6.401838220      1.653      1.979
REMARK  7 active torsions:
REMARK  status: ('A' for Active; 'I' for Inactive)
REMARK    1  A    between atoms: N3_14  and  C6_15 
REMARK    2  A    between atoms: C8_17  and  O5_18 
REMARK    3  A    between atoms: C8_17  and  C9_20 
REMARK    4  A    between atoms: C9_20  and  O6_21 
REMARK    5  A    between atoms: C9_20  and  O7_23 
REMARK    6  A    between atoms: C9_20  and  N4_25 
REMARK    7  A    between atoms: N4_25  and  O8_26 
ROOT
HETATM    1  O1  UNL     1      21.609  38.112  25.895  1.00  0.00    -0.247 OA
HETATM    2  C1  UNL     1      20.581  37.584  26.399  1.00  0.00     0.328 A 
HETATM    3  N1  UNL     1      19.617  38.397  26.858  1.00  0.00    -0.275 N 
ATOM      4  H1  UNL     1      19.716  39.410  26.799  1.00  0.00     0.173 HD
HETATM    5  C2  UNL     1      18.506  37.836  27.402  1.00  0.00     0.269 A 
HETATM    6  O2  UNL     1      17.569  38.552  27.850  1.00  0.00    -0.267 OA
HETATM    7  C3  UNL     1      18.372  36.468  27.481  1.00  0.00     0.144 A 
HETATM    8  C4  UNL     1      17.255  35.871  28.036  1.00  0.00     0.269 A 
HETATM    9  O3  UNL     1      16.353  36.621  28.466  1.00  0.00    -0.267 OA
HETATM   10  N2  UNL     1      17.161  34.534  28.102  1.00  0.00    -0.274 N 
ATOM     11  H2  UNL     1      16.329  34.113  28.515  1.00  0.00     0.173 HD
HETATM   12  C5  UNL     1      18.145  33.731  27.632  1.00  0.00     0.333 A 
HETATM   13  O4  UNL     1      18.032  32.485  27.707  1.00  0.00    -0.246 OA
HETATM   14  N3  UNL     1      19.232  34.271  27.092  1.00  0.00    -0.256 N 
HETATM   15  C10 UNL     1      19.367  35.646  27.008  1.00  0.00     0.139 A 
HETATM   16  N5  UNL     1      20.449  36.234  26.477  1.00  0.00    -0.293 N 
ATOM     17  H5  UNL     1      21.201  35.646  26.118  1.00  0.00     0.172 HD
ENDROOT
BRANCH  14  18
HETATM   18  C6  UNL     1      20.332  33.550  26.554  1.00  0.00     0.243 C 
HETATM   19  C7  UNL     1      20.451  32.102  26.498  1.00  0.00     0.130 C 
HETATM   20  C8  UNL     1      19.966  32.160  25.057  1.00  0.00     0.245 C 
HETATM   21  O9  UNL     1      20.139  33.526  25.134  1.00  0.00    -0.323 OA
BRANCH  20  22
HETATM   22  O5  UNL     1      18.695  31.683  24.864  1.00  0.00    -0.360 OA
ATOM     23  H5  UNL     1      18.122  31.771  25.616  1.00  0.00     0.213 HD
ENDBRANCH  20  22
BRANCH  20  24
HETATM   24  C9  UNL     1      20.962  31.579  24.062  1.00  0.00     0.322 C 
BRANCH  24  25
HETATM   25  O6  UNL     1      20.964  30.218  24.230  1.00  0.00    -0.346 OA
ATOM     26  H6  UNL     1      21.432  30.031  25.035  1.00  0.00     0.214 HD
ENDBRANCH  24  25
BRANCH  24  27
HETATM   27  O7  UNL     1      22.240  32.064  24.329  1.00  0.00    -0.346 OA
ATOM     28  H7  UNL     1      22.770  32.038  23.541  1.00  0.00     0.214 HD
ENDBRANCH  24  27
BRANCH  24  29
HETATM   29  N4  UNL     1      20.623  31.984  22.712  1.00  0.00    -0.029 NA
BRANCH  29  30
HETATM   30  O8  UNL     1      21.686  32.295  21.977  1.00  0.00    -0.291 OA
ATOM     31  H8  UNL     1      21.590  33.116  21.510  1.00  0.00     0.239 HD
ENDBRANCH  29  30
ENDBRANCH  24  29
ENDBRANCH  20  24
ENDBRANCH  14  18
TORSDOF 7
ENDMDL
MODEL 3
REMARK VINA RESULT: -6.050215111      3.215      7.533
REMARK  7 active torsions:
REMARK  status: ('A' for Active; 'I' for Inactive)
REMARK    1  A    between atoms: N3_14  and  C6_15 
REMARK    2  A    between atoms: C8_17  and  O5_18 
REMARK    3  A    between atoms: C8_17  and  C9_20 
REMARK    4  A    between atoms: C9_20  and  O6_21 
REMARK    5  A    between atoms: C9_20  and  O7_23 
REMARK    6  A    between atoms: C9_20  and  N4_25 
REMARK    7  A    between atoms: N4_25  and  O8_26 
ROOT
HETATM    1  O1  UNL     1      20.851  30.048  19.844  1.00  0.00    -0.247 OA
HETATM    2  C1  UNL     1      21.435  29.517  20.827  1.00  0.00     0.328 A 
HETATM    3  N1  UNL     1      21.961  28.294  20.660  1.00  0.00    -0.275 N 
ATOM      4  H1  UNL     1      21.889  27.812  19.764  1.00  0.00     0.173 HD
HETATM    5  C2  UNL     1      22.592  27.713  21.713  1.00  0.00     0.269 A 
HETATM    6  O2  UNL     1      23.104  26.564  21.613  1.00  0.00    -0.267 OA
HETATM    7  C3  UNL     1      22.690  28.363  22.923  1.00  0.00     0.144 A 
HETATM    8  C4  UNL     1      23.321  27.794  24.013  1.00  0.00     0.269 A 
HETATM    9  O3  UNL     1      23.813  26.654  23.866  1.00  0.00    -0.267 OA
HETATM   10  N2  UNL     1      23.392  28.455  25.179  1.00  0.00    -0.274 N 
ATOM     11  H2  UNL     1      23.861  28.017  25.972  1.00  0.00     0.173 HD
HETATM   12  C5  UNL     1      22.856  29.689  25.327  1.00  0.00     0.333 A 
HETATM   13  O4  UNL     1      22.936  30.283  26.428  1.00  0.00    -0.246 OA
HETATM   14  N3  UNL     1      22.242  30.266  24.300  1.00  0.00    -0.256 N 
HETATM   15  C10 UNL     1      22.147  29.616  23.082  1.00  0.00     0.139 A 
HETATM   16  N5  UNL     1      21.532  30.158  22.021  1.00  0.00    -0.293 N 
ATOM     17  H5  UNL     1      21.121  31.087  22.113  1.00  0.00     0.172 HD
ENDROOT
BRANCH  14  18
HETATM   18  C6  UNL     1      21.646  31.556  24.313  1.00  0.00     0.243 C 
HETATM   19  C7  UNL     1      20.287  31.867  23.898  1.00  0.00     0.130 C 
HETATM   20  C8  UNL     1      19.873  31.814  25.361  1.00  0.00     0.245 C 
HETATM   21  O9  UNL     1      21.219  31.786  25.662  1.00  0.00    -0.323 OA
BRANCH  20  22
HETATM   22  O5  UNL     1      19.115  30.724  25.700  1.00  0.00    -0.360 OA
ATOM     23  H5  UNL     1      18.454  30.892  26.361  1.00  0.00     0.213 HD
ENDBRANCH  20  22
BRANCH  20  24
HETATM   24  C9  UNL     1      19.270  33.120  25.863  1.00  0.00     0.322 C 
BRANCH  24  25
HETATM   25  O6  UNL     1      20.088  34.138  25.444  1.00  0.00    -0.346 OA
ATOM     26  H6  UNL     1      19.702  34.954  25.742  1.00  0.00     0.214 HD
ENDBRANCH  24  25
BRANCH  24  27
HETATM   27  O7  UNL     1      19.231  33.123  27.256  1.00  0.00    -0.346 OA
ATOM     28  H7  UNL     1      18.487  33.630  27.559  1.00  0.00     0.214 HD
ENDBRANCH  24  27
BRANCH  24  29
HETATM   29  N4  UNL     1      17.905  33.259  25.395  1.00  0.00    -0.029 NA
BRANCH  29  30
HETATM   30  O8  UNL     1      17.168  34.055  26.162  1.00  0.00    -0.291 OA
ATOM     31  H8  UNL     1      16.705  34.723  25.671  1.00  0.00     0.239 HD
ENDBRANCH  29  30
ENDBRANCH  24  29
ENDBRANCH  20  24
ENDBRANCH  14  18
TORSDOF 7
ENDMDL
MODEL 4
REMARK VINA RESULT: -5.814935230      1.685      3.587
REMARK  7 active torsions:
REMARK  status: ('A' for Active; 'I' for Inactive)
REMARK    1  A    between atoms: N3_14  and  C6_15 
REMARK    2  A    between atoms: C8_17  and  O5_18 
REMARK    3  A    between atoms: C8_17  and  C9_20 
REMARK    4  A    between atoms: C9_20  and  O6_21 
REMARK    5  A    between atoms: C9_20  and  O7_23 
REMARK    6  A    between atoms: C9_20  and  N4_25 
REMARK    7  A    between atoms: N4_25  and  O8_26 
ROOT
HETATM    1  O1  UNL     1      17.995  32.979  25.218  1.00  0.00    -0.247 OA
HETATM    2  C1  UNL     1      19.094  33.427  25.644  1.00  0.00     0.328 A 
HETATM    3  N1  UNL     1      19.102  34.646  26.205  1.00  0.00    -0.275 N 
ATOM      4  H1  UNL     1      18.243  35.190  26.284  1.00  0.00     0.173 HD
HETATM    5  C2  UNL     1      20.282  35.137  26.667  1.00  0.00     0.269 A 
HETATM    6  O2  UNL     1      20.348  36.277  27.202  1.00  0.00    -0.267 OA
HETATM    7  C3  UNL     1      21.441  34.402  26.561  1.00  0.00     0.144 A 
HETATM    8  C4  UNL     1      22.656  34.878  27.017  1.00  0.00     0.269 A 
HETATM    9  O3  UNL     1      22.672  36.013  27.540  1.00  0.00    -0.267 OA
HETATM   10  N2  UNL     1      23.767  34.136  26.892  1.00  0.00    -0.274 N 
ATOM     11  H2  UNL     1      24.654  34.506  27.234  1.00  0.00     0.173 HD
HETATM   12  C5  UNL     1      23.739  32.908  26.324  1.00  0.00     0.333 A 
HETATM   13  O4  UNL     1      24.792  32.237  26.219  1.00  0.00    -0.246 OA
HETATM   14  N3  UNL     1      22.588  32.418  25.876  1.00  0.00    -0.256 N 
HETATM   15  C10 UNL     1      21.420  33.154  25.985  1.00  0.00     0.139 A 
HETATM   16  N5  UNL     1      20.239  32.702  25.541  1.00  0.00    -0.293 N 
ATOM     17  H5  UNL     1      20.197  31.779  25.109  1.00  0.00     0.172 HD
ENDROOT
BRANCH  14  18
HETATM   18  C6  UNL     1      22.413  31.145  25.269  1.00  0.00     0.243 C 
HETATM   19  C7  UNL     1      21.254  30.725  24.497  1.00  0.00     0.130 C 
HETATM   20  C8  UNL     1      22.026  31.066  23.231  1.00  0.00     0.245 C 
HETATM   21  O9  UNL     1      23.141  31.186  24.035  1.00  0.00    -0.323 OA
BRANCH  20  22
HETATM   22  O5  UNL     1      21.581  32.186  22.577  1.00  0.00    -0.360 OA
ATOM     23  H5  UNL     1      21.786  33.005  23.012  1.00  0.00     0.213 HD
ENDBRANCH  20  22
BRANCH  20  24
HETATM   24  C9  UNL     1      22.202  29.877  22.296  1.00  0.00     0.322 C 
BRANCH  24  25
HETATM   25  O6  UNL     1      22.010  28.739  23.036  1.00  0.00    -0.346 OA
ATOM     26  H6  UNL     1      22.169  27.997  22.465  1.00  0.00     0.214 HD
ENDBRANCH  24  25
BRANCH  24  27
HETATM   27  O7  UNL     1      23.497  29.863  21.782  1.00  0.00    -0.346 OA
ATOM     28  H7  UNL     1      23.873  30.734  21.825  1.00  0.00     0.214 HD
ENDBRANCH  24  27
BRANCH  24  29
HETATM   29  N4  UNL     1      21.296  29.982  21.170  1.00  0.00    -0.029 NA
BRANCH  29  30
HETATM   30  O8  UNL     1      21.769  30.739  20.185  1.00  0.00    -0.291 OA
ATOM     31  H8  UNL     1      21.121  30.934  19.519  1.00  0.00     0.239 HD
ENDBRANCH  29  30
ENDBRANCH  24  29
ENDBRANCH  20  24
ENDBRANCH  14  18
TORSDOF 7
ENDMDL
MODEL 5
REMARK VINA RESULT: -5.813242059      3.369      7.357
REMARK  7 active torsions:
REMARK  status: ('A' for Active; 'I' for Inactive)
REMARK    1  A    between atoms: N3_14  and  C6_15 
REMARK    2  A    between atoms: C8_17  and  O5_18 
REMARK    3  A    between atoms: C8_17  and  C9_20 
REMARK    4  A    between atoms: C9_20  and  O6_21 
REMARK    5  A    between atoms: C9_20  and  O7_23 
REMARK    6  A    between atoms: C9_20  and  N4_25 
REMARK    7  A    between atoms: N4_25  and  O8_26 
ROOT
HETATM    1  O1  UNL     1      23.897  26.852  25.632  1.00  0.00    -0.247 OA
HETATM    2  C1  UNL     1      23.381  27.432  24.638  1.00  0.00     0.328 A 
HETATM    3  N1  UNL     1      23.419  26.803  23.454  1.00  0.00    -0.275 N 
ATOM      4  H1  UNL     1      23.852  25.884  23.364  1.00  0.00     0.173 HD
HETATM    5  C2  UNL     1      22.867  27.420  22.377  1.00  0.00     0.269 A 
HETATM    6  O2  UNL     1      22.875  26.876  21.239  1.00  0.00    -0.267 OA
HETATM    7  C3  UNL     1      22.283  28.661  22.498  1.00  0.00     0.144 A 
HETATM    8  C4  UNL     1      21.719  29.315  21.419  1.00  0.00     0.269 A 
HETATM    9  O3  UNL     1      21.750  28.736  20.311  1.00  0.00    -0.267 OA
HETATM   10  N2  UNL     1      21.163  30.527  21.573  1.00  0.00    -0.274 N 
ATOM     11  H2  UNL     1      20.752  30.993  20.764  1.00  0.00     0.173 HD
HETATM   12  C5  UNL     1      21.133  31.144  22.777  1.00  0.00     0.333 A 
HETATM   13  O4  UNL     1      20.609  32.277  22.892  1.00  0.00    -0.246 OA
HETATM   14  N3  UNL     1      21.666  30.544  23.836  1.00  0.00    -0.256 N 
HETATM   15  C10 UNL     1      22.250  29.295  23.718  1.00  0.00     0.139 A 
HETATM   16  N5  UNL     1      22.804  28.656  24.758  1.00  0.00    -0.293 N 
ATOM     17  H5  UNL     1      22.792  29.106  25.673  1.00  0.00     0.172 HD
ENDROOT
BRANCH  14  18
HETATM   18  C6  UNL     1      21.696  31.072  25.156  1.00  0.00     0.243 C 
HETATM   19  C7  UNL     1      21.112  32.335  25.578  1.00  0.00     0.130 C 
HETATM   20  C8  UNL     1      19.896  31.562  26.066  1.00  0.00     0.245 C 
HETATM   21  O9  UNL     1      20.642  30.417  25.873  1.00  0.00    -0.323 OA
BRANCH  20  22
HETATM   22  O5  UNL     1      18.770  31.731  25.304  1.00  0.00    -0.360 OA
ATOM     23  H5  UNL     1      18.485  30.952  24.841  1.00  0.00     0.213 HD
ENDBRANCH  20  22
BRANCH  20  24
HETATM   24  C9  UNL     1      19.625  31.743  27.554  1.00  0.00     0.322 C 
BRANCH  24  25
HETATM   25  O6  UNL     1      20.833  31.699  28.201  1.00  0.00    -0.346 OA
ATOM     26  H6  UNL     1      21.410  32.319  27.770  1.00  0.00     0.214 HD
ENDBRANCH  24  25
BRANCH  24  27
HETATM   27  O7  UNL     1      18.828  30.702  28.024  1.00  0.00    -0.346 OA
ATOM     28  H7  UNL     1      19.240  29.867  27.835  1.00  0.00     0.214 HD
ENDBRANCH  24  27
BRANCH  24  29
HETATM   29  N4  UNL     1      18.901  32.977  27.788  1.00  0.00    -0.029 NA
BRANCH  29  30
HETATM   30  O8  UNL     1      17.582  32.834  27.700  1.00  0.00    -0.291 OA
ATOM     31  H8  UNL     1      17.117  33.195  28.446  1.00  0.00     0.239 HD
ENDBRANCH  29  30
ENDBRANCH  24  29
ENDBRANCH  20  24
ENDBRANCH  14  18
TORSDOF 7
ENDMDL
