MODEL 1
REMARK VINA RESULT: -5.044030371      0.000      0.000
REMARK  0 active torsions:
REMARK  status: ('A' for Active; 'I' for Inactive)
ROOT
HETATM    1  C1  UNL     1      56.052  27.573  21.375  1.00  0.00     0.033 C 
HETATM    2  C2  UNL     1      55.788  29.008  21.767  1.00  0.00     0.091 C 
HETATM    3  C3  UNL     1      56.832  29.923  21.191  1.00  0.00     0.026 C 
HETATM    4  C4  UNL     1      56.707  30.152  19.727  1.00  0.00     0.003 C 
HETATM    5  C5  UNL     1      55.666  31.150  19.335  1.00  0.00     0.018 C 
HETATM    6  C6  UNL     1      54.266  30.729  19.566  1.00  0.00     0.134 C 
HETATM    7  N1  UNL     1      54.096  29.454  20.180  1.00  0.00    -0.146 NA
HETATM    8  N2  UNL     1      54.445  29.413  21.505  1.00  0.00    -0.335 N 
ATOM      9  H2  UNL     1      53.791  29.655  22.251  1.00  0.00     0.176 HD
ENDROOT
TORSDOF 0
ENDMDL
MODEL 2
REMARK VINA RESULT: -4.999505683      1.204      2.918
REMARK  0 active torsions:
REMARK  status: ('A' for Active; 'I' for Inactive)
ROOT
HETATM    1  C1  UNL     1      56.496  31.049  20.495  1.00  0.00     0.033 C 
HETATM    2  C2  UNL     1      55.860  29.769  20.006  1.00  0.00     0.091 C 
HETATM    3  C3  UNL     1      56.772  28.596  20.233  1.00  0.00     0.026 C 
HETATM    4  C4  UNL     1      56.875  28.166  21.653  1.00  0.00     0.003 C 
HETATM    5  C5  UNL     1      55.735  27.331  22.141  1.00  0.00     0.018 C 
HETATM    6  C6  UNL     1      54.441  28.038  22.267  1.00  0.00     0.134 C 
HETATM    7  N1  UNL     1      54.438  29.404  21.856  1.00  0.00    -0.146 NA
HETATM    8  N2  UNL     1      54.534  29.587  20.501  1.00  0.00    -0.335 N 
ATOM      9  H2  UNL     1      53.717  29.592  19.890  1.00  0.00     0.176 HD
ENDROOT
TORSDOF 0
ENDMDL
MODEL 3
REMARK VINA RESULT: -4.732257517      1.996      3.114
REMARK  0 active torsions:
REMARK  status: ('A' for Active; 'I' for Inactive)
ROOT
HETATM    1  C1  UNL     1      57.281  29.553  19.279  1.00  0.00     0.033 C 
HETATM    2  C2  UNL     1      57.199  29.634  20.785  1.00  0.00     0.091 C 
HETATM    3  C3  UNL     1      55.925  30.304  21.218  1.00  0.00     0.026 C 
HETATM    4  C4  UNL     1      54.707  29.468  21.056  1.00  0.00     0.003 C 
HETATM    5  C5  UNL     1      54.496  28.450  22.130  1.00  0.00     0.018 C 
HETATM    6  C6  UNL     1      55.470  27.336  22.147  1.00  0.00     0.134 C 
HETATM    7  N1  UNL     1      56.511  27.408  21.175  1.00  0.00    -0.146 NA
HETATM    8  N2  UNL     1      57.447  28.379  21.418  1.00  0.00    -0.335 N 
ATOM      9  H2  UNL     1      58.262  28.217  22.010  1.00  0.00     0.176 HD
ENDROOT
TORSDOF 0
ENDMDL
MODEL 4
REMARK VINA RESULT: -4.406410930      1.694      2.894
REMARK  0 active torsions:
REMARK  status: ('A' for Active; 'I' for Inactive)
ROOT
HETATM    1  C1  UNL     1      57.708  29.796  20.611  1.00  0.00     0.033 C 
HETATM    2  C2  UNL     1      56.590  28.923  20.090  1.00  0.00     0.091 C 
HETATM    3  C3  UNL     1      56.610  27.574  20.752  1.00  0.00     0.026 C 
HETATM    4  C4  UNL     1      56.141  27.575  22.162  1.00  0.00     0.003 C 
HETATM    5  C5  UNL     1      54.655  27.597  22.330  1.00  0.00     0.018 C 
HETATM    6  C6  UNL     1      53.991  28.856  21.924  1.00  0.00     0.134 C 
HETATM    7  N1  UNL     1      54.844  29.859  21.378  1.00  0.00    -0.146 NA
HETATM    8  N2  UNL     1      55.321  29.575  20.124  1.00  0.00    -0.335 N 
ATOM      9  H2  UNL     1      54.805  29.812  19.276  1.00  0.00     0.176 HD
ENDROOT
TORSDOF 0
ENDMDL
MODEL 5
REMARK VINA RESULT: -4.240593296      1.645      3.081
REMARK  0 active torsions:
REMARK  status: ('A' for Active; 'I' for Inactive)
ROOT
HETATM    1  C1  UNL     1      53.917  30.108  19.657  1.00  0.00     0.033 C 
HETATM    2  C2  UNL     1      54.703  30.299  20.933  1.00  0.00     0.091 C 
HETATM    3  C3  UNL     1      54.707  29.039  21.753  1.00  0.00     0.026 C 
HETATM    4  C4  UNL     1      55.574  27.959  21.214  1.00  0.00     0.003 C 
HETATM    5  C5  UNL     1      57.031  28.117  21.511  1.00  0.00     0.018 C 
HETATM    6  C6  UNL     1      57.701  29.240  20.819  1.00  0.00     0.134 C 
HETATM    7  N1  UNL     1      56.861  30.055  20.004  1.00  0.00    -0.146 NA
HETATM    8  N2  UNL     1      55.997  30.855  20.706  1.00  0.00    -0.335 N 
ATOM      9  H2  UNL     1      56.260  31.782  21.041  1.00  0.00     0.176 HD
ENDROOT
TORSDOF 0
ENDMDL
