MODEL 1
REMARK VINA RESULT: -7.111044218      0.000      0.000
REMARK  16 active torsions:
REMARK  status: ('A' for Active; 'I' for Inactive)
REMARK    1  A    between atoms: S1_2  and  C2_3 
REMARK    2  A    between atoms: C3_5  and  O2_6 
REMARK    3  A    between atoms: C4_8  and  O3_9 
REMARK    4  A    between atoms: C5_11  and  O4_12 
REMARK    5  A    between atoms: C6_14  and  O5_15 
REMARK    6  A    between atoms: O5_15  and  C7_16 
REMARK    7  A    between atoms: C8_17  and  O6_18 
REMARK    8  A    between atoms: O6_18  and  C9_19 
REMARK    9  A    between atoms: C11_22  and  O8_23 
REMARK   10  A    between atoms: O8_23  and  C12_24 
REMARK   11  A    between atoms: C14_27  and  O10_28 
REMARK   12  A    between atoms: O10_28  and  C15_29 
REMARK   13  A    between atoms: C17_32  and  O12_33 
REMARK   14  A    between atoms: O12_33  and  C18_34 
REMARK   15  A    between atoms: C20_37  and  O14_38 
REMARK   16  A    between atoms: O14_38  and  C21_39 
ROOT
HETATM    1  C7  UNL     1      38.772  -2.548 128.507  1.00  0.00     0.186 C 
HETATM    2  C8  UNL     1      39.503  -2.991 129.749  1.00  0.00     0.195 C 
HETATM    3  C11 UNL     1      38.519  -3.341 130.847  1.00  0.00     0.196 C 
HETATM    4  C14 UNL     1      37.863  -1.990 131.169  1.00  0.00     0.196 C 
HETATM    5  C17 UNL     1      36.902  -1.758 130.034  1.00  0.00     0.196 C 
HETATM    6  C20 UNL     1      37.306  -2.302 128.725  1.00  0.00     0.195 C 
ENDROOT
BRANCH   1   7
HETATM    7  O5  UNL     1      39.007  -3.436 127.454  1.00  0.00    -0.369 OA
BRANCH   7   8
HETATM    8  C6  UNL     1      39.365  -2.862 126.277  1.00  0.00     0.192 C 
HETATM    9  C2  UNL     1      39.791  -1.433 126.340  1.00  0.00     0.217 C 
HETATM   10  O1  UNL     1      41.171  -1.284 126.113  1.00  0.00    -0.341 OA
HETATM   11  C3  UNL     1      41.502  -1.624 124.802  1.00  0.00     0.289 C 
HETATM   12  C4  UNL     1      41.008  -2.991 124.441  1.00  0.00     0.204 C 
HETATM   13  C5  UNL     1      40.545  -3.661 125.722  1.00  0.00     0.184 C 
BRANCH   9  14
HETATM   14  S1  UNL     1      38.887  -0.500 125.072  1.00  0.00    -0.139 SA
HETATM   15  C1  UNL     1      37.274  -1.260 124.739  1.00  0.00     0.092 C 
ENDBRANCH   9  14
BRANCH  11  16
HETATM   16  O2  UNL     1      42.891  -1.627 124.717  1.00  0.00    -0.368 OA
ATOM     17  H2  UNL     1      43.185  -2.488 124.991  1.00  0.00     0.212 HD
ENDBRANCH  11  16
BRANCH  12  18
HETATM   18  O3  UNL     1      39.981  -3.004 123.521  1.00  0.00    -0.388 OA
ATOM     19  H3  UNL     1      40.069  -3.662 122.842  1.00  0.00     0.210 HD
ENDBRANCH  12  18
BRANCH  13  20
HETATM   20  O4  UNL     1      41.607  -3.698 126.603  1.00  0.00    -0.390 OA
ATOM     21  H4  UNL     1      41.277  -3.534 127.479  1.00  0.00     0.210 HD
ENDBRANCH  13  20
ENDBRANCH   7   8
ENDBRANCH   1   7
BRANCH   2  22
HETATM   22  O6  UNL     1      40.449  -3.999 129.533  1.00  0.00    -0.311 OA
BRANCH  22  23
HETATM   23  C9  UNL     1      41.745  -3.958 130.031  1.00  0.00     0.255 C 
HETATM   24  C10 UNL     1      42.647  -5.079 129.709  1.00  0.00     0.126 C 
HETATM   25  O7  UNL     1      42.037  -2.967 130.716  1.00  0.00    -0.266 OA
ENDBRANCH  22  23
ENDBRANCH   2  22
BRANCH   6  26
HETATM   26  O14 UNL     1      36.529  -3.439 128.399  1.00  0.00    -0.311 OA
BRANCH  26  27
HETATM   27  C21 UNL     1      35.684  -3.533 127.314  1.00  0.00     0.255 C 
HETATM   28  C22 UNL     1      34.622  -2.551 127.105  1.00  0.00     0.126 C 
HETATM   29  O15 UNL     1      35.884  -4.493 126.545  1.00  0.00    -0.266 OA
ENDBRANCH  26  27
ENDBRANCH   6  26
BRANCH   3  30
HETATM   30  O8  UNL     1      39.122  -3.901 131.962  1.00  0.00    -0.311 OA
BRANCH  30  31
HETATM   31  C12 UNL     1      38.743  -5.163 132.394  1.00  0.00     0.255 C 
HETATM   32  C13 UNL     1      39.383  -6.404 131.916  1.00  0.00     0.126 C 
HETATM   33  O9  UNL     1      37.802  -5.282 133.239  1.00  0.00    -0.266 OA
ENDBRANCH  30  31
ENDBRANCH   3  30
BRANCH   5  34
HETATM   34  O12 UNL     1      36.766  -0.329 129.942  1.00  0.00    -0.311 OA
BRANCH  34  35
HETATM   35  C18 UNL     1      35.575   0.327 130.032  1.00  0.00     0.255 C 
HETATM   36  C19 UNL     1      35.444   1.800 130.204  1.00  0.00     0.126 C 
HETATM   37  O13 UNL     1      34.514  -0.370 129.964  1.00  0.00    -0.266 OA
ENDBRANCH  34  35
ENDBRANCH   5  34
BRANCH   4  38
HETATM   38  O10 UNL     1      37.233  -1.998 132.418  1.00  0.00    -0.311 OA
BRANCH  38  39
HETATM   39  C15 UNL     1      37.468  -0.927 133.281  1.00  0.00     0.255 C 
HETATM   40  C16 UNL     1      36.436   0.065 133.647  1.00  0.00     0.126 C 
HETATM   41  O11 UNL     1      38.622  -0.758 133.803  1.00  0.00    -0.266 OA
ENDBRANCH  38  39
ENDBRANCH   4  38
TORSDOF 16
ENDMDL
MODEL 2
REMARK VINA RESULT: -7.002018347      2.269      7.074
REMARK  16 active torsions:
REMARK  status: ('A' for Active; 'I' for Inactive)
REMARK    1  A    between atoms: S1_2  and  C2_3 
REMARK    2  A    between atoms: C3_5  and  O2_6 
REMARK    3  A    between atoms: C4_8  and  O3_9 
REMARK    4  A    between atoms: C5_11  and  O4_12 
REMARK    5  A    between atoms: C6_14  and  O5_15 
REMARK    6  A    between atoms: O5_15  and  C7_16 
REMARK    7  A    between atoms: C8_17  and  O6_18 
REMARK    8  A    between atoms: O6_18  and  C9_19 
REMARK    9  A    between atoms: C11_22  and  O8_23 
REMARK   10  A    between atoms: O8_23  and  C12_24 
REMARK   11  A    between atoms: C14_27  and  O10_28 
REMARK   12  A    between atoms: O10_28  and  C15_29 
REMARK   13  A    between atoms: C17_32  and  O12_33 
REMARK   14  A    between atoms: O12_33  and  C18_34 
REMARK   15  A    between atoms: C20_37  and  O14_38 
REMARK   16  A    between atoms: O14_38  and  C21_39 
ROOT
HETATM    1  C7  UNL     1      38.009  -1.527 129.009  1.00  0.00     0.186 C 
HETATM    2  C8  UNL     1      37.364  -2.426 127.985  1.00  0.00     0.195 C 
HETATM    3  C11 UNL     1      38.306  -3.548 127.597  1.00  0.00     0.196 C 
HETATM    4  C14 UNL     1      39.452  -2.810 126.890  1.00  0.00     0.196 C 
HETATM    5  C17 UNL     1      40.247  -2.190 128.007  1.00  0.00     0.196 C 
HETATM    6  C20 UNL     1      39.479  -1.781 129.196  1.00  0.00     0.195 C 
ENDROOT
BRANCH   1   7
HETATM    7  O5  UNL     1      37.309  -1.574 130.218  1.00  0.00    -0.369 OA
BRANCH   7   8
HETATM    8  C6  UNL     1      36.910  -0.372 130.707  1.00  0.00     0.192 C 
HETATM    9  C2  UNL     1      36.510   0.654 129.699  1.00  0.00     0.217 C 
HETATM   10  O1  UNL     1      35.125   0.893 129.712  1.00  0.00    -0.341 OA
HETATM   11  C3  UNL     1      34.733   1.498 130.906  1.00  0.00     0.289 C 
HETATM   12  C4  UNL     1      35.189   0.716 132.100  1.00  0.00     0.204 C 
HETATM   13  C5  UNL     1      35.695  -0.625 131.600  1.00  0.00     0.184 C 
BRANCH   9  14
HETATM   14  S1  UNL     1      37.375   2.205 130.074  1.00  0.00    -0.139 SA
HETATM   15  C1  UNL     1      39.009   1.878 130.788  1.00  0.00     0.092 C 
ENDBRANCH   9  14
BRANCH  11  16
HETATM   16  O2  UNL     1      33.342   1.529 130.913  1.00  0.00    -0.368 OA
ATOM     17  H2  UNL     1      33.083   2.426 131.087  1.00  0.00     0.212 HD
ENDBRANCH  11  16
BRANCH  12  18
HETATM   18  O3  UNL     1      36.175   1.330 132.843  1.00  0.00    -0.388 OA
ATOM     19  H3  UNL     1      36.055   1.270 133.783  1.00  0.00     0.210 HD
ENDBRANCH  12  18
BRANCH  13  20
HETATM   20  O4  UNL     1      34.671  -1.250 130.918  1.00  0.00    -0.390 OA
ATOM     21  H4  UNL     1      34.631  -2.157 131.201  1.00  0.00     0.210 HD
ENDBRANCH  13  20
ENDBRANCH   7   8
ENDBRANCH   1   7
BRANCH   2  22
HETATM   22  O6  UNL     1      36.094  -2.890 128.344  1.00  0.00    -0.311 OA
BRANCH  22  23
HETATM   23  C9  UNL     1      34.923  -2.495 127.710  1.00  0.00     0.255 C 
HETATM   24  C10 UNL     1      34.880  -2.552 126.237  1.00  0.00     0.126 C 
HETATM   25  O7  UNL     1      34.000  -2.122 128.448  1.00  0.00    -0.266 OA
ENDBRANCH  22  23
ENDBRANCH   2  22
BRANCH   6  26
HETATM   26  O14 UNL     1      39.726  -2.664 130.274  1.00  0.00    -0.311 OA
BRANCH  26  27
HETATM   27  C21 UNL     1      40.655  -2.454 131.269  1.00  0.00     0.255 C 
HETATM   28  C22 UNL     1      40.355  -1.582 132.403  1.00  0.00     0.126 C 
HETATM   29  O15 UNL     1      41.744  -3.045 131.136  1.00  0.00    -0.266 OA
ENDBRANCH  26  27
ENDBRANCH   6  26
BRANCH   3  30
HETATM   30  O8  UNL     1      37.716  -4.496 126.775  1.00  0.00    -0.311 OA
BRANCH  30  31
HETATM   31  C12 UNL     1      37.843  -5.844 127.071  1.00  0.00     0.255 C 
HETATM   32  C13 UNL     1      37.227  -6.470 128.258  1.00  0.00     0.126 C 
HETATM   33  O9  UNL     1      38.517  -6.597 126.301  1.00  0.00    -0.266 OA
ENDBRANCH  30  31
ENDBRANCH   3  30
BRANCH   5  34
HETATM   34  O12 UNL     1      40.882  -1.039 127.423  1.00  0.00    -0.311 OA
BRANCH  34  35
HETATM   35  C18 UNL     1      40.259  -0.181 126.566  1.00  0.00     0.255 C 
HETATM   36  C19 UNL     1      39.207   0.789 126.975  1.00  0.00     0.126 C 
HETATM   37  O13 UNL     1      40.604  -0.219 125.343  1.00  0.00    -0.266 OA
ENDBRANCH  34  35
ENDBRANCH   5  34
BRANCH   4  38
HETATM   38  O10 UNL     1      40.217  -3.671 126.094  1.00  0.00    -0.311 OA
BRANCH  38  39
HETATM   39  C15 UNL     1      40.361  -3.363 124.741  1.00  0.00     0.255 C 
HETATM   40  C16 UNL     1      39.218  -3.189 123.820  1.00  0.00     0.126 C 
HETATM   41  O11 UNL     1      41.523  -3.215 124.230  1.00  0.00    -0.266 OA
ENDBRANCH  38  39
ENDBRANCH   4  38
TORSDOF 16
ENDMDL
MODEL 3
REMARK VINA RESULT: -6.999055833      2.276      5.286
REMARK  16 active torsions:
REMARK  status: ('A' for Active; 'I' for Inactive)
REMARK    1  A    between atoms: S1_2  and  C2_3 
REMARK    2  A    between atoms: C3_5  and  O2_6 
REMARK    3  A    between atoms: C4_8  and  O3_9 
REMARK    4  A    between atoms: C5_11  and  O4_12 
REMARK    5  A    between atoms: C6_14  and  O5_15 
REMARK    6  A    between atoms: O5_15  and  C7_16 
REMARK    7  A    between atoms: C8_17  and  O6_18 
REMARK    8  A    between atoms: O6_18  and  C9_19 
REMARK    9  A    between atoms: C11_22  and  O8_23 
REMARK   10  A    between atoms: O8_23  and  C12_24 
REMARK   11  A    between atoms: C14_27  and  O10_28 
REMARK   12  A    between atoms: O10_28  and  C15_29 
REMARK   13  A    between atoms: C17_32  and  O12_33 
REMARK   14  A    between atoms: O12_33  and  C18_34 
REMARK   15  A    between atoms: C20_37  and  O14_38 
REMARK   16  A    between atoms: O14_38  and  C21_39 
ROOT
HETATM    1  C7  UNL     1      38.562  -3.061 128.603  1.00  0.00     0.186 C 
HETATM    2  C8  UNL     1      37.408  -2.135 128.314  1.00  0.00     0.195 C 
HETATM    3  C11 UNL     1      37.449  -0.933 129.236  1.00  0.00     0.196 C 
HETATM    4  C14 UNL     1      37.195  -1.549 130.620  1.00  0.00     0.196 C 
HETATM    5  C17 UNL     1      38.502  -2.196 130.991  1.00  0.00     0.196 C 
HETATM    6  C20 UNL     1      39.297  -2.732 129.872  1.00  0.00     0.195 C 
ENDROOT
BRANCH   1   7
HETATM    7  O5  UNL     1      39.419  -3.141 127.503  1.00  0.00    -0.369 OA
BRANCH   7   8
HETATM    8  C6  UNL     1      39.769  -4.398 127.127  1.00  0.00     0.192 C 
HETATM    9  C2  UNL     1      39.176  -4.897 125.851  1.00  0.00     0.217 C 
HETATM   10  O1  UNL     1      40.134  -4.997 124.827  1.00  0.00    -0.341 OA
HETATM   11  C3  UNL     1      41.071  -5.990 125.115  1.00  0.00     0.289 C 
HETATM   12  C4  UNL     1      41.692  -5.793 126.464  1.00  0.00     0.204 C 
HETATM   13  C5  UNL     1      41.288  -4.414 126.955  1.00  0.00     0.184 C 
BRANCH   9  14
HETATM   14  S1  UNL     1      38.461  -6.539 126.146  1.00  0.00    -0.139 SA
HETATM   15  C1  UNL     1      37.605  -6.594 127.744  1.00  0.00     0.092 C 
ENDBRANCH   9  14
BRANCH  11  16
HETATM   16  O2  UNL     1      42.074  -5.897 124.156  1.00  0.00    -0.368 OA
ATOM     17  H2  UNL     1      42.830  -6.360 124.496  1.00  0.00     0.212 HD
ENDBRANCH  11  16
BRANCH  12  18
HETATM   18  O3  UNL     1      41.334  -6.737 127.402  1.00  0.00    -0.388 OA
ATOM     19  H3  UNL     1      41.914  -6.786 128.153  1.00  0.00     0.210 HD
ENDBRANCH  12  18
BRANCH  13  20
HETATM   20  O4  UNL     1      41.716  -3.480 126.032  1.00  0.00    -0.390 OA
ATOM     21  H4  UNL     1      40.955  -3.025 125.691  1.00  0.00     0.210 HD
ENDBRANCH  13  20
ENDBRANCH   7   8
ENDBRANCH   1   7
BRANCH   2  22
HETATM   22  O6  UNL     1      37.282  -1.775 126.967  1.00  0.00    -0.311 OA
BRANCH  22  23
HETATM   23  C9  UNL     1      36.200  -2.134 126.174  1.00  0.00     0.255 C 
HETATM   24  C10 UNL     1      35.587  -3.457 126.395  1.00  0.00     0.126 C 
HETATM   25  O7  UNL     1      35.837  -1.298 125.333  1.00  0.00    -0.266 OA
ENDBRANCH  22  23
ENDBRANCH   2  22
BRANCH   6  26
HETATM   26  O14 UNL     1      40.425  -1.912 129.626  1.00  0.00    -0.311 OA
BRANCH  26  27
HETATM   27  C21 UNL     1      41.479  -1.737 130.497  1.00  0.00     0.255 C 
HETATM   28  C22 UNL     1      41.886  -0.399 130.922  1.00  0.00     0.126 C 
HETATM   29  O15 UNL     1      42.046  -2.776 130.886  1.00  0.00    -0.266 OA
ENDBRANCH  26  27
ENDBRANCH   6  26
BRANCH   3  30
HETATM   30  O8  UNL     1      36.506   0.031 128.918  1.00  0.00    -0.311 OA
BRANCH  30  31
HETATM   31  C12 UNL     1      36.914   1.293 128.516  1.00  0.00     0.255 C 
HETATM   32  C13 UNL     1      36.828   1.761 127.118  1.00  0.00     0.126 C 
HETATM   33  O9  UNL     1      37.390   2.103 129.371  1.00  0.00    -0.266 OA
ENDBRANCH  30  31
ENDBRANCH   3  30
BRANCH   5  34
HETATM   34  O12 UNL     1      38.153  -3.263 131.890  1.00  0.00    -0.311 OA
BRANCH  34  35
HETATM   35  C18 UNL     1      38.682  -3.407 133.137  1.00  0.00     0.255 C 
HETATM   36  C19 UNL     1      37.992  -4.096 134.262  1.00  0.00     0.126 C 
HETATM   37  O13 UNL     1      39.838  -2.920 133.345  1.00  0.00    -0.266 OA
ENDBRANCH  34  35
ENDBRANCH   5  34
BRANCH   4  38
HETATM   38  O10 UNL     1      36.782  -0.590 131.552  1.00  0.00    -0.311 OA
BRANCH  38  39
HETATM   39  C15 UNL     1      35.620  -0.841 132.283  1.00  0.00     0.255 C 
HETATM   40  C16 UNL     1      35.603  -1.009 133.752  1.00  0.00     0.126 C 
HETATM   41  O11 UNL     1      34.492  -0.939 131.692  1.00  0.00    -0.266 OA
ENDBRANCH  38  39
ENDBRANCH   4  38
TORSDOF 16
ENDMDL
MODEL 4
REMARK VINA RESULT: -6.992961644      2.436      5.773
REMARK  16 active torsions:
REMARK  status: ('A' for Active; 'I' for Inactive)
REMARK    1  A    between atoms: S1_2  and  C2_3 
REMARK    2  A    between atoms: C3_5  and  O2_6 
REMARK    3  A    between atoms: C4_8  and  O3_9 
REMARK    4  A    between atoms: C5_11  and  O4_12 
REMARK    5  A    between atoms: C6_14  and  O5_15 
REMARK    6  A    between atoms: O5_15  and  C7_16 
REMARK    7  A    between atoms: C8_17  and  O6_18 
REMARK    8  A    between atoms: O6_18  and  C9_19 
REMARK    9  A    between atoms: C11_22  and  O8_23 
REMARK   10  A    between atoms: O8_23  and  C12_24 
REMARK   11  A    between atoms: C14_27  and  O10_28 
REMARK   12  A    between atoms: O10_28  and  C15_29 
REMARK   13  A    between atoms: C17_32  and  O12_33 
REMARK   14  A    between atoms: O12_33  and  C18_34 
REMARK   15  A    between atoms: C20_37  and  O14_38 
REMARK   16  A    between atoms: O14_38  and  C21_39 
ROOT
HETATM    1  C7  UNL     1      37.896  -2.490 130.337  1.00  0.00     0.186 C 
HETATM    2  C8  UNL     1      37.411  -1.414 131.275  1.00  0.00     0.195 C 
HETATM    3  C11 UNL     1      38.370  -1.253 132.438  1.00  0.00     0.196 C 
HETATM    4  C14 UNL     1      38.241  -2.591 133.182  1.00  0.00     0.196 C 
HETATM    5  C17 UNL     1      39.023  -3.565 132.343  1.00  0.00     0.196 C 
HETATM    6  C20 UNL     1      39.026  -3.311 130.892  1.00  0.00     0.195 C 
ENDROOT
BRANCH   1   7
HETATM    7  O5  UNL     1      38.202  -1.951 129.085  1.00  0.00    -0.369 OA
BRANCH   7   8
HETATM    8  C6  UNL     1      37.675  -2.612 128.022  1.00  0.00     0.192 C 
HETATM    9  C2  UNL     1      36.516  -3.507 128.307  1.00  0.00     0.217 C 
HETATM   10  O1  UNL     1      35.314  -2.995 127.788  1.00  0.00    -0.341 OA
HETATM   11  C3  UNL     1      35.335  -2.988 126.393  1.00  0.00     0.289 C 
HETATM   12  C4  UNL     1      36.538  -2.275 125.859  1.00  0.00     0.204 C 
HETATM   13  C5  UNL     1      37.197  -1.558 127.023  1.00  0.00     0.184 C 
BRANCH   9  14
HETATM   14  S1  UNL     1      36.834  -5.127 127.554  1.00  0.00    -0.139 SA
HETATM   15  C1  UNL     1      37.513  -6.285 128.774  1.00  0.00     0.092 C 
ENDBRANCH   9  14
BRANCH  11  16
HETATM   16  O2  UNL     1      34.200  -2.304 125.970  1.00  0.00    -0.368 OA
ATOM     17  H2  UNL     1      34.427  -1.382 125.931  1.00  0.00     0.212 HD
ENDBRANCH  11  16
BRANCH  12  18
HETATM   18  O3  UNL     1      37.462  -3.093 125.243  1.00  0.00    -0.388 OA
ATOM     19  H3  UNL     1      37.585  -2.922 124.317  1.00  0.00     0.210 HD
ENDBRANCH  12  18
BRANCH  13  20
HETATM   20  O4  UNL     1      36.274  -0.695 127.581  1.00  0.00    -0.390 OA
ATOM     21  H4  UNL     1      35.534  -1.205 127.889  1.00  0.00     0.210 HD
ENDBRANCH  13  20
ENDBRANCH   7   8
ENDBRANCH   1   7
BRANCH   2  22
HETATM   22  O6  UNL     1      37.112  -0.197 130.652  1.00  0.00    -0.311 OA
BRANCH  22  23
HETATM   23  C9  UNL     1      35.850   0.381 130.660  1.00  0.00     0.255 C 
HETATM   24  C10 UNL     1      35.657   1.614 131.447  1.00  0.00     0.126 C 
HETATM   25  O7  UNL     1      34.978  -0.198 129.995  1.00  0.00    -0.266 OA
ENDBRANCH  22  23
ENDBRANCH   2  22
BRANCH   6  26
HETATM   26  O14 UNL     1      40.286  -2.817 130.477  1.00  0.00    -0.311 OA
BRANCH  26  27
HETATM   27  C21 UNL     1      41.297  -3.585 129.941  1.00  0.00     0.255 C 
HETATM   28  C22 UNL     1      41.100  -4.318 128.692  1.00  0.00     0.126 C 
HETATM   29  O15 UNL     1      42.366  -3.609 130.582  1.00  0.00    -0.266 OA
ENDBRANCH  26  27
ENDBRANCH   6  26
BRANCH   3  30
HETATM   30  O8  UNL     1      38.061  -0.176 133.254  1.00  0.00    -0.311 OA
BRANCH  30  31
HETATM   31  C12 UNL     1      39.020   0.792 133.515  1.00  0.00     0.255 C 
HETATM   32  C13 UNL     1      39.647   0.967 134.839  1.00  0.00     0.126 C 
HETATM   33  O9  UNL     1      39.391   1.576 132.587  1.00  0.00    -0.266 OA
ENDBRANCH  30  31
ENDBRANCH   3  30
BRANCH   5  34
HETATM   34  O12 UNL     1      38.432  -4.849 132.608  1.00  0.00    -0.311 OA
BRANCH  34  35
HETATM   35  C18 UNL     1      39.130  -5.927 133.060  1.00  0.00     0.255 C 
HETATM   36  C19 UNL     1      39.266  -6.291 134.498  1.00  0.00     0.126 C 
HETATM   37  O13 UNL     1      39.700  -6.664 132.195  1.00  0.00    -0.266 OA
ENDBRANCH  34  35
ENDBRANCH   5  34
BRANCH   4  38
HETATM   38  O10 UNL     1      38.714  -2.506 134.496  1.00  0.00    -0.311 OA
BRANCH  38  39
HETATM   39  C15 UNL     1      37.798  -2.668 135.536  1.00  0.00     0.255 C 
HETATM   40  C16 UNL     1      37.432  -1.586 136.475  1.00  0.00     0.126 C 
HETATM   41  O11 UNL     1      37.223  -3.793 135.724  1.00  0.00    -0.266 OA
ENDBRANCH  38  39
ENDBRANCH   4  38
TORSDOF 16
ENDMDL
MODEL 5
REMARK VINA RESULT: -6.977402247      2.301      3.712
REMARK  16 active torsions:
REMARK  status: ('A' for Active; 'I' for Inactive)
REMARK    1  A    between atoms: S1_2  and  C2_3 
REMARK    2  A    between atoms: C3_5  and  O2_6 
REMARK    3  A    between atoms: C4_8  and  O3_9 
REMARK    4  A    between atoms: C5_11  and  O4_12 
REMARK    5  A    between atoms: C6_14  and  O5_15 
REMARK    6  A    between atoms: O5_15  and  C7_16 
REMARK    7  A    between atoms: C8_17  and  O6_18 
REMARK    8  A    between atoms: O6_18  and  C9_19 
REMARK    9  A    between atoms: C11_22  and  O8_23 
REMARK   10  A    between atoms: O8_23  and  C12_24 
REMARK   11  A    between atoms: C14_27  and  O10_28 
REMARK   12  A    between atoms: O10_28  and  C15_29 
REMARK   13  A    between atoms: C17_32  and  O12_33 
REMARK   14  A    between atoms: O12_33  and  C18_34 
REMARK   15  A    between atoms: C20_37  and  O14_38 
REMARK   16  A    between atoms: O14_38  and  C21_39 
ROOT
HETATM    1  C7  UNL     1      37.448  -2.010 129.081  1.00  0.00     0.186 C 
HETATM    2  C8  UNL     1      37.882  -1.733 130.497  1.00  0.00     0.195 C 
HETATM    3  C11 UNL     1      36.832  -0.918 131.225  1.00  0.00     0.196 C 
HETATM    4  C14 UNL     1      36.854   0.423 130.477  1.00  0.00     0.196 C 
HETATM    5  C17 UNL     1      36.118   0.151 129.193  1.00  0.00     0.196 C 
HETATM    6  C20 UNL     1      36.249  -1.213 128.650  1.00  0.00     0.195 C 
ENDROOT
BRANCH   1   7
HETATM    7  O5  UNL     1      37.268  -3.381 128.879  1.00  0.00    -0.369 OA
BRANCH   7   8
HETATM    8  C6  UNL     1      37.923  -3.903 127.810  1.00  0.00     0.192 C 
HETATM    9  C2  UNL     1      39.357  -3.517 127.659  1.00  0.00     0.217 C 
HETATM   10  O1  UNL     1      40.224  -4.592 127.923  1.00  0.00    -0.341 OA
HETATM   11  C3  UNL     1      40.092  -5.589 126.956  1.00  0.00     0.289 C 
HETATM   12  C4  UNL     1      38.668  -6.027 126.801  1.00  0.00     0.204 C 
HETATM   13  C5  UNL     1      37.878  -5.425 127.949  1.00  0.00     0.184 C 
BRANCH   9  14
HETATM   14  S1  UNL     1      39.629  -2.952 125.956  1.00  0.00    -0.139 SA
HETATM   15  C1  UNL     1      38.066  -2.458 125.180  1.00  0.00     0.092 C 
ENDBRANCH   9  14
BRANCH  11  16
HETATM   16  O2  UNL     1      40.838  -6.681 127.390  1.00  0.00    -0.368 OA
ATOM     17  H2  UNL     1      40.221  -7.352 127.657  1.00  0.00     0.212 HD
ENDBRANCH  11  16
BRANCH  12  18
HETATM   18  O3  UNL     1      38.085  -5.666 125.605  1.00  0.00    -0.388 OA
ATOM     19  H3  UNL     1      37.985  -4.729 125.482  1.00  0.00     0.210 HD
ENDBRANCH  12  18
BRANCH  13  20
HETATM   20  O4  UNL     1      38.438  -5.856 129.135  1.00  0.00    -0.390 OA
ATOM     21  H4  UNL     1      38.310  -5.179 129.790  1.00  0.00     0.210 HD
ENDBRANCH  13  20
ENDBRANCH   7   8
ENDBRANCH   1   7
BRANCH   2  22
HETATM   22  O6  UNL     1      38.272  -2.870 131.214  1.00  0.00    -0.311 OA
BRANCH  22  23
HETATM   23  C9  UNL     1      39.595  -3.191 131.487  1.00  0.00     0.255 C 
HETATM   24  C10 UNL     1      40.477  -2.125 131.999  1.00  0.00     0.126 C 
HETATM   25  O7  UNL     1      39.929  -4.367 131.272  1.00  0.00    -0.266 OA
ENDBRANCH  22  23
ENDBRANCH   2  22
BRANCH   6  26
HETATM   26  O14 UNL     1      35.045  -1.936 128.830  1.00  0.00    -0.311 OA
BRANCH  26  27
HETATM   27  C21 UNL     1      34.151  -2.242 127.827  1.00  0.00     0.255 C 
HETATM   28  C22 UNL     1      34.619  -2.633 126.499  1.00  0.00     0.126 C 
HETATM   29  O15 UNL     1      32.944  -2.163 128.126  1.00  0.00    -0.266 OA
ENDBRANCH  26  27
ENDBRANCH   6  26
BRANCH   3  30
HETATM   30  O8  UNL     1      37.102  -0.761 132.575  1.00  0.00    -0.311 OA
BRANCH  30  31
HETATM   31  C12 UNL     1      36.177  -1.181 133.519  1.00  0.00     0.255 C 
HETATM   32  C13 UNL     1      36.561  -1.751 134.825  1.00  0.00     0.126 C 
HETATM   33  O9  UNL     1      34.935  -1.082 133.271  1.00  0.00    -0.266 OA
ENDBRANCH  30  31
ENDBRANCH   3  30
BRANCH   5  34
HETATM   34  O12 UNL     1      36.644   1.100 128.248  1.00  0.00    -0.311 OA
BRANCH  34  35
HETATM   35  C18 UNL     1      37.126   0.760 127.020  1.00  0.00     0.255 C 
HETATM   36  C19 UNL     1      36.288   0.649 125.795  1.00  0.00     0.126 C 
HETATM   37  O13 UNL     1      38.372   0.523 126.923  1.00  0.00    -0.266 OA
ENDBRANCH  34  35
ENDBRANCH   5  34
BRANCH   4  38
HETATM   38  O10 UNL     1      36.272   1.451 131.227  1.00  0.00    -0.311 OA
BRANCH  38  39
HETATM   39  C15 UNL     1      34.954   1.808 130.943  1.00  0.00     0.255 C 
HETATM   40  C16 UNL     1      34.553   3.164 130.511  1.00  0.00     0.126 C 
HETATM   41  O11 UNL     1      34.013   0.950 131.051  1.00  0.00    -0.266 OA
ENDBRANCH  38  39
ENDBRANCH   4  38
TORSDOF 16
ENDMDL
