MODEL 1
REMARK VINA RESULT: -9.886188658      0.000      0.000
REMARK  11 active torsions:
REMARK  status: ('A' for Active; 'I' for Inactive)
REMARK    1  A    between atoms: C2_5  and  C3_6 
REMARK    2  A    between atoms: C3_6  and  C4_7 
REMARK    3  A    between atoms: C4_7  and  N2_8 
REMARK    4  A    between atoms: C12_16  and  O1_17 
REMARK    5  A    between atoms: C12_16  and  C13_19 
REMARK    6  A    between atoms: C13_19  and  C14_20 
REMARK    7  A    between atoms: C14_20  and  C15_21 
REMARK    8  A    between atoms: C15_21  and  C16_22 
REMARK    9  A    between atoms: C16_22  and  C17_23 
REMARK   10  A    between atoms: N3_30  and  C24_31 
REMARK   11  A    between atoms: C24_31  and  C25_32 
ROOT
HETATM    1  N1  UNL     1      14.694  -8.032  24.656  1.00  0.00    -0.389 N 
ATOM      2  H11 UNL     1      14.924  -7.495  25.492  1.00  0.00     0.157 HD
ATOM      3  H12 UNL     1      13.693  -8.227  24.669  1.00  0.00     0.157 HD
HETATM    4  C1  UNL     1      15.512  -8.399  23.747  1.00  0.00     0.080 C 
HETATM    5  C2  UNL     1      15.172  -9.190  22.517  1.00  0.00     0.090 C 
HETATM    6  C12 UNL     1      16.356  -8.903  21.682  1.00  0.00     0.084 C 
HETATM    7  C23 UNL     1      17.457  -9.051  22.754  1.00  0.00     0.162 C 
HETATM    8  N3  UNL     1      16.918  -8.125  23.730  1.00  0.00    -0.367 N 
ENDROOT
BRANCH   6   9
HETATM    9  O1  UNL     1      16.490  -7.594  21.250  1.00  0.00    -0.387 OA
ATOM     10  H1  UNL     1      17.351  -7.347  20.934  1.00  0.00     0.210 HD
ENDBRANCH   6   9
BRANCH   6  11
HETATM   11  C13 UNL     1      16.606  -9.809  20.517  1.00  0.00     0.040 C 
BRANCH  11  12
HETATM   12  C14 UNL     1      17.966 -10.395  20.466  1.00  0.00     0.003 C 
BRANCH  12  13
HETATM   13  C15 UNL     1      18.003 -11.559  19.516  1.00  0.00     0.000 C 
BRANCH  13  14
HETATM   14  C16 UNL     1      16.642 -11.851  19.003  1.00  0.00     0.004 C 
BRANCH  14  15
HETATM   15  C17 UNL     1      16.612 -12.568  17.672  1.00  0.00    -0.014 C 
HETATM   16  C18 UNL     1      16.906 -14.026  17.743  1.00  0.00     0.004 C 
HETATM   17  C19 UNL     1      16.014 -14.736  16.738  1.00  0.00     0.000 C 
HETATM   18  C20 UNL     1      16.122 -14.092  15.393  1.00  0.00     0.000 C 
HETATM   19  C21 UNL     1      15.761 -12.635  15.414  1.00  0.00     0.000 C 
HETATM   20  C22 UNL     1      15.383 -12.249  16.849  1.00  0.00     0.004 C 
ENDBRANCH  14  15
ENDBRANCH  13  14
ENDBRANCH  12  13
ENDBRANCH  11  12
ENDBRANCH   6  11
BRANCH   5  21
HETATM   21  C3  UNL     1      13.834  -8.928  21.971  1.00  0.00     0.043 C 
BRANCH  21  22
HETATM   22  C4  UNL     1      12.799  -9.975  22.134  1.00  0.00     0.238 C 
BRANCH  22  23
HETATM   23  N2  UNL     1      11.449  -9.486  21.886  1.00  0.00    -0.067 N 
HETATM   24  C5  UNL     1      11.382  -8.096  21.578  1.00  0.00     0.238 C 
HETATM   25  C6  UNL     1      10.079  -7.861  20.811  1.00  0.00     0.032 C 
HETATM   26  C7  UNL     1       9.060  -8.910  21.247  1.00  0.00    -0.010 C 
HETATM   27  C8  UNL     1       9.210  -9.189  22.726  1.00  0.00     0.032 C 
HETATM   28  C10 UNL     1       9.503 -10.200  20.543  1.00  0.00     0.032 C 
HETATM   29  C9  UNL     1      10.590  -9.726  23.036  1.00  0.00     0.238 C 
HETATM   30  C11 UNL     1      10.985 -10.292  20.739  1.00  0.00     0.238 C 
ENDBRANCH  22  23
ENDBRANCH  21  22
ENDBRANCH   5  21
BRANCH   8  31
HETATM   31  C24 UNL     1      17.670  -7.166  24.480  1.00  0.00     0.128 C 
BRANCH  31  32
HETATM   32  C25 UNL     1      18.624  -6.319  23.740  1.00  0.00     0.004 C 
HETATM   33  C26 UNL     1      18.317  -4.834  23.758  1.00  0.00     0.006 C 
HETATM   34  C27 UNL     1      19.504  -4.317  22.934  1.00  0.00     0.000 C 
HETATM   35  C28 UNL     1      20.659  -5.146  23.407  1.00  0.00     0.000 C 
HETATM   36  C29 UNL     1      20.052  -6.354  24.137  1.00  0.00     0.006 C 
ENDBRANCH  31  32
ENDBRANCH   8  31
TORSDOF 11
ENDMDL
MODEL 2
REMARK VINA RESULT: -9.836307780      0.668      1.025
REMARK  11 active torsions:
REMARK  status: ('A' for Active; 'I' for Inactive)
REMARK    1  A    between atoms: C2_5  and  C3_6 
REMARK    2  A    between atoms: C3_6  and  C4_7 
REMARK    3  A    between atoms: C4_7  and  N2_8 
REMARK    4  A    between atoms: C12_16  and  O1_17 
REMARK    5  A    between atoms: C12_16  and  C13_19 
REMARK    6  A    between atoms: C13_19  and  C14_20 
REMARK    7  A    between atoms: C14_20  and  C15_21 
REMARK    8  A    between atoms: C15_21  and  C16_22 
REMARK    9  A    between atoms: C16_22  and  C17_23 
REMARK   10  A    between atoms: N3_30  and  C24_31 
REMARK   11  A    between atoms: C24_31  and  C25_32 
ROOT
HETATM    1  N1  UNL     1      15.202  -7.746  25.190  1.00  0.00    -0.389 N 
ATOM      2  H11 UNL     1      15.579  -7.227  25.982  1.00  0.00     0.157 HD
ATOM      3  H12 UNL     1      14.203  -7.881  25.344  1.00  0.00     0.157 HD
HETATM    4  C1  UNL     1      15.861  -8.158  24.177  1.00  0.00     0.080 C 
HETATM    5  C2  UNL     1      15.305  -8.923  23.010  1.00  0.00     0.090 C 
HETATM    6  C12 UNL     1      16.375  -8.705  22.016  1.00  0.00     0.084 C 
HETATM    7  C23 UNL     1      17.605  -8.922  22.923  1.00  0.00     0.162 C 
HETATM    8  N3  UNL     1      17.265  -7.969  23.961  1.00  0.00    -0.367 N 
ENDROOT
BRANCH   6   9
HETATM    9  O1  UNL     1      16.525  -7.404  21.564  1.00  0.00    -0.387 OA
ATOM     10  H1  UNL     1      16.356  -7.263  20.640  1.00  0.00     0.210 HD
ENDBRANCH   6   9
BRANCH   6  11
HETATM   11  C13 UNL     1      16.404  -9.619  20.832  1.00  0.00     0.040 C 
BRANCH  11  12
HETATM   12  C14 UNL     1      17.692 -10.320  20.620  1.00  0.00     0.003 C 
BRANCH  12  13
HETATM   13  C15 UNL     1      17.743 -10.925  19.245  1.00  0.00     0.000 C 
BRANCH  13  14
HETATM   14  C16 UNL     1      17.681 -12.404  19.328  1.00  0.00     0.004 C 
BRANCH  14  15
HETATM   15  C17 UNL     1      16.587 -13.035  18.496  1.00  0.00    -0.014 C 
HETATM   16  C18 UNL     1      15.320 -12.256  18.437  1.00  0.00     0.004 C 
HETATM   17  C19 UNL     1      14.751 -12.387  17.034  1.00  0.00     0.000 C 
HETATM   18  C20 UNL     1      14.677 -13.824  16.629  1.00  0.00     0.000 C 
HETATM   19  C21 UNL     1      16.010 -14.510  16.674  1.00  0.00     0.000 C 
HETATM   20  C22 UNL     1      17.064 -13.497  17.136  1.00  0.00     0.004 C 
ENDBRANCH  14  15
ENDBRANCH  13  14
ENDBRANCH  12  13
ENDBRANCH  11  12
ENDBRANCH   6  11
BRANCH   5  21
HETATM   21  C3  UNL     1      13.922  -8.579  22.656  1.00  0.00     0.043 C 
BRANCH  21  22
HETATM   22  C4  UNL     1      13.001  -9.682  22.299  1.00  0.00     0.238 C 
BRANCH  22  23
HETATM   23  N2  UNL     1      11.657  -9.222  21.973  1.00  0.00    -0.067 N 
HETATM   24  C5  UNL     1      11.592  -7.852  21.583  1.00  0.00     0.238 C 
HETATM   25  C6  UNL     1      10.317  -7.674  20.756  1.00  0.00     0.032 C 
HETATM   26  C7  UNL     1       9.290  -8.706  21.214  1.00  0.00    -0.010 C 
HETATM   27  C8  UNL     1       9.386  -8.898  22.712  1.00  0.00     0.032 C 
HETATM   28  C10 UNL     1       9.768 -10.030  20.602  1.00  0.00     0.032 C 
HETATM   29  C9  UNL     1      10.758  -9.403  23.102  1.00  0.00     0.238 C 
HETATM   30  C11 UNL     1      11.242 -10.096  20.858  1.00  0.00     0.238 C 
ENDBRANCH  22  23
ENDBRANCH  21  22
ENDBRANCH   5  21
BRANCH   8  31
HETATM   31  C24 UNL     1      18.170  -7.059  24.594  1.00  0.00     0.128 C 
BRANCH  31  32
HETATM   32  C25 UNL     1      18.866  -6.084  23.735  1.00  0.00     0.004 C 
HETATM   33  C26 UNL     1      18.354  -4.660  23.829  1.00  0.00     0.006 C 
HETATM   34  C27 UNL     1      19.312  -3.975  22.845  1.00  0.00     0.000 C 
HETATM   35  C28 UNL     1      20.633  -4.626  23.120  1.00  0.00     0.000 C 
HETATM   36  C29 UNL     1      20.328  -5.908  23.909  1.00  0.00     0.006 C 
ENDBRANCH  31  32
ENDBRANCH   8  31
TORSDOF 11
ENDMDL
MODEL 3
REMARK VINA RESULT: -9.755179214      1.225      2.139
REMARK  11 active torsions:
REMARK  status: ('A' for Active; 'I' for Inactive)
REMARK    1  A    between atoms: C2_5  and  C3_6 
REMARK    2  A    between atoms: C3_6  and  C4_7 
REMARK    3  A    between atoms: C4_7  and  N2_8 
REMARK    4  A    between atoms: C12_16  and  O1_17 
REMARK    5  A    between atoms: C12_16  and  C13_19 
REMARK    6  A    between atoms: C13_19  and  C14_20 
REMARK    7  A    between atoms: C14_20  and  C15_21 
REMARK    8  A    between atoms: C15_21  and  C16_22 
REMARK    9  A    between atoms: C16_22  and  C17_23 
REMARK   10  A    between atoms: N3_30  and  C24_31 
REMARK   11  A    between atoms: C24_31  and  C25_32 
ROOT
HETATM    1  N1  UNL     1      15.127  -7.956  24.197  1.00  0.00    -0.389 N 
ATOM      2  H11 UNL     1      15.570  -7.320  24.859  1.00  0.00     0.157 HD
ATOM      3  H12 UNL     1      14.150  -8.068  24.467  1.00  0.00     0.157 HD
HETATM    4  C1  UNL     1      15.692  -8.518  23.199  1.00  0.00     0.080 C 
HETATM    5  C2  UNL     1      15.039  -9.455  22.224  1.00  0.00     0.090 C 
HETATM    6  C12 UNL     1      16.004  -9.390  21.108  1.00  0.00     0.084 C 
HETATM    7  C23 UNL     1      17.319  -9.462  21.912  1.00  0.00     0.162 C 
HETATM    8  N3  UNL     1      17.065  -8.361  22.820  1.00  0.00    -0.367 N 
ENDROOT
BRANCH   6   9
HETATM    9  O1  UNL     1      16.087  -8.175  20.449  1.00  0.00    -0.387 OA
ATOM     10  H1  UNL     1      16.321  -8.216  19.529  1.00  0.00     0.210 HD
ENDBRANCH   6   9
BRANCH   6  11
HETATM   11  C13 UNL     1      15.934 -10.477  20.081  1.00  0.00     0.040 C 
BRANCH  11  12
HETATM   12  C14 UNL     1      17.223 -10.794  19.424  1.00  0.00     0.003 C 
BRANCH  12  13
HETATM   13  C15 UNL     1      17.242 -12.224  18.962  1.00  0.00     0.000 C 
BRANCH  13  14
HETATM   14  C16 UNL     1      15.867 -12.682  18.644  1.00  0.00     0.004 C 
BRANCH  14  15
HETATM   15  C17 UNL     1      15.699 -13.252  17.254  1.00  0.00    -0.014 C 
HETATM   16  C18 UNL     1      15.277 -12.265  16.222  1.00  0.00     0.004 C 
HETATM   17  C19 UNL     1      15.996 -12.600  14.926  1.00  0.00     0.000 C 
HETATM   18  C20 UNL     1      15.819 -14.045  14.587  1.00  0.00     0.000 C 
HETATM   19  C21 UNL     1      16.317 -14.961  15.666  1.00  0.00     0.000 C 
HETATM   20  C22 UNL     1      16.867 -14.107  16.814  1.00  0.00     0.004 C 
ENDBRANCH  14  15
ENDBRANCH  13  14
ENDBRANCH  12  13
ENDBRANCH  11  12
ENDBRANCH   6  11
BRANCH   5  21
HETATM   21  C3  UNL     1      13.623  -9.173  21.959  1.00  0.00     0.043 C 
BRANCH  21  22
HETATM   22  C4  UNL     1      12.668 -10.305  21.999  1.00  0.00     0.238 C 
BRANCH  22  23
HETATM   23  N2  UNL     1      11.286  -9.895  21.790  1.00  0.00    -0.067 N 
HETATM   24  C5  UNL     1      10.419 -10.201  22.880  1.00  0.00     0.238 C 
HETATM   25  C6  UNL     1       9.220  -9.254  22.788  1.00  0.00     0.032 C 
HETATM   26  C7  UNL     1       9.007  -8.877  21.325  1.00  0.00    -0.010 C 
HETATM   27  C8  UNL     1       9.298 -10.067  20.438  1.00  0.00     0.032 C 
HETATM   28  C10 UNL     1      10.117  -7.861  21.019  1.00  0.00     0.032 C 
HETATM   29  C9  UNL     1      10.734 -10.518  20.597  1.00  0.00     0.238 C 
HETATM   30  C11 UNL     1      11.374  -8.434  21.595  1.00  0.00     0.238 C 
ENDBRANCH  22  23
ENDBRANCH  21  22
ENDBRANCH   5  21
BRANCH   8  31
HETATM   31  C24 UNL     1      18.011  -7.363  23.214  1.00  0.00     0.128 C 
BRANCH  31  32
HETATM   32  C25 UNL     1      19.135  -7.790  24.068  1.00  0.00     0.004 C 
HETATM   33  C26 UNL     1      18.751  -8.653  25.254  1.00  0.00     0.006 C 
HETATM   34  C27 UNL     1      20.143  -8.899  25.854  1.00  0.00     0.000 C 
HETATM   35  C28 UNL     1      21.018  -9.108  24.655  1.00  0.00     0.000 C 
HETATM   36  C29 UNL     1      20.233  -8.571  23.448  1.00  0.00     0.006 C 
ENDBRANCH  31  32
ENDBRANCH   8  31
TORSDOF 11
ENDMDL
MODEL 4
REMARK VINA RESULT: -9.748132729      1.306      1.990
REMARK  11 active torsions:
REMARK  status: ('A' for Active; 'I' for Inactive)
REMARK    1  A    between atoms: C2_5  and  C3_6 
REMARK    2  A    between atoms: C3_6  and  C4_7 
REMARK    3  A    between atoms: C4_7  and  N2_8 
REMARK    4  A    between atoms: C12_16  and  O1_17 
REMARK    5  A    between atoms: C12_16  and  C13_19 
REMARK    6  A    between atoms: C13_19  and  C14_20 
REMARK    7  A    between atoms: C14_20  and  C15_21 
REMARK    8  A    between atoms: C15_21  and  C16_22 
REMARK    9  A    between atoms: C16_22  and  C17_23 
REMARK   10  A    between atoms: N3_30  and  C24_31 
REMARK   11  A    between atoms: C24_31  and  C25_32 
ROOT
HETATM    1  N1  UNL     1      15.429  -7.974  24.314  1.00  0.00    -0.389 N 
ATOM      2  H11 UNL     1      15.965  -7.393  24.958  1.00  0.00     0.157 HD
ATOM      3  H12 UNL     1      14.467  -8.021  24.651  1.00  0.00     0.157 HD
HETATM    4  C1  UNL     1      15.879  -8.546  23.264  1.00  0.00     0.080 C 
HETATM    5  C2  UNL     1      15.090  -9.402  22.315  1.00  0.00     0.090 C 
HETATM    6  C12 UNL     1      15.977  -9.375  21.135  1.00  0.00     0.084 C 
HETATM    7  C23 UNL     1      17.335  -9.569  21.841  1.00  0.00     0.162 C 
HETATM    8  N3  UNL     1      17.230  -8.480  22.792  1.00  0.00    -0.367 N 
ENDROOT
BRANCH   6   9
HETATM    9  O1  UNL     1      16.107  -8.150  20.502  1.00  0.00    -0.387 OA
ATOM     10  H1  UNL     1      16.973  -7.760  20.526  1.00  0.00     0.210 HD
ENDBRANCH   6   9
BRANCH   6  11
HETATM   11  C13 UNL     1      15.753 -10.422  20.089  1.00  0.00     0.040 C 
BRANCH  11  12
HETATM   12  C14 UNL     1      16.976 -10.858  19.375  1.00  0.00     0.003 C 
BRANCH  12  13
HETATM   13  C15 UNL     1      16.901 -12.323  19.048  1.00  0.00     0.000 C 
BRANCH  13  14
HETATM   14  C16 UNL     1      15.547 -12.673  18.552  1.00  0.00     0.004 C 
BRANCH  14  15
HETATM   15  C17 UNL     1      15.517 -13.239  17.150  1.00  0.00    -0.014 C 
HETATM   16  C18 UNL     1      15.165 -12.257  16.088  1.00  0.00     0.004 C 
HETATM   17  C19 UNL     1      16.004 -12.569  14.860  1.00  0.00     0.000 C 
HETATM   18  C20 UNL     1      15.894 -14.016  14.503  1.00  0.00     0.000 C 
HETATM   19  C21 UNL     1      16.316 -14.925  15.619  1.00  0.00     0.000 C 
HETATM   20  C22 UNL     1      16.741 -14.064  16.814  1.00  0.00     0.004 C 
ENDBRANCH  14  15
ENDBRANCH  13  14
ENDBRANCH  12  13
ENDBRANCH  11  12
ENDBRANCH   6  11
BRANCH   5  21
HETATM   21  C3  UNL     1      13.684  -9.007  22.160  1.00  0.00     0.043 C 
BRANCH  21  22
HETATM   22  C4  UNL     1      12.651 -10.065  22.245  1.00  0.00     0.238 C 
BRANCH  22  23
HETATM   23  N2  UNL     1      11.314  -9.585  21.921  1.00  0.00    -0.067 N 
HETATM   24  C5  UNL     1      11.245  -8.183  21.670  1.00  0.00     0.238 C 
HETATM   25  C6  UNL     1       9.997  -7.933  20.821  1.00  0.00     0.032 C 
HETATM   26  C7  UNL     1       8.968  -9.015  21.135  1.00  0.00    -0.010 C 
HETATM   27  C8  UNL     1       9.015  -9.358  22.608  1.00  0.00     0.032 C 
HETATM   28  C10 UNL     1       9.483 -10.266  20.409  1.00  0.00     0.032 C 
HETATM   29  C9  UNL     1      10.379  -9.888  22.994  1.00  0.00     0.238 C 
HETATM   30  C11 UNL     1      10.948 -10.345  20.709  1.00  0.00     0.238 C 
ENDBRANCH  22  23
ENDBRANCH  21  22
ENDBRANCH   5  21
BRANCH   8  31
HETATM   31  C24 UNL     1      18.275  -7.568  23.142  1.00  0.00     0.128 C 
BRANCH  31  32
HETATM   32  C25 UNL     1      19.404  -8.096  23.928  1.00  0.00     0.004 C 
HETATM   33  C26 UNL     1      19.017  -8.872  25.172  1.00  0.00     0.006 C 
HETATM   34  C27 UNL     1      20.413  -9.260  25.679  1.00  0.00     0.000 C 
HETATM   35  C28 UNL     1      21.164  -9.605  24.430  1.00  0.00     0.000 C 
HETATM   36  C29 UNL     1      20.357  -9.018  23.263  1.00  0.00     0.006 C 
ENDBRANCH  31  32
ENDBRANCH   8  31
TORSDOF 11
ENDMDL
MODEL 5
REMARK VINA RESULT: -9.713874914      4.438      7.398
REMARK  11 active torsions:
REMARK  status: ('A' for Active; 'I' for Inactive)
REMARK    1  A    between atoms: C2_5  and  C3_6 
REMARK    2  A    between atoms: C3_6  and  C4_7 
REMARK    3  A    between atoms: C4_7  and  N2_8 
REMARK    4  A    between atoms: C12_16  and  O1_17 
REMARK    5  A    between atoms: C12_16  and  C13_19 
REMARK    6  A    between atoms: C13_19  and  C14_20 
REMARK    7  A    between atoms: C14_20  and  C15_21 
REMARK    8  A    between atoms: C15_21  and  C16_22 
REMARK    9  A    between atoms: C16_22  and  C17_23 
REMARK   10  A    between atoms: N3_30  and  C24_31 
REMARK   11  A    between atoms: C24_31  and  C25_32 
ROOT
HETATM    1  N1  UNL     1       9.304  -7.838  26.510  1.00  0.00    -0.389 N 
ATOM      2  H11 UNL     1       8.493  -7.752  27.122  1.00  0.00     0.157 HD
ATOM      3  H12 UNL     1       9.014  -8.322  25.661  1.00  0.00     0.157 HD
HETATM    4  C1  UNL     1      10.483  -7.412  26.758  1.00  0.00     0.080 C 
HETATM    5  C2  UNL     1      11.677  -7.538  25.856  1.00  0.00     0.090 C 
HETATM    6  C12 UNL     1      12.560  -6.508  26.440  1.00  0.00     0.084 C 
HETATM    7  C23 UNL     1      12.338  -6.811  27.937  1.00  0.00     0.162 C 
HETATM    8  N3  UNL     1      10.891  -6.731  27.951  1.00  0.00    -0.367 N 
ENDROOT
BRANCH   6   9
HETATM    9  O1  UNL     1      12.133  -5.197  26.303  1.00  0.00    -0.387 OA
ATOM     10  H1  UNL     1      12.521  -4.708  25.586  1.00  0.00     0.210 HD
ENDBRANCH   6   9
BRANCH   6  11
HETATM   11  C13 UNL     1      14.011  -6.570  26.082  1.00  0.00     0.040 C 
BRANCH  11  12
HETATM   12  C14 UNL     1      14.413  -5.683  24.965  1.00  0.00     0.003 C 
BRANCH  12  13
HETATM   13  C15 UNL     1      15.031  -6.484  23.852  1.00  0.00     0.000 C 
BRANCH  13  14
HETATM   14  C16 UNL     1      15.418  -7.831  24.339  1.00  0.00     0.004 C 
BRANCH  14  15
HETATM   15  C17 UNL     1      16.094  -8.703  23.305  1.00  0.00    -0.014 C 
HETATM   16  C18 UNL     1      15.210  -9.155  22.196  1.00  0.00     0.004 C 
HETATM   17  C19 UNL     1      16.023  -9.150  20.913  1.00  0.00     0.000 C 
HETATM   18  C20 UNL     1      17.304  -9.897  21.100  1.00  0.00     0.000 C 
HETATM   19  C21 UNL     1      18.148  -9.338  22.208  1.00  0.00     0.000 C 
HETATM   20  C22 UNL     1      17.414  -8.141  22.822  1.00  0.00     0.004 C 
ENDBRANCH  14  15
ENDBRANCH  13  14
ENDBRANCH  12  13
ENDBRANCH  11  12
ENDBRANCH   6  11
BRANCH   5  21
HETATM   21  C3  UNL     1      11.370  -7.484  24.422  1.00  0.00     0.043 C 
BRANCH  21  22
HETATM   22  C4  UNL     1      11.886  -8.571  23.558  1.00  0.00     0.238 C 
BRANCH  22  23
HETATM   23  N2  UNL     1      10.906  -9.046  22.590  1.00  0.00    -0.067 N 
HETATM   24  C5  UNL     1       9.761  -9.661  23.177  1.00  0.00     0.238 C 
HETATM   25  C6  UNL     1       8.626  -9.581  22.155  1.00  0.00     0.032 C 
HETATM   26  C7  UNL     1       9.232  -9.565  20.754  1.00  0.00    -0.010 C 
HETATM   27  C8  UNL     1      10.440 -10.474  20.705  1.00  0.00     0.032 C 
HETATM   28  C10 UNL     1       9.784  -8.143  20.584  1.00  0.00     0.032 C 
HETATM   29  C9  UNL     1      11.503 -10.007  21.675  1.00  0.00     0.238 C 
HETATM   30  C11 UNL     1      10.516  -7.829  21.851  1.00  0.00     0.238 C 
ENDBRANCH  22  23
ENDBRANCH  21  22
ENDBRANCH   5  21
BRANCH   8  31
HETATM   31  C24 UNL     1      10.095  -6.097  28.956  1.00  0.00     0.128 C 
BRANCH  31  32
HETATM   32  C25 UNL     1       9.792  -6.871  30.173  1.00  0.00     0.004 C 
HETATM   33  C26 UNL     1       8.989  -6.131  31.225  1.00  0.00     0.006 C 
HETATM   34  C27 UNL     1       8.865  -7.239  32.281  1.00  0.00     0.000 C 
HETATM   35  C28 UNL     1       8.628  -8.479  31.473  1.00  0.00     0.000 C 
HETATM   36  C29 UNL     1       9.037  -8.140  30.031  1.00  0.00     0.006 C 
ENDBRANCH  31  32
ENDBRANCH   8  31
TORSDOF 11
ENDMDL
