MODEL 1
REMARK VINA RESULT: -7.175100466      0.000      0.000
REMARK  11 active torsions:
REMARK  status: ('A' for Active; 'I' for Inactive)
REMARK    1  A    between atoms: N1_3  and  C3_4 
REMARK    2  A    between atoms: N1_3  and  C7_20 
REMARK    3  A    between atoms: C3_4  and  O1_5 
REMARK    4  A    between atoms: O1_5  and  C4_6 
REMARK    5  A    between atoms: C4_6  and  C5_8 
REMARK    6  A    between atoms: C5_8  and  C6_9 
REMARK    7  A    between atoms: C5_8  and  N3_14 
REMARK    8  A    between atoms: C6_9  and  O3_10 
REMARK    9  A    between atoms: O3_10  and  N2_11 
REMARK   10  A    between atoms: N3_14  and  N4_16 
REMARK   11  A    between atoms: N4_16  and  N5_17 
ROOT
HETATM    1  C1  UNL     1      20.240 -10.582  21.347  1.00  0.00     0.037 C 
HETATM    2  C2  UNL     1      19.116 -10.358  20.984  1.00  0.00     0.003 C 
HETATM    3  N1  UNL     1      17.794 -10.091  20.610  1.00  0.00    -0.292 N 
ENDROOT
BRANCH   3   4
HETATM    4  C3  UNL     1      17.192 -10.374  19.362  1.00  0.00     0.248 C 
BRANCH   4   5
HETATM    5  O1  UNL     1      17.718 -11.297  18.496  1.00  0.00    -0.271 OA
BRANCH   5   6
HETATM    6  C4  UNL     1      17.151 -12.599  18.360  1.00  0.00     0.292 C 
HETATM    7  O2  UNL     1      17.412 -13.383  19.256  1.00  0.00    -0.262 OA
BRANCH   6   8
HETATM    8  C5  UNL     1      16.270 -12.922  17.251  1.00  0.00     0.240 C 
BRANCH   8   9
HETATM    9  C6  UNL     1      16.167 -14.277  16.692  1.00  0.00     0.246 C 
BRANCH   9  10
HETATM   10  O3  UNL     1      16.803 -14.227  15.363  1.00  0.00    -0.219 OA
BRANCH  10  11
HETATM   11  N2  UNL     1      15.781 -14.266  14.371  1.00  0.00     0.005 N 
HETATM   12  O4  UNL     1      14.630 -14.569  14.568  1.00  0.00    -0.511 OA
HETATM   13  O5  UNL     1      16.175 -13.808  13.110  1.00  0.00    -0.511 OA
ENDBRANCH  10  11
ENDBRANCH   9  10
ENDBRANCH   8   9
BRANCH   8  14
HETATM   14  N3  UNL     1      14.919 -12.548  17.797  1.00  0.00    -0.236 N 
ATOM     15  H3  UNL     1      14.735 -12.500  18.799  1.00  0.00     0.198 HD
BRANCH  14  16
HETATM   16  N4  UNL     1      14.044 -12.301  16.956  1.00  0.00    -0.248 NA
BRANCH  16  17
HETATM   17  N5  UNL     1      13.304 -12.135  16.009  1.00  0.00    -0.261 N 
ATOM     18  H52 UNL     1      14.069 -12.465  15.421  1.00  0.00     0.193 HD
ATOM     19  H51 UNL     1      12.576 -11.948  15.319  1.00  0.00     0.193 HD
ENDBRANCH  16  17
ENDBRANCH  14  16
ENDBRANCH   8  14
ENDBRANCH   6   8
ENDBRANCH   5   6
ENDBRANCH   4   5
ENDBRANCH   3   4
BRANCH   3  20
HETATM   20  C7  UNL     1      16.961  -9.538  21.685  1.00  0.00     0.100 C 
HETATM   21  C8  UNL     1      15.500  -9.628  21.269  1.00  0.00     0.026 C 
HETATM   22  C9  UNL     1      14.737  -8.547  21.991  1.00  0.00     0.002 C 
HETATM   23  C10 UNL     1      15.131  -8.438  23.442  1.00  0.00     0.000 C 
HETATM   24  C11 UNL     1      16.592  -8.081  23.577  1.00  0.00     0.002 C 
HETATM   25  C12 UNL     1      17.357  -8.235  22.250  1.00  0.00     0.026 C 
ENDBRANCH   3  20
TORSDOF 11
ENDMDL
MODEL 2
REMARK VINA RESULT: -7.154774995      2.356      3.632
REMARK  11 active torsions:
REMARK  status: ('A' for Active; 'I' for Inactive)
REMARK    1  A    between atoms: N1_3  and  C3_4 
REMARK    2  A    between atoms: N1_3  and  C7_20 
REMARK    3  A    between atoms: C3_4  and  O1_5 
REMARK    4  A    between atoms: O1_5  and  C4_6 
REMARK    5  A    between atoms: C4_6  and  C5_8 
REMARK    6  A    between atoms: C5_8  and  C6_9 
REMARK    7  A    between atoms: C5_8  and  N3_14 
REMARK    8  A    between atoms: C6_9  and  O3_10 
REMARK    9  A    between atoms: O3_10  and  N2_11 
REMARK   10  A    between atoms: N3_14  and  N4_16 
REMARK   11  A    between atoms: N4_16  and  N5_17 
ROOT
HETATM    1  C1  UNL     1      21.268 -11.474  16.072  1.00  0.00     0.037 C 
HETATM    2  C2  UNL     1      20.487 -11.913  16.873  1.00  0.00     0.003 C 
HETATM    3  N1  UNL     1      19.591 -12.389  17.838  1.00  0.00    -0.292 N 
ENDROOT
BRANCH   3   4
HETATM    4  C3  UNL     1      18.960 -13.655  17.859  1.00  0.00     0.248 C 
BRANCH   4   5
HETATM    5  O1  UNL     1      18.201 -14.103  16.810  1.00  0.00    -0.271 OA
BRANCH   5   6
HETATM    6  C4  UNL     1      16.775 -14.044  16.844  1.00  0.00     0.292 C 
HETATM    7  O2  UNL     1      16.208 -15.110  17.008  1.00  0.00    -0.262 OA
BRANCH   6   8
HETATM    8  C5  UNL     1      16.075 -12.774  16.753  1.00  0.00     0.240 C 
BRANCH   8   9
HETATM    9  C6  UNL     1      15.495 -12.280  15.497  1.00  0.00     0.246 C 
BRANCH   9  10
HETATM   10  O3  UNL     1      16.427 -12.675  14.425  1.00  0.00    -0.219 OA
BRANCH  10  11
HETATM   11  N2  UNL     1      15.739 -13.534  13.521  1.00  0.00     0.005 N 
HETATM   12  O4  UNL     1      16.112 -13.819  12.409  1.00  0.00    -0.511 OA
HETATM   13  O5  UNL     1      14.602 -14.149  14.053  1.00  0.00    -0.511 OA
ENDBRANCH  10  11
ENDBRANCH   9  10
ENDBRANCH   8   9
BRANCH   8  14
HETATM   14  N3  UNL     1      14.950 -12.959  17.736  1.00  0.00    -0.236 N 
ATOM     15  H3  UNL     1      14.397 -13.815  17.770  1.00  0.00     0.198 HD
BRANCH  14  16
HETATM   16  N4  UNL     1      14.736 -12.008  18.500  1.00  0.00    -0.248 NA
BRANCH  16  17
HETATM   17  N5  UNL     1      14.450 -11.203  19.361  1.00  0.00    -0.261 N 
ATOM     18  H52 UNL     1      15.376 -11.373  19.753  1.00  0.00     0.193 HD
ATOM     19  H51 UNL     1      14.072 -10.514  20.010  1.00  0.00     0.193 HD
ENDBRANCH  16  17
ENDBRANCH  14  16
ENDBRANCH   8  14
ENDBRANCH   6   8
ENDBRANCH   5   6
ENDBRANCH   4   5
ENDBRANCH   3   4
BRANCH   3  20
HETATM   20  C7  UNL     1      19.383 -11.479  18.971  1.00  0.00     0.100 C 
HETATM   21  C8  UNL     1      20.601 -11.539  19.879  1.00  0.00     0.026 C 
HETATM   22  C9  UNL     1      20.170 -11.167  21.274  1.00  0.00     0.002 C 
HETATM   23  C10 UNL     1      19.242  -9.980  21.290  1.00  0.00     0.000 C 
HETATM   24  C11 UNL     1      17.975 -10.278  20.524  1.00  0.00     0.002 C 
HETATM   25  C12 UNL     1      18.090 -11.558  19.677  1.00  0.00     0.026 C 
ENDBRANCH   3  20
TORSDOF 11
ENDMDL
MODEL 3
REMARK VINA RESULT: -6.826020590      1.368      2.619
REMARK  11 active torsions:
REMARK  status: ('A' for Active; 'I' for Inactive)
REMARK    1  A    between atoms: N1_3  and  C3_4 
REMARK    2  A    between atoms: N1_3  and  C7_20 
REMARK    3  A    between atoms: C3_4  and  O1_5 
REMARK    4  A    between atoms: O1_5  and  C4_6 
REMARK    5  A    between atoms: C4_6  and  C5_8 
REMARK    6  A    between atoms: C5_8  and  C6_9 
REMARK    7  A    between atoms: C5_8  and  N3_14 
REMARK    8  A    between atoms: C6_9  and  O3_10 
REMARK    9  A    between atoms: O3_10  and  N2_11 
REMARK   10  A    between atoms: N3_14  and  N4_16 
REMARK   11  A    between atoms: N4_16  and  N5_17 
ROOT
HETATM    1  C1  UNL     1      13.759  -8.921  22.525  1.00  0.00     0.037 C 
HETATM    2  C2  UNL     1      14.849  -9.111  22.055  1.00  0.00     0.003 C 
HETATM    3  N1  UNL     1      16.138  -9.303  21.543  1.00  0.00    -0.292 N 
ENDROOT
BRANCH   3   4
HETATM    4  C3  UNL     1      16.477  -9.781  20.256  1.00  0.00     0.248 C 
BRANCH   4   5
HETATM    5  O1  UNL     1      15.922 -10.922  19.737  1.00  0.00    -0.271 OA
BRANCH   5   6
HETATM    6  C4  UNL     1      16.681 -11.814  18.922  1.00  0.00     0.292 C 
HETATM    7  O2  UNL     1      17.742 -12.183  19.393  1.00  0.00    -0.262 OA
BRANCH   6   8
HETATM    8  C5  UNL     1      16.166 -12.289  17.649  1.00  0.00     0.240 C 
BRANCH   8   9
HETATM    9  C6  UNL     1      16.540 -13.591  17.082  1.00  0.00     0.246 C 
BRANCH   9  10
HETATM   10  O3  UNL     1      16.650 -13.394  15.624  1.00  0.00    -0.219 OA
BRANCH  10  11
HETATM   11  N2  UNL     1      16.267 -14.602  14.974  1.00  0.00     0.005 N 
HETATM   12  O4  UNL     1      16.915 -15.621  14.958  1.00  0.00    -0.511 OA
HETATM   13  O5  UNL     1      14.986 -14.582  14.416  1.00  0.00    -0.511 OA
ENDBRANCH  10  11
ENDBRANCH   9  10
ENDBRANCH   8   9
BRANCH   8  14
HETATM   14  N3  UNL     1      14.681 -12.304  17.891  1.00  0.00    -0.236 N 
ATOM     15  H3  UNL     1      14.285 -12.289  18.831  1.00  0.00     0.198 HD
BRANCH  14  16
HETATM   16  N4  UNL     1      13.968 -12.335  16.879  1.00  0.00    -0.248 NA
BRANCH  16  17
HETATM   17  N5  UNL     1      13.426 -12.401  15.795  1.00  0.00    -0.261 N 
ATOM     18  H52 UNL     1      14.358 -12.516  15.396  1.00  0.00     0.193 HD
ATOM     19  H51 UNL     1      12.837 -12.438  14.963  1.00  0.00     0.193 HD
ENDBRANCH  16  17
ENDBRANCH  14  16
ENDBRANCH   8  14
ENDBRANCH   6   8
ENDBRANCH   5   6
ENDBRANCH   4   5
ENDBRANCH   3   4
BRANCH   3  20
HETATM   20  C7  UNL     1      17.216  -8.868  22.440  1.00  0.00     0.100 C 
HETATM   21  C8  UNL     1      17.022  -7.395  22.762  1.00  0.00     0.026 C 
HETATM   22  C9  UNL     1      18.366  -6.804  23.100  1.00  0.00     0.002 C 
HETATM   23  C10 UNL     1      19.177  -7.700  24.000  1.00  0.00     0.000 C 
HETATM   24  C11 UNL     1      19.457  -9.024  23.330  1.00  0.00     0.002 C 
HETATM   25  C12 UNL     1      18.596  -9.237  22.071  1.00  0.00     0.026 C 
ENDBRANCH   3  20
TORSDOF 11
ENDMDL
MODEL 4
REMARK VINA RESULT: -6.817158809      1.777      2.226
REMARK  11 active torsions:
REMARK  status: ('A' for Active; 'I' for Inactive)
REMARK    1  A    between atoms: N1_3  and  C3_4 
REMARK    2  A    between atoms: N1_3  and  C7_20 
REMARK    3  A    between atoms: C3_4  and  O1_5 
REMARK    4  A    between atoms: O1_5  and  C4_6 
REMARK    5  A    between atoms: C4_6  and  C5_8 
REMARK    6  A    between atoms: C5_8  and  C6_9 
REMARK    7  A    between atoms: C5_8  and  N3_14 
REMARK    8  A    between atoms: C6_9  and  O3_10 
REMARK    9  A    between atoms: O3_10  and  N2_11 
REMARK   10  A    between atoms: N3_14  and  N4_16 
REMARK   11  A    between atoms: N4_16  and  N5_17 
ROOT
HETATM    1  C1  UNL     1      19.922 -10.725  20.838  1.00  0.00     0.037 C 
HETATM    2  C2  UNL     1      18.760 -10.524  20.607  1.00  0.00     0.003 C 
HETATM    3  N1  UNL     1      17.399 -10.280  20.387  1.00  0.00    -0.292 N 
ENDROOT
BRANCH   3   4
HETATM    4  C3  UNL     1      16.647 -10.638  19.245  1.00  0.00     0.248 C 
BRANCH   4   5
HETATM    5  O1  UNL     1      17.112 -11.543  18.326  1.00  0.00    -0.271 OA
BRANCH   5   6
HETATM    6  C4  UNL     1      16.236 -12.469  17.684  1.00  0.00     0.292 C 
HETATM    7  O2  UNL     1      15.194 -12.002  17.262  1.00  0.00    -0.262 OA
BRANCH   6   8
HETATM    8  C5  UNL     1      16.619 -13.859  17.500  1.00  0.00     0.240 C 
BRANCH   8   9
HETATM    9  C6  UNL     1      15.996 -14.721  16.486  1.00  0.00     0.246 C 
BRANCH   9  10
HETATM   10  O3  UNL     1      16.656 -14.402  15.206  1.00  0.00    -0.219 OA
BRANCH  10  11
HETATM   11  N2  UNL     1      15.649 -14.175  14.224  1.00  0.00     0.005 N 
HETATM   12  O4  UNL     1      14.459 -14.226  14.420  1.00  0.00    -0.511 OA
HETATM   13  O5  UNL     1      16.133 -13.764  12.979  1.00  0.00    -0.511 OA
ENDBRANCH  10  11
ENDBRANCH   9  10
ENDBRANCH   8   9
BRANCH   8  14
HETATM   14  N3  UNL     1      18.082 -13.746  17.169  1.00  0.00    -0.236 N 
ATOM     15  H3  UNL     1      18.409 -13.341  16.292  1.00  0.00     0.198 HD
BRANCH  14  16
HETATM   16  N4  UNL     1      18.866 -14.176  18.026  1.00  0.00    -0.248 NA
BRANCH  16  17
HETATM   17  N5  UNL     1      19.492 -14.705  18.921  1.00  0.00    -0.261 N 
ATOM     18  H52 UNL     1      20.020 -15.188  18.194  1.00  0.00     0.193 HD
ATOM     19  H51 UNL     1      19.928 -15.066  19.769  1.00  0.00     0.193 HD
ENDBRANCH  16  17
ENDBRANCH  14  16
ENDBRANCH   8  14
ENDBRANCH   6   8
ENDBRANCH   5   6
ENDBRANCH   4   5
ENDBRANCH   3   4
BRANCH   3  20
HETATM   20  C7  UNL     1      16.704  -9.662  21.524  1.00  0.00     0.100 C 
HETATM   21  C8  UNL     1      15.205  -9.716  21.270  1.00  0.00     0.026 C 
HETATM   22  C9  UNL     1      14.557  -8.587  22.027  1.00  0.00     0.002 C 
HETATM   23  C10 UNL     1      15.108  -8.441  23.422  1.00  0.00     0.000 C 
HETATM   24  C11 UNL     1      16.585  -8.129  23.387  1.00  0.00     0.002 C 
HETATM   25  C12 UNL     1      17.197  -8.354  21.993  1.00  0.00     0.026 C 
ENDBRANCH   3  20
TORSDOF 11
ENDMDL
MODEL 5
REMARK VINA RESULT: -6.809408603      1.191      1.427
REMARK  11 active torsions:
REMARK  status: ('A' for Active; 'I' for Inactive)
REMARK    1  A    between atoms: N1_3  and  C3_4 
REMARK    2  A    between atoms: N1_3  and  C7_20 
REMARK    3  A    between atoms: C3_4  and  O1_5 
REMARK    4  A    between atoms: O1_5  and  C4_6 
REMARK    5  A    between atoms: C4_6  and  C5_8 
REMARK    6  A    between atoms: C5_8  and  C6_9 
REMARK    7  A    between atoms: C5_8  and  N3_14 
REMARK    8  A    between atoms: C6_9  and  O3_10 
REMARK    9  A    between atoms: O3_10  and  N2_11 
REMARK   10  A    between atoms: N3_14  and  N4_16 
REMARK   11  A    between atoms: N4_16  and  N5_17 
ROOT
HETATM    1  C1  UNL     1      21.366 -11.286  21.165  1.00  0.00     0.037 C 
HETATM    2  C2  UNL     1      20.292 -11.191  20.634  1.00  0.00     0.003 C 
HETATM    3  N1  UNL     1      19.022 -11.064  20.059  1.00  0.00    -0.292 N 
ENDROOT
BRANCH   3   4
HETATM    4  C3  UNL     1      18.587 -11.615  18.832  1.00  0.00     0.248 C 
BRANCH   4   5
HETATM    5  O1  UNL     1      18.034 -12.867  18.755  1.00  0.00    -0.271 OA
BRANCH   5   6
HETATM    6  C4  UNL     1      17.911 -13.552  17.509  1.00  0.00     0.292 C 
HETATM    7  O2  UNL     1      18.891 -14.184  17.157  1.00  0.00    -0.262 OA
BRANCH   6   8
HETATM    8  C5  UNL     1      16.664 -13.534  16.763  1.00  0.00     0.240 C 
BRANCH   8   9
HETATM    9  C6  UNL     1      15.992 -14.762  16.318  1.00  0.00     0.246 C 
BRANCH   9  10
HETATM   10  O3  UNL     1      16.405 -14.979  14.919  1.00  0.00    -0.219 OA
BRANCH  10  11
HETATM   11  N2  UNL     1      15.504 -14.278  14.068  1.00  0.00     0.005 N 
HETATM   12  O4  UNL     1      14.340 -14.066  14.308  1.00  0.00    -0.511 OA
HETATM   13  O5  UNL     1      16.092 -13.724  12.927  1.00  0.00    -0.511 OA
ENDBRANCH  10  11
ENDBRANCH   9  10
ENDBRANCH   8   9
BRANCH   8  14
HETATM   14  N3  UNL     1      15.737 -12.820  17.708  1.00  0.00    -0.236 N 
ATOM     15  H3  UNL     1      15.911 -12.782  18.712  1.00  0.00     0.198 HD
BRANCH  14  16
HETATM   16  N4  UNL     1      14.747 -12.281  17.193  1.00  0.00    -0.248 NA
BRANCH  16  17
HETATM   17  N5  UNL     1      13.755 -11.915  16.600  1.00  0.00    -0.261 N 
ATOM     18  H52 UNL     1      14.361 -11.273  16.090  1.00  0.00     0.193 HD
ATOM     19  H51 UNL     1      12.844 -11.711  16.189  1.00  0.00     0.193 HD
ENDBRANCH  16  17
ENDBRANCH  14  16
ENDBRANCH   8  14
ENDBRANCH   6   8
ENDBRANCH   5   6
ENDBRANCH   4   5
ENDBRANCH   3   4
BRANCH   3  20
HETATM   20  C7  UNL     1      18.048 -10.349  20.894  1.00  0.00     0.100 C 
HETATM   21  C8  UNL     1      16.848  -9.975  20.038  1.00  0.00     0.026 C 
HETATM   22  C9  UNL     1      16.197  -8.758  20.643  1.00  0.00     0.002 C 
HETATM   23  C10 UNL     1      16.087  -8.853  22.143  1.00  0.00     0.000 C 
HETATM   24  C11 UNL     1      17.454  -8.956  22.776  1.00  0.00     0.002 C 
HETATM   25  C12 UNL     1      18.556  -9.257  21.745  1.00  0.00     0.026 C 
ENDBRANCH   3  20
TORSDOF 11
ENDMDL
