MODEL 1
REMARK VINA RESULT: -6.420809920      0.000      0.000
REMARK  10 active torsions:
REMARK  status: ('A' for Active; 'I' for Inactive)
REMARK    1  A    between atoms: C2_2  and  C3_3 
REMARK    2  A    between atoms: C3_3  and  C4_4 
REMARK    3  A    between atoms: C4_4  and  N1_5 
REMARK    4  A    between atoms: C4_4  and  C8_15 
REMARK    5  A    between atoms: N1_5  and  C5_8 
REMARK    6  A    between atoms: C5_8  and  C6_9 
REMARK    7  A    between atoms: C6_9  and  C7_10 
REMARK    8  A    between atoms: C7_10  and  N2_11 
REMARK    9  A    between atoms: C9_18  and  N4_19 
REMARK       I    between atoms: N4_19  and  C10_21 
REMARK       I    between atoms: C10_21  and  N5_22 
REMARK       I    between atoms: C10_21  and  N6_26 
REMARK   10  A    between atoms: C11_32  and  N8_33 
ROOT
HETATM    1  C8  UNL     1      -4.020   0.475  52.455  1.00  0.00     0.144 A 
HETATM    2  N3  UNL     1      -4.573  -0.305  51.503  1.00  0.00    -0.177 N 
ATOM      3  H3  UNL     1      -4.087  -0.391  50.610  1.00  0.00     0.185 HD
HETATM    4  C9  UNL     1      -5.727  -0.975  51.663  1.00  0.00     0.697 A 
HETATM    5  N7  UNL     1      -6.371  -0.863  52.838  1.00  0.00    -0.022 N 
ATOM      6  H7  UNL     1      -7.249  -1.356  52.997  1.00  0.00     0.203 HD
HETATM    7  C11 UNL     1      -5.837  -0.090  53.798  1.00  0.00     0.691 A 
HETATM    8  N9  UNL     1      -4.677   0.574  53.614  1.00  0.00    -0.178 N 
ATOM      9  H9  UNL     1      -4.300   1.154  54.364  1.00  0.00     0.185 HD
ENDROOT
BRANCH   1  10
HETATM   10  C4  UNL     1      -2.761   1.166  52.110  1.00  0.00     0.257 C 
BRANCH  10  11
HETATM   11  C3  UNL     1      -1.605   0.344  51.746  1.00  0.00     0.067 C 
BRANCH  11  12
HETATM   12  C2  UNL     1      -0.387   0.463  52.537  1.00  0.00    -0.034 C 
HETATM   13  C1  UNL     1       0.786   0.803  52.007  1.00  0.00     0.007 C 
ENDBRANCH  11  12
ENDBRANCH  10  11
BRANCH  10  14
HETATM   14  N1  UNL     1      -2.499   2.118  53.169  1.00  0.00    -0.064 N 
ATOM     15  H12 UNL     1      -3.042   1.891  54.002  1.00  0.00     0.278 HD
ATOM     16  H11 UNL     1      -1.558   1.994  53.543  1.00  0.00     0.278 HD
BRANCH  14  17
HETATM   17  C5  UNL     1      -2.716   3.493  52.772  1.00  0.00     0.235 C 
BRANCH  17  18
HETATM   18  C6  UNL     1      -1.515   4.019  51.988  1.00  0.00     0.055 C 
BRANCH  18  19
HETATM   19  C7  UNL     1      -0.363   4.176  52.987  1.00  0.00     0.231 C 
BRANCH  19  20
HETATM   20  N2  UNL     1      -0.765   5.210  53.915  1.00  0.00    -0.079 N 
ATOM     21  H23 UNL     1      -0.173   6.041  53.876  1.00  0.00     0.274 HD
ATOM     22  H22 UNL     1      -1.640   5.666  53.658  1.00  0.00     0.274 HD
ATOM     23  H21 UNL     1      -0.791   4.776  54.837  1.00  0.00     0.274 HD
ENDBRANCH  19  20
ENDBRANCH  18  19
ENDBRANCH  17  18
ENDBRANCH  14  17
ENDBRANCH  10  14
ENDBRANCH   1  10
BRANCH   4  24
HETATM   24  N4  UNL     1      -6.221  -1.703  50.746  1.00  0.00    -0.173 N 
HETATM   25  C10 UNL     1      -7.303  -1.435  49.872  1.00  0.00     0.494 C 
HETATM   26  N5  UNL     1      -8.588  -1.287  50.507  1.00  0.00    -0.032 N 
HETATM   27  N6  UNL     1      -7.092  -0.333  48.951  1.00  0.00    -0.032 N 
ATOM     28  H53 UNL     1      -8.794  -2.108  51.076  1.00  0.00     0.278 HD
ATOM     29  H52 UNL     1      -8.539  -0.573  51.234  1.00  0.00     0.278 HD
ATOM     30  H51 UNL     1      -9.367  -1.094  49.877  1.00  0.00     0.278 HD
ATOM     31  H63 UNL     1      -6.837   0.510  49.464  1.00  0.00     0.278 HD
ATOM     32  H62 UNL     1      -6.237  -0.482  48.416  1.00  0.00     0.278 HD
ATOM     33  H61 UNL     1      -7.872  -0.140  48.321  1.00  0.00     0.278 HD
ATOM     34  H4  UNL     1      -5.774  -2.612  50.622  1.00  0.00     0.181 HD
ENDBRANCH   4  24
BRANCH   7  35
HETATM   35  N8  UNL     1      -6.413   0.056  54.951  1.00  0.00    -0.234 N 
ATOM     36  H82 UNL     1      -7.433   0.043  54.956  1.00  0.00     0.174 HD
ATOM     37  H81 UNL     1      -5.871   0.178  55.807  1.00  0.00     0.174 HD
ENDBRANCH   7  35
TORSDOF 10
ENDMDL
MODEL 2
REMARK VINA RESULT: -6.370330595      3.334      5.346
REMARK  10 active torsions:
REMARK  status: ('A' for Active; 'I' for Inactive)
REMARK    1  A    between atoms: C2_2  and  C3_3 
REMARK    2  A    between atoms: C3_3  and  C4_4 
REMARK    3  A    between atoms: C4_4  and  N1_5 
REMARK    4  A    between atoms: C4_4  and  C8_15 
REMARK    5  A    between atoms: N1_5  and  C5_8 
REMARK    6  A    between atoms: C5_8  and  C6_9 
REMARK    7  A    between atoms: C6_9  and  C7_10 
REMARK    8  A    between atoms: C7_10  and  N2_11 
REMARK    9  A    between atoms: C9_18  and  N4_19 
REMARK       I    between atoms: N4_19  and  C10_21 
REMARK       I    between atoms: C10_21  and  N5_22 
REMARK       I    between atoms: C10_21  and  N6_26 
REMARK   10  A    between atoms: C11_32  and  N8_33 
ROOT
HETATM    1  C8  UNL     1      -5.822   0.456  53.766  1.00  0.00     0.144 A 
HETATM    2  N3  UNL     1      -6.631  -0.313  53.008  1.00  0.00    -0.177 N 
ATOM      3  H3  UNL     1      -6.753  -1.290  53.274  1.00  0.00     0.185 HD
HETATM    4  C9  UNL     1      -7.286   0.135  51.923  1.00  0.00     0.697 A 
HETATM    5  N7  UNL     1      -7.126   1.422  51.569  1.00  0.00    -0.022 N 
ATOM      6  H7  UNL     1      -7.605   1.799  50.752  1.00  0.00     0.203 HD
HETATM    7  C11 UNL     1      -6.323   2.203  52.310  1.00  0.00     0.691 A 
HETATM    8  N9  UNL     1      -5.676   1.731  53.396  1.00  0.00    -0.178 N 
ATOM      9  H9  UNL     1      -5.072   2.352  53.936  1.00  0.00     0.185 HD
ENDROOT
BRANCH   1  10
HETATM   10  C4  UNL     1      -5.155  -0.197  54.911  1.00  0.00     0.257 C 
BRANCH  10  11
HETATM   11  C3  UNL     1      -3.782  -0.672  54.726  1.00  0.00     0.067 C 
BRANCH  11  12
HETATM   12  C2  UNL     1      -2.907  -0.749  55.889  1.00  0.00    -0.034 C 
HETATM   13  C1  UNL     1      -2.485  -1.904  56.398  1.00  0.00     0.007 C 
ENDBRANCH  11  12
ENDBRANCH  10  11
BRANCH  10  14
HETATM   14  N1  UNL     1      -6.067  -1.206  55.410  1.00  0.00    -0.064 N 
ATOM     15  H12 UNL     1      -6.923  -1.225  54.857  1.00  0.00     0.278 HD
ATOM     16  H11 UNL     1      -5.716  -2.143  55.209  1.00  0.00     0.278 HD
BRANCH  14  17
HETATM   17  C5  UNL     1      -6.367  -1.062  56.819  1.00  0.00     0.235 C 
BRANCH  17  18
HETATM   18  C6  UNL     1      -6.790  -2.403  57.415  1.00  0.00     0.055 C 
BRANCH  18  19
HETATM   19  C7  UNL     1      -6.086  -3.496  56.604  1.00  0.00     0.231 C 
BRANCH  19  20
HETATM   20  N2  UNL     1      -7.128  -4.238  55.929  1.00  0.00    -0.079 N 
ATOM     21  H23 UNL     1      -7.402  -5.089  56.421  1.00  0.00     0.274 HD
ATOM     22  H22 UNL     1      -8.036  -3.776  55.957  1.00  0.00     0.274 HD
ATOM     23  H21 UNL     1      -6.791  -4.410  54.981  1.00  0.00     0.274 HD
ENDBRANCH  19  20
ENDBRANCH  18  19
ENDBRANCH  17  18
ENDBRANCH  14  17
ENDBRANCH  10  14
ENDBRANCH   1  10
BRANCH   4  24
HETATM   24  N4  UNL     1      -8.042  -0.615  51.230  1.00  0.00    -0.173 N 
HETATM   25  C10 UNL     1      -7.731  -1.397  50.090  1.00  0.00     0.494 C 
HETATM   26  N5  UNL     1      -7.326  -0.653  48.924  1.00  0.00    -0.032 N 
HETATM   27  N6  UNL     1      -6.791  -2.477  50.322  1.00  0.00    -0.032 N 
ATOM     28  H53 UNL     1      -8.035   0.042  48.688  1.00  0.00     0.278 HD
ATOM     29  H52 UNL     1      -6.544  -0.041  49.153  1.00  0.00     0.278 HD
ATOM     30  H51 UNL     1      -7.103  -1.216  48.103  1.00  0.00     0.278 HD
ATOM     31  H63 UNL     1      -5.936  -2.115  50.743  1.00  0.00     0.278 HD
ATOM     32  H62 UNL     1      -7.122  -3.076  51.078  1.00  0.00     0.278 HD
ATOM     33  H61 UNL     1      -6.567  -3.040  49.500  1.00  0.00     0.278 HD
ATOM     34  H4  UNL     1      -9.013  -0.660  51.540  1.00  0.00     0.181 HD
ENDBRANCH   4  24
BRANCH   7  35
HETATM   35  N8  UNL     1      -6.131   3.452  52.018  1.00  0.00    -0.234 N 
ATOM     36  H82 UNL     1      -5.986   3.672  51.032  1.00  0.00     0.174 HD
ATOM     37  H81 UNL     1      -6.125   4.175  52.738  1.00  0.00     0.174 HD
ENDBRANCH   7  35
TORSDOF 10
ENDMDL
MODEL 3
REMARK VINA RESULT: -6.231611243      3.030      4.575
REMARK  10 active torsions:
REMARK  status: ('A' for Active; 'I' for Inactive)
REMARK    1  A    between atoms: C2_2  and  C3_3 
REMARK    2  A    between atoms: C3_3  and  C4_4 
REMARK    3  A    between atoms: C4_4  and  N1_5 
REMARK    4  A    between atoms: C4_4  and  C8_15 
REMARK    5  A    between atoms: N1_5  and  C5_8 
REMARK    6  A    between atoms: C5_8  and  C6_9 
REMARK    7  A    between atoms: C6_9  and  C7_10 
REMARK    8  A    between atoms: C7_10  and  N2_11 
REMARK    9  A    between atoms: C9_18  and  N4_19 
REMARK       I    between atoms: N4_19  and  C10_21 
REMARK       I    between atoms: C10_21  and  N5_22 
REMARK       I    between atoms: C10_21  and  N6_26 
REMARK   10  A    between atoms: C11_32  and  N8_33 
ROOT
HETATM    1  C8  UNL     1      -5.603   0.039  53.656  1.00  0.00     0.144 A 
HETATM    2  N3  UNL     1      -6.482  -0.631  52.882  1.00  0.00    -0.177 N 
ATOM      3  H3  UNL     1      -6.644  -1.618  53.083  1.00  0.00     0.185 HD
HETATM    4  C9  UNL     1      -7.156  -0.073  51.862  1.00  0.00     0.697 A 
HETATM    5  N7  UNL     1      -6.943   1.227  51.594  1.00  0.00    -0.022 N 
ATOM      6  H7  UNL     1      -7.436   1.686  50.828  1.00  0.00     0.203 HD
HETATM    7  C11 UNL     1      -6.071   1.911  52.352  1.00  0.00     0.691 A 
HETATM    8  N9  UNL     1      -5.405   1.329  53.371  1.00  0.00    -0.178 N 
ATOM      9  H9  UNL     1      -4.747   1.878  53.927  1.00  0.00     0.185 HD
ENDROOT
BRANCH   1  10
HETATM   10  C4  UNL     1      -4.924  -0.728  54.720  1.00  0.00     0.257 C 
BRANCH  10  11
HETATM   11  C3  UNL     1      -5.693  -1.068  55.919  1.00  0.00     0.067 C 
BRANCH  11  12
HETATM   12  C2  UNL     1      -5.450  -2.352  56.564  1.00  0.00    -0.034 C 
HETATM   13  C1  UNL     1      -6.433  -3.165  56.943  1.00  0.00     0.007 C 
ENDBRANCH  11  12
ENDBRANCH  10  11
BRANCH  10  14
HETATM   14  N1  UNL     1      -3.671  -0.053  54.993  1.00  0.00    -0.064 N 
ATOM     15  H12 UNL     1      -3.685   0.898  54.624  1.00  0.00     0.278 HD
ATOM     16  H11 UNL     1      -3.581   0.155  55.988  1.00  0.00     0.278 HD
BRANCH  14  17
HETATM   17  C5  UNL     1      -2.513  -0.775  54.512  1.00  0.00     0.235 C 
BRANCH  17  18
HETATM   18  C6  UNL     1      -1.895  -1.603  55.636  1.00  0.00     0.055 C 
BRANCH  18  19
HETATM   19  C7  UNL     1      -1.895  -0.725  56.892  1.00  0.00     0.231 C 
BRANCH  19  20
HETATM   20  N2  UNL     1      -0.552  -0.775  57.426  1.00  0.00    -0.079 N 
ATOM     21  H23 UNL     1      -0.234  -1.722  57.633  1.00  0.00     0.274 HD
ATOM     22  H22 UNL     1       0.166  -0.548  56.737  1.00  0.00     0.274 HD
ATOM     23  H21 UNL     1      -0.541  -0.158  58.238  1.00  0.00     0.274 HD
ENDBRANCH  19  20
ENDBRANCH  18  19
ENDBRANCH  17  18
ENDBRANCH  14  17
ENDBRANCH  10  14
ENDBRANCH   1  10
BRANCH   4  24
HETATM   24  N4  UNL     1      -7.979  -0.732  51.153  1.00  0.00    -0.173 N 
HETATM   25  C10 UNL     1      -7.750  -1.468  49.964  1.00  0.00     0.494 C 
HETATM   26  N5  UNL     1      -7.327  -0.689  48.828  1.00  0.00    -0.032 N 
HETATM   27  N6  UNL     1      -6.880  -2.619  50.109  1.00  0.00    -0.032 N 
ATOM     28  H53 UNL     1      -7.993   0.063  48.651  1.00  0.00     0.278 HD
ATOM     29  H52 UNL     1      -6.499  -0.143  49.067  1.00  0.00     0.278 HD
ATOM     30  H51 UNL     1      -7.163  -1.219  47.971  1.00  0.00     0.278 HD
ATOM     31  H63 UNL     1      -5.992  -2.338  50.525  1.00  0.00     0.278 HD
ATOM     32  H62 UNL     1      -7.232  -3.235  50.842  1.00  0.00     0.278 HD
ATOM     33  H61 UNL     1      -6.716  -3.150  49.253  1.00  0.00     0.278 HD
ATOM     34  H4  UNL     1      -8.943  -0.730  51.488  1.00  0.00     0.181 HD
ENDBRANCH   4  24
BRANCH   7  35
HETATM   35  N8  UNL     1      -5.826   3.167  52.141  1.00  0.00    -0.234 N 
ATOM     36  H82 UNL     1      -5.851   3.479  51.170  1.00  0.00     0.174 HD
ATOM     37  H81 UNL     1      -5.619   3.807  52.907  1.00  0.00     0.174 HD
ENDBRANCH   7  35
TORSDOF 10
ENDMDL
MODEL 4
REMARK VINA RESULT: -6.161630275      2.670      4.778
REMARK  10 active torsions:
REMARK  status: ('A' for Active; 'I' for Inactive)
REMARK    1  A    between atoms: C2_2  and  C3_3 
REMARK    2  A    between atoms: C3_3  and  C4_4 
REMARK    3  A    between atoms: C4_4  and  N1_5 
REMARK    4  A    between atoms: C4_4  and  C8_15 
REMARK    5  A    between atoms: N1_5  and  C5_8 
REMARK    6  A    between atoms: C5_8  and  C6_9 
REMARK    7  A    between atoms: C6_9  and  C7_10 
REMARK    8  A    between atoms: C7_10  and  N2_11 
REMARK    9  A    between atoms: C9_18  and  N4_19 
REMARK       I    between atoms: N4_19  and  C10_21 
REMARK       I    between atoms: C10_21  and  N5_22 
REMARK       I    between atoms: C10_21  and  N6_26 
REMARK   10  A    between atoms: C11_32  and  N8_33 
ROOT
HETATM    1  C8  UNL     1      -5.233  -0.221  53.489  1.00  0.00     0.144 A 
HETATM    2  N3  UNL     1      -5.959  -0.948  52.615  1.00  0.00    -0.177 N 
ATOM      3  H3  UNL     1      -6.848  -1.335  52.934  1.00  0.00     0.185 HD
HETATM    4  C9  UNL     1      -5.580  -1.192  51.349  1.00  0.00     0.697 A 
HETATM    5  N7  UNL     1      -4.409  -0.684  50.926  1.00  0.00    -0.022 N 
ATOM      6  H7  UNL     1      -4.087  -0.847  49.972  1.00  0.00     0.203 HD
HETATM    7  C11 UNL     1      -3.671   0.041  51.782  1.00  0.00     0.691 A 
HETATM    8  N9  UNL     1      -4.072   0.273  53.050  1.00  0.00    -0.178 N 
ATOM      9  H9  UNL     1      -3.485   0.827  53.674  1.00  0.00     0.185 HD
ENDROOT
BRANCH   1  10
HETATM   10  C4  UNL     1      -5.779  -0.070  54.853  1.00  0.00     0.257 C 
BRANCH  10  11
HETATM   11  C3  UNL     1      -5.555  -1.158  55.807  1.00  0.00     0.067 C 
BRANCH  11  12
HETATM   12  C2  UNL     1      -6.404  -1.236  56.989  1.00  0.00    -0.034 C 
HETATM   13  C1  UNL     1      -6.737  -2.391  57.562  1.00  0.00     0.007 C 
ENDBRANCH  11  12
ENDBRANCH  10  11
BRANCH  10  14
HETATM   14  N1  UNL     1      -7.168   0.315  54.711  1.00  0.00    -0.064 N 
ATOM     15  H12 UNL     1      -7.590  -0.145  53.904  1.00  0.00     0.278 HD
ATOM     16  H11 UNL     1      -7.735  -0.095  55.453  1.00  0.00     0.278 HD
BRANCH  14  17
HETATM   17  C5  UNL     1      -7.364   1.747  54.646  1.00  0.00     0.235 C 
BRANCH  17  18
HETATM   18  C6  UNL     1      -7.934   2.148  53.287  1.00  0.00     0.055 C 
BRANCH  18  19
HETATM   19  C7  UNL     1      -6.839   2.932  52.556  1.00  0.00     0.231 C 
BRANCH  19  20
HETATM   20  N2  UNL     1      -6.655   2.282  51.277  1.00  0.00    -0.079 N 
ATOM     21  H23 UNL     1      -7.041   1.338  51.244  1.00  0.00     0.274 HD
ATOM     22  H22 UNL     1      -7.229   2.680  50.535  1.00  0.00     0.274 HD
ATOM     23  H21 UNL     1      -5.655   2.317  51.077  1.00  0.00     0.274 HD
ENDBRANCH  19  20
ENDBRANCH  18  19
ENDBRANCH  17  18
ENDBRANCH  14  17
ENDBRANCH  10  14
ENDBRANCH   1  10
BRANCH   4  24
HETATM   24  N4  UNL     1      -6.288  -1.879  50.549  1.00  0.00    -0.173 N 
HETATM   25  C10 UNL     1      -7.453  -1.506  49.834  1.00  0.00     0.494 C 
HETATM   26  N5  UNL     1      -8.600  -1.188  50.646  1.00  0.00    -0.032 N 
HETATM   27  N6  UNL     1      -7.261  -0.463  48.844  1.00  0.00    -0.032 N 
ATOM     28  H53 UNL     1      -8.810  -1.963  51.275  1.00  0.00     0.278 HD
ATOM     29  H52 UNL     1      -8.359  -0.466  51.325  1.00  0.00     0.278 HD
ATOM     30  H51 UNL     1      -9.439  -0.919  50.131  1.00  0.00     0.278 HD
ATOM     31  H63 UNL     1      -6.836   0.357  49.275  1.00  0.00     0.278 HD
ATOM     32  H62 UNL     1      -6.520  -0.727  48.195  1.00  0.00     0.278 HD
ATOM     33  H61 UNL     1      -8.100  -0.194  48.329  1.00  0.00     0.278 HD
ATOM     34  H4  UNL     1      -5.973  -2.838  50.401  1.00  0.00     0.181 HD
ENDBRANCH   4  24
BRANCH   7  35
HETATM   35  N8  UNL     1      -2.533   0.556  51.431  1.00  0.00    -0.234 N 
ATOM     36  H82 UNL     1      -2.448   0.854  50.459  1.00  0.00     0.174 HD
ATOM     37  H81 UNL     1      -1.764   0.656  52.094  1.00  0.00     0.174 HD
ENDBRANCH   7  35
TORSDOF 10
ENDMDL
MODEL 5
REMARK VINA RESULT: -6.159546426      2.608      5.722
REMARK  10 active torsions:
REMARK  status: ('A' for Active; 'I' for Inactive)
REMARK    1  A    between atoms: C2_2  and  C3_3 
REMARK    2  A    between atoms: C3_3  and  C4_4 
REMARK    3  A    between atoms: C4_4  and  N1_5 
REMARK    4  A    between atoms: C4_4  and  C8_15 
REMARK    5  A    between atoms: N1_5  and  C5_8 
REMARK    6  A    between atoms: C5_8  and  C6_9 
REMARK    7  A    between atoms: C6_9  and  C7_10 
REMARK    8  A    between atoms: C7_10  and  N2_11 
REMARK    9  A    between atoms: C9_18  and  N4_19 
REMARK       I    between atoms: N4_19  and  C10_21 
REMARK       I    between atoms: C10_21  and  N5_22 
REMARK       I    between atoms: C10_21  and  N6_26 
REMARK   10  A    between atoms: C11_32  and  N8_33 
ROOT
HETATM    1  C8  UNL     1      -5.549   0.052  53.611  1.00  0.00     0.144 A 
HETATM    2  N3  UNL     1      -6.180  -0.745  52.723  1.00  0.00    -0.177 N 
ATOM      3  H3  UNL     1      -7.082  -1.142  52.989  1.00  0.00     0.185 HD
HETATM    4  C9  UNL     1      -5.690  -1.046  51.508  1.00  0.00     0.697 A 
HETATM    5  N7  UNL     1      -4.501  -0.525  51.155  1.00  0.00    -0.022 N 
ATOM      6  H7  UNL     1      -4.096  -0.730  50.242  1.00  0.00     0.203 HD
HETATM    7  C11 UNL     1      -3.857   0.269  52.026  1.00  0.00     0.691 A 
HETATM    8  N9  UNL     1      -4.369   0.557  53.241  1.00  0.00    -0.178 N 
ATOM      9  H9  UNL     1      -3.853   1.164  53.879  1.00  0.00     0.185 HD
ENDROOT
BRANCH   1  10
HETATM   10  C4  UNL     1      -6.212   0.260  54.915  1.00  0.00     0.257 C 
BRANCH  10  11
HETATM   11  C3  UNL     1      -5.910   1.491  55.649  1.00  0.00     0.067 C 
BRANCH  11  12
HETATM   12  C2  UNL     1      -6.730   2.670  55.401  1.00  0.00    -0.034 C 
HETATM   13  C1  UNL     1      -7.923   2.607  54.814  1.00  0.00     0.007 C 
ENDBRANCH  11  12
ENDBRANCH  10  11
BRANCH  10  14
HETATM   14  N1  UNL     1      -6.015  -0.951  55.685  1.00  0.00    -0.064 N 
ATOM     15  H12 UNL     1      -6.285  -1.772  55.144  1.00  0.00     0.278 HD
ATOM     16  H11 UNL     1      -5.021  -1.147  55.804  1.00  0.00     0.278 HD
BRANCH  14  17
HETATM   17  C5  UNL     1      -6.692  -0.933  56.964  1.00  0.00     0.235 C 
BRANCH  17  18
HETATM   18  C6  UNL     1      -6.798  -2.347  57.533  1.00  0.00     0.055 C 
BRANCH  18  19
HETATM   19  C7  UNL     1      -6.047  -3.273  56.571  1.00  0.00     0.231 C 
BRANCH  19  20
HETATM   20  N2  UNL     1      -7.040  -4.144  55.982  1.00  0.00    -0.079 N 
ATOM     21  H23 UNL     1      -7.941  -3.688  55.834  1.00  0.00     0.274 HD
ATOM     22  H22 UNL     1      -6.850  -4.372  55.006  1.00  0.00     0.274 HD
ATOM     23  H21 UNL     1      -7.098  -4.965  56.585  1.00  0.00     0.274 HD
ENDBRANCH  19  20
ENDBRANCH  18  19
ENDBRANCH  17  18
ENDBRANCH  14  17
ENDBRANCH  10  14
ENDBRANCH   1  10
BRANCH   4  24
HETATM   24  N4  UNL     1      -6.309  -1.798  50.694  1.00  0.00    -0.173 N 
HETATM   25  C10 UNL     1      -7.446  -1.514  49.897  1.00  0.00     0.494 C 
HETATM   26  N5  UNL     1      -8.656  -1.232  50.626  1.00  0.00    -0.032 N 
HETATM   27  N6  UNL     1      -7.248  -0.497  48.881  1.00  0.00    -0.032 N 
ATOM     28  H53 UNL     1      -8.863  -1.995  51.270  1.00  0.00     0.278 HD
ATOM     29  H52 UNL     1      -8.496  -0.475  51.290  1.00  0.00     0.278 HD
ATOM     30  H51 UNL     1      -9.475  -1.028  50.051  1.00  0.00     0.278 HD
ATOM     31  H63 UNL     1      -6.894   0.359  49.306  1.00  0.00     0.278 HD
ATOM     32  H62 UNL     1      -6.455  -0.742  48.288  1.00  0.00     0.278 HD
ATOM     33  H61 UNL     1      -8.066  -0.293  48.307  1.00  0.00     0.278 HD
ATOM     34  H4  UNL     1      -5.935  -2.743  50.602  1.00  0.00     0.181 HD
ENDBRANCH   4  24
BRANCH   7  35
HETATM   35  N8  UNL     1      -2.708   0.800  51.740  1.00  0.00    -0.234 N 
ATOM     36  H82 UNL     1      -2.131   0.300  51.065  1.00  0.00     0.174 HD
ATOM     37  H81 UNL     1      -2.402   1.673  52.170  1.00  0.00     0.174 HD
ENDBRANCH   7  35
TORSDOF 10
ENDMDL
