MODEL 1
REMARK VINA RESULT: -7.355451105      0.000      0.000
REMARK  8 active torsions:
REMARK  status: ('A' for Active; 'I' for Inactive)
REMARK    1  A    between atoms: C2_7  and  C3_8 
REMARK    2  A    between atoms: C3_8  and  C4_9 
REMARK    3  A    between atoms: C4_9  and  C5_10 
REMARK    4  A    between atoms: C5_10  and  N3_11 
REMARK    5  A    between atoms: N3_11  and  C6_14 
REMARK    6  A    between atoms: C6_14  and  C7_15 
REMARK    7  A    between atoms: C7_15  and  N4_16 
REMARK    8  A    between atoms: N4_16  and  N5_17 
ROOT
HETATM    1  N1  UNL     1      -0.066   4.257  52.615  1.00  0.00    -0.384 N 
ATOM      2  H11 UNL     1      -0.622   5.085  52.827  1.00  0.00     0.157 HD
ATOM      3  H12 UNL     1       0.942   4.320  52.470  1.00  0.00     0.157 HD
HETATM    4  C1  UNL     1      -0.700   3.179  52.428  1.00  0.00     0.120 A 
HETATM    5  N2  UNL     1       0.050   2.065  52.142  1.00  0.00    -0.328 N 
ATOM      6  H2  UNL     1       1.058   2.127  51.994  1.00  0.00     0.169 HD
HETATM    7  C2  UNL     1      -0.639   0.814  52.060  1.00  0.00     0.104 A 
HETATM    8  N6  UNL     1      -1.928   0.788  52.262  1.00  0.00    -0.328 N 
ATOM      9  H6  UNL     1      -2.404  -0.112  52.203  1.00  0.00     0.169 HD
HETATM   10  C8  UNL     1      -2.664   1.871  52.542  1.00  0.00     0.130 A 
HETATM   11  N7  UNL     1      -4.002   1.801  52.699  1.00  0.00    -0.293 N 
ATOM     12  H7  UNL     1      -4.482   0.903  52.650  1.00  0.00     0.172 HD
HETATM   13  C9  UNL     1      -4.704   2.950  52.924  1.00  0.00     0.328 A 
HETATM   14  O1  UNL     1      -5.978   2.855  53.070  1.00  0.00    -0.247 OA
HETATM   15  N8  UNL     1      -4.095   4.140  52.993  1.00  0.00    -0.275 N 
ATOM     16  H8  UNL     1      -4.655   4.976  53.158  1.00  0.00     0.173 HD
HETATM   17  C10 UNL     1      -2.766   4.259  52.851  1.00  0.00     0.267 A 
HETATM   18  O2  UNL     1      -2.164   5.368  52.933  1.00  0.00    -0.267 OA
HETATM   19  C11 UNL     1      -2.038   3.095  52.620  1.00  0.00     0.120 A 
ENDROOT
BRANCH   7  20
HETATM   20  C3  UNL     1       0.255  -0.188  51.550  1.00  0.00     0.023 C 
BRANCH  20  21
HETATM   21  C4  UNL     1       1.458   0.032  50.770  1.00  0.00     0.058 C 
BRANCH  21  22
HETATM   22  C5  UNL     1       1.439  -0.414  49.370  1.00  0.00     0.236 C 
BRANCH  22  23
HETATM   23  N3  UNL     1       2.846  -0.365  48.850  1.00  0.00    -0.074 N 
ATOM     24  H32 UNL     1       3.330  -1.261  48.897  1.00  0.00     0.277 HD
ATOM     25  H31 UNL     1       2.903  -0.248  47.837  1.00  0.00     0.277 HD
BRANCH  23  26
HETATM   26  C6  UNL     1       3.512   0.698  49.597  1.00  0.00     0.250 C 
BRANCH  26  27
HETATM   27  C7  UNL     1       4.588   1.361  48.809  1.00  0.00     0.161 C 
BRANCH  27  28
HETATM   28  N4  UNL     1       4.009   2.329  47.886  1.00  0.00    -0.147 NA
BRANCH  28  29
HETATM   29  N5  UNL     1       4.461   3.604  48.301  1.00  0.00    -0.348 N 
ATOM     30  H52 UNL     1       5.416   3.844  48.565  1.00  0.00     0.172 HD
ATOM     31  H51 UNL     1       3.649   4.222  48.281  1.00  0.00     0.172 HD
ENDBRANCH  28  29
ENDBRANCH  27  28
ENDBRANCH  26  27
ENDBRANCH  23  26
ENDBRANCH  22  23
ENDBRANCH  21  22
ENDBRANCH  20  21
ENDBRANCH   7  20
TORSDOF 8
ENDMDL
MODEL 2
REMARK VINA RESULT: -7.337216134      1.130      2.439
REMARK  8 active torsions:
REMARK  status: ('A' for Active; 'I' for Inactive)
REMARK    1  A    between atoms: C2_7  and  C3_8 
REMARK    2  A    between atoms: C3_8  and  C4_9 
REMARK    3  A    between atoms: C4_9  and  C5_10 
REMARK    4  A    between atoms: C5_10  and  N3_11 
REMARK    5  A    between atoms: N3_11  and  C6_14 
REMARK    6  A    between atoms: C6_14  and  C7_15 
REMARK    7  A    between atoms: C7_15  and  N4_16 
REMARK    8  A    between atoms: N4_16  and  N5_17 
ROOT
HETATM    1  N1  UNL     1      -3.616   0.159  52.381  1.00  0.00    -0.384 N 
ATOM      2  H11 UNL     1      -4.536   0.520  52.634  1.00  0.00     0.157 HD
ATOM      3  H12 UNL     1      -3.453  -0.842  52.272  1.00  0.00     0.157 HD
HETATM    4  C1  UNL     1      -2.672   0.998  52.326  1.00  0.00     0.120 A 
HETATM    5  N2  UNL     1      -1.434   0.512  51.985  1.00  0.00    -0.328 N 
ATOM      6  H2  UNL     1      -1.269  -0.489  51.877  1.00  0.00     0.169 HD
HETATM    7  C2  UNL     1      -0.387   1.466  51.787  1.00  0.00     0.104 A 
HETATM    8  N6  UNL     1      -0.652   2.736  51.933  1.00  0.00    -0.328 N 
ATOM      9  H6  UNL     1       0.105   3.403  51.785  1.00  0.00     0.169 HD
HETATM   10  C8  UNL     1      -1.857   3.216  52.263  1.00  0.00     0.130 A 
HETATM   11  N7  UNL     1      -2.073   4.535  52.446  1.00  0.00    -0.293 N 
ATOM     12  H7  UNL     1      -1.322   5.207  52.291  1.00  0.00     0.172 HD
HETATM   13  C9  UNL     1      -3.309   4.956  52.841  1.00  0.00     0.328 A 
HETATM   14  O1  UNL     1      -3.487   6.219  53.008  1.00  0.00    -0.247 OA
HETATM   15  N8  UNL     1      -4.309   4.092  53.049  1.00  0.00    -0.275 N 
ATOM     16  H8  UNL     1      -5.218   4.445  53.349  1.00  0.00     0.173 HD
HETATM   17  C10 UNL     1      -4.146   2.771  52.873  1.00  0.00     0.267 A 
HETATM   18  O2  UNL     1      -5.080   1.935  53.043  1.00  0.00    -0.267 OA
HETATM   19  C11 UNL     1      -2.889   2.327  52.472  1.00  0.00     0.120 A 
ENDROOT
BRANCH   7  20
HETATM   20  C3  UNL     1       0.865   0.775  51.650  1.00  0.00     0.023 C 
BRANCH  20  21
HETATM   21  C4  UNL     1       1.291  -0.044  50.530  1.00  0.00     0.058 C 
BRANCH  21  22
HETATM   22  C5  UNL     1       2.699   0.060  50.123  1.00  0.00     0.236 C 
BRANCH  22  23
HETATM   23  N3  UNL     1       3.228   1.375  50.618  1.00  0.00    -0.074 N 
ATOM     24  H32 UNL     1       2.519   2.107  50.667  1.00  0.00     0.277 HD
ATOM     25  H31 UNL     1       3.470   1.371  51.609  1.00  0.00     0.277 HD
BRANCH  23  26
HETATM   26  C6  UNL     1       4.350   1.709  49.745  1.00  0.00     0.250 C 
BRANCH  26  27
HETATM   27  C7  UNL     1       4.041   1.481  48.307  1.00  0.00     0.161 C 
BRANCH  27  28
HETATM   28  N4  UNL     1       4.587   2.564  47.498  1.00  0.00    -0.147 NA
BRANCH  28  29
HETATM   29  N5  UNL     1       4.494   3.740  48.279  1.00  0.00    -0.348 N 
ATOM     30  H52 UNL     1       3.634   4.236  48.514  1.00  0.00     0.172 HD
ATOM     31  H51 UNL     1       5.445   3.985  48.553  1.00  0.00     0.172 HD
ENDBRANCH  28  29
ENDBRANCH  27  28
ENDBRANCH  26  27
ENDBRANCH  23  26
ENDBRANCH  22  23
ENDBRANCH  21  22
ENDBRANCH  20  21
ENDBRANCH   7  20
TORSDOF 8
ENDMDL
MODEL 3
REMARK VINA RESULT: -7.194021360      3.122      6.438
REMARK  8 active torsions:
REMARK  status: ('A' for Active; 'I' for Inactive)
REMARK    1  A    between atoms: C2_7  and  C3_8 
REMARK    2  A    between atoms: C3_8  and  C4_9 
REMARK    3  A    between atoms: C4_9  and  C5_10 
REMARK    4  A    between atoms: C5_10  and  N3_11 
REMARK    5  A    between atoms: N3_11  and  C6_14 
REMARK    6  A    between atoms: C6_14  and  C7_15 
REMARK    7  A    between atoms: C7_15  and  N4_16 
REMARK    8  A    between atoms: N4_16  and  N5_17 
ROOT
HETATM    1  N1  UNL     1      -1.933   4.713  53.138  1.00  0.00    -0.384 N 
ATOM      2  H11 UNL     1      -0.925   4.817  53.027  1.00  0.00     0.157 HD
ATOM      3  H12 UNL     1      -2.513   5.488  53.460  1.00  0.00     0.157 HD
HETATM    4  C1  UNL     1      -2.407   3.552  52.968  1.00  0.00     0.120 A 
HETATM    5  N2  UNL     1      -3.764   3.412  53.117  1.00  0.00    -0.328 N 
ATOM      6  H2  UNL     1      -4.345   4.186  53.442  1.00  0.00     0.169 HD
HETATM    7  C2  UNL     1      -4.331   2.138  52.798  1.00  0.00     0.104 A 
HETATM    8  N6  UNL     1      -3.545   1.183  52.383  1.00  0.00    -0.328 N 
ATOM      9  H6  UNL     1      -3.965   0.282  52.157  1.00  0.00     0.169 HD
HETATM   10  C8  UNL     1      -2.221   1.313  52.234  1.00  0.00     0.130 A 
HETATM   11  N7  UNL     1      -1.443   0.283  51.844  1.00  0.00    -0.293 N 
ATOM     12  H7  UNL     1      -1.858  -0.618  51.608  1.00  0.00     0.172 HD
HETATM   13  C9  UNL     1      -0.092   0.464  51.769  1.00  0.00     0.328 A 
HETATM   14  O1  UNL     1       0.626  -0.536  51.395  1.00  0.00    -0.247 OA
HETATM   15  N8  UNL     1       0.475   1.637  52.073  1.00  0.00    -0.275 N 
ATOM     16  H8  UNL     1       1.489   1.731  52.010  1.00  0.00     0.173 HD
HETATM   17  C10 UNL     1      -0.258   2.693  52.459  1.00  0.00     0.267 A 
HETATM   18  O2  UNL     1       0.251   3.819  52.731  1.00  0.00    -0.267 OA
HETATM   19  C11 UNL     1      -1.637   2.523  52.541  1.00  0.00     0.120 A 
ENDROOT
BRANCH   7  20
HETATM   20  C3  UNL     1      -5.707   2.114  53.212  1.00  0.00     0.023 C 
BRANCH  20  21
HETATM   21  C4  UNL     1      -6.590   0.963  53.233  1.00  0.00     0.058 C 
BRANCH  21  22
HETATM   22  C5  UNL     1      -6.952   0.373  51.937  1.00  0.00     0.236 C 
BRANCH  22  23
HETATM   23  N3  UNL     1      -6.686  -1.103  52.010  1.00  0.00    -0.074 N 
ATOM     24  H32 UNL     1      -6.058  -1.367  52.770  1.00  0.00     0.277 HD
ATOM     25  H31 UNL     1      -7.491  -1.647  52.322  1.00  0.00     0.277 HD
BRANCH  23  26
HETATM   26  C6  UNL     1      -6.198  -1.488  50.689  1.00  0.00     0.250 C 
BRANCH  26  27
HETATM   27  C7  UNL     1      -5.388  -0.416  50.046  1.00  0.00     0.161 C 
BRANCH  27  28
HETATM   28  N4  UNL     1      -3.982  -0.797  50.019  1.00  0.00    -0.147 NA
BRANCH  28  29
HETATM   29  N5  UNL     1      -3.906  -2.106  50.550  1.00  0.00    -0.348 N 
ATOM     30  H52 UNL     1      -4.070  -2.368  51.523  1.00  0.00     0.172 HD
ATOM     31  H51 UNL     1      -3.657  -2.722  49.776  1.00  0.00     0.172 HD
ENDBRANCH  28  29
ENDBRANCH  27  28
ENDBRANCH  26  27
ENDBRANCH  23  26
ENDBRANCH  22  23
ENDBRANCH  21  22
ENDBRANCH  20  21
ENDBRANCH   7  20
TORSDOF 8
ENDMDL
MODEL 4
REMARK VINA RESULT: -7.192293177      3.452      6.966
REMARK  8 active torsions:
REMARK  status: ('A' for Active; 'I' for Inactive)
REMARK    1  A    between atoms: C2_7  and  C3_8 
REMARK    2  A    between atoms: C3_8  and  C4_9 
REMARK    3  A    between atoms: C4_9  and  C5_10 
REMARK    4  A    between atoms: C5_10  and  N3_11 
REMARK    5  A    between atoms: N3_11  and  C6_14 
REMARK    6  A    between atoms: C6_14  and  C7_15 
REMARK    7  A    between atoms: C7_15  and  N4_16 
REMARK    8  A    between atoms: N4_16  and  N5_17 
ROOT
HETATM    1  N1  UNL     1      -0.184   4.177  52.622  1.00  0.00    -0.384 N 
ATOM      2  H11 UNL     1       0.734   3.751  52.499  1.00  0.00     0.157 HD
ATOM      3  H12 UNL     1      -0.284   5.175  52.804  1.00  0.00     0.157 HD
HETATM    4  C1  UNL     1      -1.175   3.392  52.653  1.00  0.00     0.120 A 
HETATM    5  N2  UNL     1      -2.411   3.965  52.819  1.00  0.00    -0.328 N 
ATOM      6  H2  UNL     1      -2.512   4.964  53.004  1.00  0.00     0.169 HD
HETATM    7  C2  UNL     1      -3.551   3.107  52.722  1.00  0.00     0.104 A 
HETATM    8  N6  UNL     1      -3.368   1.837  52.480  1.00  0.00    -0.328 N 
ATOM      9  H6  UNL     1      -4.191   1.240  52.411  1.00  0.00     0.169 HD
HETATM   10  C8  UNL     1      -2.165   1.272  52.316  1.00  0.00     0.130 A 
HETATM   11  N7  UNL     1      -2.023  -0.053  52.111  1.00  0.00    -0.293 N 
ATOM     12  H7  UNL     1      -2.843  -0.655  52.032  1.00  0.00     0.172 HD
HETATM   13  C9  UNL     1      -0.767  -0.577  52.011  1.00  0.00     0.328 A 
HETATM   14  O1  UNL     1      -0.661  -1.845  51.816  1.00  0.00    -0.247 OA
HETATM   15  N8  UNL     1       0.323   0.192  52.110  1.00  0.00    -0.275 N 
ATOM     16  H8  UNL     1       1.244  -0.238  52.035  1.00  0.00     0.173 HD
HETATM   17  C10 UNL     1       0.232   1.517  52.306  1.00  0.00     0.267 A 
HETATM   18  O2  UNL     1       1.246   2.270  52.382  1.00  0.00    -0.267 OA
HETATM   19  C11 UNL     1      -1.043   2.065  52.411  1.00  0.00     0.120 A 
ENDROOT
BRANCH   7  20
HETATM   20  C3  UNL     1      -4.725   3.828  53.129  1.00  0.00     0.023 C 
BRANCH  20  21
HETATM   21  C4  UNL     1      -6.032   3.793  52.500  1.00  0.00     0.058 C 
BRANCH  21  22
HETATM   22  C5  UNL     1      -6.869   2.613  52.761  1.00  0.00     0.236 C 
BRANCH  22  23
HETATM   23  N3  UNL     1      -6.823   1.735  51.544  1.00  0.00    -0.074 N 
ATOM     24  H32 UNL     1      -7.492   2.004  50.822  1.00  0.00     0.277 HD
ATOM     25  H31 UNL     1      -5.980   1.860  50.983  1.00  0.00     0.277 HD
BRANCH  23  26
HETATM   26  C6  UNL     1      -7.005   0.370  52.028  1.00  0.00     0.250 C 
BRANCH  26  27
HETATM   27  C7  UNL     1      -5.868  -0.520  51.663  1.00  0.00     0.161 C 
BRANCH  27  28
HETATM   28  N4  UNL     1      -5.053  -0.801  52.838  1.00  0.00    -0.147 NA
BRANCH  28  29
HETATM   29  N5  UNL     1      -5.942  -0.911  53.932  1.00  0.00    -0.348 N 
ATOM     30  H52 UNL     1      -6.632  -0.215  54.215  1.00  0.00     0.172 HD
ATOM     31  H51 UNL     1      -5.755  -1.813  54.372  1.00  0.00     0.172 HD
ENDBRANCH  28  29
ENDBRANCH  27  28
ENDBRANCH  26  27
ENDBRANCH  23  26
ENDBRANCH  22  23
ENDBRANCH  21  22
ENDBRANCH  20  21
ENDBRANCH   7  20
TORSDOF 8
ENDMDL
MODEL 5
REMARK VINA RESULT: -7.159394122      3.222      7.186
REMARK  8 active torsions:
REMARK  status: ('A' for Active; 'I' for Inactive)
REMARK    1  A    between atoms: C2_7  and  C3_8 
REMARK    2  A    between atoms: C3_8  and  C4_9 
REMARK    3  A    between atoms: C4_9  and  C5_10 
REMARK    4  A    between atoms: C5_10  and  N3_11 
REMARK    5  A    between atoms: N3_11  and  C6_14 
REMARK    6  A    between atoms: C6_14  and  C7_15 
REMARK    7  A    between atoms: C7_15  and  N4_16 
REMARK    8  A    between atoms: N4_16  and  N5_17 
ROOT
HETATM    1  N1  UNL     1      -1.585   4.856  53.135  1.00  0.00    -0.384 N 
ATOM      2  H11 UNL     1      -0.575   4.778  53.020  1.00  0.00     0.157 HD
ATOM      3  H12 UNL     1      -2.014   5.716  53.477  1.00  0.00     0.157 HD
HETATM    4  C1  UNL     1      -2.262   3.804  52.945  1.00  0.00     0.120 A 
HETATM    5  N2  UNL     1      -3.622   3.910  53.100  1.00  0.00    -0.328 N 
ATOM      6  H2  UNL     1      -4.051   4.769  53.444  1.00  0.00     0.169 HD
HETATM    7  C2  UNL     1      -4.411   2.767  52.759  1.00  0.00     0.104 A 
HETATM    8  N6  UNL     1      -3.813   1.694  52.318  1.00  0.00    -0.328 N 
ATOM      9  H6  UNL     1      -4.390   0.889  52.077  1.00  0.00     0.169 HD
HETATM   10  C8  UNL     1      -2.488   1.585  52.164  1.00  0.00     0.130 A 
HETATM   11  N7  UNL     1      -1.910   0.439  51.748  1.00  0.00    -0.293 N 
ATOM     12  H7  UNL     1      -2.483  -0.366  51.496  1.00  0.00     0.172 HD
HETATM   13  C9  UNL     1      -0.549   0.374  51.668  1.00  0.00     0.328 A 
HETATM   14  O1  UNL     1      -0.026  -0.731  51.268  1.00  0.00    -0.247 OA
HETATM   15  N8  UNL     1       0.222   1.418  51.992  1.00  0.00    -0.275 N 
ATOM     16  H8  UNL     1       1.236   1.328  51.924  1.00  0.00     0.173 HD
HETATM   17  C10 UNL     1      -0.306   2.581  52.404  1.00  0.00     0.267 A 
HETATM   18  O2  UNL     1       0.400   3.589  52.696  1.00  0.00    -0.267 OA
HETATM   19  C11 UNL     1      -1.693   2.662  52.491  1.00  0.00     0.120 A 
ENDROOT
BRANCH   7  20
HETATM   20  C3  UNL     1      -5.768   2.983  53.180  1.00  0.00     0.023 C 
BRANCH  20  21
HETATM   21  C4  UNL     1      -6.970   2.474  52.547  1.00  0.00     0.058 C 
BRANCH  21  22
HETATM   22  C5  UNL     1      -7.455   1.161  52.992  1.00  0.00     0.236 C 
BRANCH  22  23
HETATM   23  N3  UNL     1      -7.781   0.350  51.771  1.00  0.00    -0.074 N 
ATOM     24  H32 UNL     1      -8.695  -0.101  51.813  1.00  0.00     0.277 HD
ATOM     25  H31 UNL     1      -7.962   0.917  50.941  1.00  0.00     0.277 HD
BRANCH  23  26
HETATM   26  C6  UNL     1      -6.674  -0.587  51.606  1.00  0.00     0.250 C 
BRANCH  26  27
HETATM   27  C7  UNL     1      -6.329  -0.816  50.176  1.00  0.00     0.161 C 
BRANCH  27  28
HETATM   28  N4  UNL     1      -6.564  -2.210  49.819  1.00  0.00    -0.147 NA
BRANCH  28  29
HETATM   29  N5  UNL     1      -7.925  -2.310  49.448  1.00  0.00    -0.348 N 
ATOM     30  H52 UNL     1      -8.691  -1.749  49.823  1.00  0.00     0.172 HD
ATOM     31  H51 UNL     1      -7.983  -3.043  48.741  1.00  0.00     0.172 HD
ENDBRANCH  28  29
ENDBRANCH  27  28
ENDBRANCH  26  27
ENDBRANCH  23  26
ENDBRANCH  22  23
ENDBRANCH  21  22
ENDBRANCH  20  21
ENDBRANCH   7  20
TORSDOF 8
ENDMDL
