MODEL 1
REMARK VINA RESULT: -7.549640383      0.000      0.000
REMARK  6 active torsions:
REMARK  status: ('A' for Active; 'I' for Inactive)
REMARK    1  A    between atoms: C2_2  and  O2_4 
REMARK    2  A    between atoms: O2_4  and  N1_5 
REMARK    3  A    between atoms: C3_7  and  C4_8 
REMARK    4  A    between atoms: C3_7  and  N6_22 
REMARK    5  A    between atoms: N2_12  and  N3_13 
REMARK    6  A    between atoms: C7_16  and  N4_17 
ROOT
HETATM    1  C4  UNL     1      45.717   6.105  11.443  1.00  0.00     0.106 A 
HETATM    2  C5  UNL     1      45.206   7.397  11.443  1.00  0.00     0.111 A 
HETATM    3  C6  UNL     1      45.617   8.350  12.350  1.00  0.00     0.284 A 
HETATM    4  O3  UNL     1      45.173   9.527  12.373  1.00  0.00    -0.266 OA
HETATM    5  N2  UNL     1      46.552   8.023  13.279  1.00  0.00    -0.055 N 
HETATM    6  C7  UNL     1      47.054   6.761  13.283  1.00  0.00     0.700 A 
HETATM    7  N5  UNL     1      46.641   5.846  12.390  1.00  0.00    -0.186 N 
ATOM      8  H5  UNL     1      47.046   4.910  12.432  1.00  0.00     0.184 HD
ENDROOT
BRANCH   1   9
HETATM    9  C3  UNL     1      45.305   5.096  10.509  1.00  0.00     0.221 C 
HETATM   10  N1  UNL     1      45.502   5.247   9.247  1.00  0.00    -0.234 N 
ATOM     11  H1  UNL     1      45.959   6.109   8.949  1.00  0.00     0.197 HD
BRANCH  10  12
HETATM   12  O2  UNL     1      45.159   4.370   8.281  1.00  0.00    -0.198 OA
BRANCH  12  13
HETATM   13  C2  UNL     1      46.146   3.596   7.695  1.00  0.00     0.277 C 
HETATM   14  C1  UNL     1      46.439   2.198   8.097  1.00  0.00     0.128 C 
HETATM   15  O1  UNL     1      46.837   4.087   6.775  1.00  0.00    -0.264 OA
ENDBRANCH  12  13
ENDBRANCH  10  12
BRANCH   9  16
HETATM   16  N6  UNL     1      44.676   3.918  10.962  1.00  0.00    -0.094 N 
HETATM   17  O4  UNL     1      45.361   3.017  11.459  1.00  0.00    -0.530 OA
HETATM   18  O5  UNL     1      43.326   3.757  10.860  1.00  0.00    -0.530 OA
ENDBRANCH   9  16
ENDBRANCH   1   9
BRANCH   6  19
HETATM   19  N4  UNL     1      47.942   6.501  14.189  1.00  0.00    -0.233 N 
ATOM     20  H42 UNL     1      47.887   6.875  15.136  1.00  0.00     0.174 HD
ATOM     21  H41 UNL     1      48.712   5.895  13.904  1.00  0.00     0.174 HD
ENDBRANCH   6  19
BRANCH   5  22
HETATM   22  N3  UNL     1      47.000   8.951  14.218  1.00  0.00    -0.321 N 
ATOM     23  H32 UNL     1      46.846   8.783  15.212  1.00  0.00     0.178 HD
ATOM     24  H31 UNL     1      47.483   9.804  13.934  1.00  0.00     0.178 HD
ENDBRANCH   5  22
TORSDOF 6
ENDMDL
MODEL 2
REMARK VINA RESULT: -7.446755747      3.594      5.990
REMARK  6 active torsions:
REMARK  status: ('A' for Active; 'I' for Inactive)
REMARK    1  A    between atoms: C2_2  and  O2_4 
REMARK    2  A    between atoms: O2_4  and  N1_5 
REMARK    3  A    between atoms: C3_7  and  C4_8 
REMARK    4  A    between atoms: C3_7  and  N6_22 
REMARK    5  A    between atoms: N2_12  and  N3_13 
REMARK    6  A    between atoms: C7_16  and  N4_17 
ROOT
HETATM    1  C4  UNL     1      46.049   5.308  13.290  1.00  0.00     0.106 A 
HETATM    2  C5  UNL     1      45.085   4.460  12.757  1.00  0.00     0.111 A 
HETATM    3  C6  UNL     1      44.028   4.929  12.006  1.00  0.00     0.284 A 
HETATM    4  O3  UNL     1      43.142   4.186  11.511  1.00  0.00    -0.266 OA
HETATM    5  N2  UNL     1      43.919   6.263  11.774  1.00  0.00    -0.055 N 
HETATM    6  C7  UNL     1      44.859   7.095  12.293  1.00  0.00     0.700 A 
HETATM    7  N5  UNL     1      45.882   6.619  13.022  1.00  0.00    -0.186 N 
ATOM      8  H5  UNL     1      46.564   7.281  13.392  1.00  0.00     0.184 HD
ENDROOT
BRANCH   1   9
HETATM    9  C3  UNL     1      47.157   4.843  14.074  1.00  0.00     0.221 C 
HETATM   10  N1  UNL     1      47.133   3.682  14.627  1.00  0.00    -0.234 N 
ATOM     11  H1  UNL     1      46.295   3.117  14.482  1.00  0.00     0.197 HD
BRANCH  10  12
HETATM   12  O2  UNL     1      48.113   3.143  15.382  1.00  0.00    -0.198 OA
BRANCH  12  13
HETATM   13  C2  UNL     1      47.981   3.151  16.760  1.00  0.00     0.277 C 
HETATM   14  C1  UNL     1      49.134   3.134  17.695  1.00  0.00     0.128 C 
HETATM   15  O1  UNL     1      46.834   3.173  17.261  1.00  0.00    -0.264 OA
ENDBRANCH  12  13
ENDBRANCH  10  12
BRANCH   9  16
HETATM   16  N6  UNL     1      48.296   5.655  14.250  1.00  0.00    -0.094 N 
HETATM   17  O4  UNL     1      48.586   6.057  15.384  1.00  0.00    -0.530 OA
HETATM   18  O5  UNL     1      49.082   6.004  13.193  1.00  0.00    -0.530 OA
ENDBRANCH   9  16
ENDBRANCH   1   9
BRANCH   6  19
HETATM   19  N4  UNL     1      44.708   8.356  12.042  1.00  0.00    -0.233 N 
ATOM     20  H42 UNL     1      45.411   9.054  12.286  1.00  0.00     0.174 HD
ATOM     21  H41 UNL     1      43.838   8.622  11.582  1.00  0.00     0.174 HD
ENDBRANCH   6  19
BRANCH   5  22
HETATM   22  N3  UNL     1      42.868   6.786  11.021  1.00  0.00    -0.321 N 
ATOM     23  H32 UNL     1      42.856   7.778  10.786  1.00  0.00     0.178 HD
ATOM     24  H31 UNL     1      42.103   6.196  10.693  1.00  0.00     0.178 HD
ENDBRANCH   5  22
TORSDOF 6
ENDMDL
MODEL 3
REMARK VINA RESULT: -7.432021766      2.063      2.437
REMARK  6 active torsions:
REMARK  status: ('A' for Active; 'I' for Inactive)
REMARK    1  A    between atoms: C2_2  and  O2_4 
REMARK    2  A    between atoms: O2_4  and  N1_5 
REMARK    3  A    between atoms: C3_7  and  C4_8 
REMARK    4  A    between atoms: C3_7  and  N6_22 
REMARK    5  A    between atoms: N2_12  and  N3_13 
REMARK    6  A    between atoms: C7_16  and  N4_17 
ROOT
HETATM    1  C4  UNL     1      45.944   4.253  12.191  1.00  0.00     0.106 A 
HETATM    2  C5  UNL     1      46.114   5.632  12.204  1.00  0.00     0.111 A 
HETATM    3  C6  UNL     1      46.835   6.275  13.187  1.00  0.00     0.284 A 
HETATM    4  O3  UNL     1      47.006   7.520  13.224  1.00  0.00    -0.266 OA
HETATM    5  N2  UNL     1      47.402   5.543  14.181  1.00  0.00    -0.055 N 
HETATM    6  C7  UNL     1      47.238   4.194  14.172  1.00  0.00     0.700 A 
HETATM    7  N5  UNL     1      46.531   3.586  13.205  1.00  0.00    -0.186 N 
ATOM      8  H5  UNL     1      46.435   2.571  13.239  1.00  0.00     0.184 HD
ENDROOT
BRANCH   1   9
HETATM    9  C3  UNL     1      45.198   3.562  11.177  1.00  0.00     0.221 C 
HETATM   10  N1  UNL     1      45.793   3.028  10.171  1.00  0.00    -0.234 N 
ATOM     11  H1  UNL     1      46.809   3.121  10.130  1.00  0.00     0.197 HD
BRANCH  10  12
HETATM   12  O2  UNL     1      45.198   2.357   9.162  1.00  0.00    -0.198 OA
BRANCH  12  13
HETATM   13  C2  UNL     1      45.974   1.887   8.117  1.00  0.00     0.277 C 
HETATM   14  C1  UNL     1      46.434   2.736   6.990  1.00  0.00     0.128 C 
HETATM   15  O1  UNL     1      46.315   0.683   8.106  1.00  0.00    -0.264 OA
ENDBRANCH  12  13
ENDBRANCH  10  12
BRANCH   9  16
HETATM   16  N6  UNL     1      43.795   3.458  11.271  1.00  0.00    -0.094 N 
HETATM   17  O4  UNL     1      43.093   4.429  10.968  1.00  0.00    -0.530 OA
HETATM   18  O5  UNL     1      43.202   2.304  11.690  1.00  0.00    -0.530 OA
ENDBRANCH   9  16
ENDBRANCH   1   9
BRANCH   6  19
HETATM   19  N4  UNL     1      47.798   3.543  15.142  1.00  0.00    -0.233 N 
ATOM     20  H42 UNL     1      47.499   3.637  16.112  1.00  0.00     0.174 HD
ATOM     21  H41 UNL     1      48.564   2.922  14.883  1.00  0.00     0.174 HD
ENDBRANCH   6  19
BRANCH   5  22
HETATM   22  N3  UNL     1      48.140   6.146  15.198  1.00  0.00    -0.321 N 
ATOM     23  H32 UNL     1      49.109   5.869  15.356  1.00  0.00     0.178 HD
ATOM     24  H31 UNL     1      47.733   6.865  15.797  1.00  0.00     0.178 HD
ENDBRANCH   5  22
TORSDOF 6
ENDMDL
MODEL 4
REMARK VINA RESULT: -7.401508821      1.452      2.057
REMARK  6 active torsions:
REMARK  status: ('A' for Active; 'I' for Inactive)
REMARK    1  A    between atoms: C2_2  and  O2_4 
REMARK    2  A    between atoms: O2_4  and  N1_5 
REMARK    3  A    between atoms: C3_7  and  C4_8 
REMARK    4  A    between atoms: C3_7  and  N6_22 
REMARK    5  A    between atoms: N2_12  and  N3_13 
REMARK    6  A    between atoms: C7_16  and  N4_17 
ROOT
HETATM    1  C4  UNL     1      45.565   6.164  11.336  1.00  0.00     0.106 A 
HETATM    2  C5  UNL     1      46.628   5.816  12.160  1.00  0.00     0.111 A 
HETATM    3  C6  UNL     1      47.128   6.674  13.117  1.00  0.00     0.284 A 
HETATM    4  O3  UNL     1      48.088   6.386  13.876  1.00  0.00    -0.266 OA
HETATM    5  N2  UNL     1      46.567   7.902  13.266  1.00  0.00    -0.055 N 
HETATM    6  C7  UNL     1      45.527   8.246  12.462  1.00  0.00     0.700 A 
HETATM    7  N5  UNL     1      45.054   7.396  11.535  1.00  0.00    -0.186 N 
ATOM      8  H5  UNL     1      44.272   7.698  10.955  1.00  0.00     0.184 HD
ENDROOT
BRANCH   1   9
HETATM    9  C3  UNL     1      45.027   5.288  10.334  1.00  0.00     0.221 C 
HETATM   10  N1  UNL     1      45.647   5.099   9.224  1.00  0.00    -0.234 N 
ATOM     11  H1  UNL     1      46.528   5.597   9.093  1.00  0.00     0.197 HD
BRANCH  10  12
HETATM   12  O2  UNL     1      45.239   4.301   8.214  1.00  0.00    -0.198 OA
BRANCH  12  13
HETATM   13  C2  UNL     1      46.167   3.495   7.577  1.00  0.00     0.277 C 
HETATM   14  C1  UNL     1      46.461   2.099   7.988  1.00  0.00     0.128 C 
HETATM   15  O1  UNL     1      46.802   3.953   6.601  1.00  0.00    -0.264 OA
ENDBRANCH  12  13
ENDBRANCH  10  12
BRANCH   9  16
HETATM   16  N6  UNL     1      43.806   4.618  10.553  1.00  0.00    -0.094 N 
HETATM   17  O4  UNL     1      42.785   5.277  10.781  1.00  0.00    -0.530 OA
HETATM   18  O5  UNL     1      43.734   3.257  10.519  1.00  0.00    -0.530 OA
ENDBRANCH   9  16
ENDBRANCH   1   9
BRANCH   6  19
HETATM   19  N4  UNL     1      45.030   9.427  12.645  1.00  0.00    -0.233 N 
ATOM     20  H42 UNL     1      45.183  10.196  11.993  1.00  0.00     0.174 HD
ATOM     21  H41 UNL     1      44.467   9.553  13.487  1.00  0.00     0.174 HD
ENDBRANCH   6  19
BRANCH   5  22
HETATM   22  N3  UNL     1      47.037   8.805  14.218  1.00  0.00    -0.321 N 
ATOM     23  H32 UNL     1      47.842   9.394  14.007  1.00  0.00     0.178 HD
ATOM     24  H31 UNL     1      46.591   8.893  15.132  1.00  0.00     0.178 HD
ENDBRANCH   5  22
TORSDOF 6
ENDMDL
MODEL 5
REMARK VINA RESULT: -7.296101876      3.380      6.329
REMARK  6 active torsions:
REMARK  status: ('A' for Active; 'I' for Inactive)
REMARK    1  A    between atoms: C2_2  and  O2_4 
REMARK    2  A    between atoms: O2_4  and  N1_5 
REMARK    3  A    between atoms: C3_7  and  C4_8 
REMARK    4  A    between atoms: C3_7  and  N6_22 
REMARK    5  A    between atoms: N2_12  and  N3_13 
REMARK    6  A    between atoms: C7_16  and  N4_17 
ROOT
HETATM    1  C4  UNL     1      45.248   3.103   9.111  1.00  0.00     0.106 A 
HETATM    2  C5  UNL     1      45.540   1.749   8.992  1.00  0.00     0.111 A 
HETATM    3  C6  UNL     1      46.394   1.264   8.025  1.00  0.00     0.284 A 
HETATM    4  O3  UNL     1      46.677   0.046   7.893  1.00  0.00    -0.266 OA
HETATM    5  N2  UNL     1      46.974   2.132   7.155  1.00  0.00    -0.055 N 
HETATM    6  C7  UNL     1      46.691   3.456   7.268  1.00  0.00     0.700 A 
HETATM    7  N5  UNL     1      45.856   3.909   8.218  1.00  0.00    -0.186 N 
ATOM      8  H5  UNL     1      45.673   4.912   8.265  1.00  0.00     0.184 HD
ENDROOT
BRANCH   1   9
HETATM    9  C3  UNL     1      44.363   3.630  10.110  1.00  0.00     0.221 C 
HETATM   10  N1  UNL     1      43.774   4.760   9.938  1.00  0.00    -0.234 N 
ATOM     11  H1  UNL     1      43.967   5.256   9.067  1.00  0.00     0.197 HD
BRANCH  10  12
HETATM   12  O2  UNL     1      42.925   5.352  10.804  1.00  0.00    -0.198 OA
BRANCH  12  13
HETATM   13  C2  UNL     1      43.420   5.851  11.997  1.00  0.00     0.277 C 
HETATM   14  C1  UNL     1      44.592   6.757  12.085  1.00  0.00     0.128 C 
HETATM   15  O1  UNL     1      42.861   5.528  13.069  1.00  0.00    -0.264 OA
ENDBRANCH  12  13
ENDBRANCH  10  12
BRANCH   9  16
HETATM   16  N6  UNL     1      44.123   2.914  11.301  1.00  0.00    -0.094 N 
HETATM   17  O4  UNL     1      43.076   2.268  11.420  1.00  0.00    -0.530 OA
HETATM   18  O5  UNL     1      45.027   2.924  12.322  1.00  0.00    -0.530 OA
ENDBRANCH   9  16
ENDBRANCH   1   9
BRANCH   6  19
HETATM   19  N4  UNL     1      47.269   4.239   6.415  1.00  0.00    -0.233 N 
ATOM     20  H42 UNL     1      48.132   4.740   6.625  1.00  0.00     0.174 HD
ATOM     21  H41 UNL     1      46.812   4.332   5.508  1.00  0.00     0.174 HD
ENDBRANCH   6  19
BRANCH   5  22
HETATM   22  N3  UNL     1      47.844   1.691   6.159  1.00  0.00    -0.321 N 
ATOM     23  H32 UNL     1      48.663   2.248   5.916  1.00  0.00     0.178 HD
ATOM     24  H31 UNL     1      47.682   0.815   5.661  1.00  0.00     0.178 HD
ENDBRANCH   5  22
TORSDOF 6
ENDMDL
