MODEL 1
REMARK VINA RESULT: -8.181741725      0.000      0.000
REMARK  4 active torsions:
REMARK  status: ('A' for Active; 'I' for Inactive)
REMARK    1  A    between atoms: C5_6  and  O2_7 
REMARK    2  A    between atoms: C10_14  and  O4_15 
REMARK    3  A    between atoms: O4_15  and  C11_16 
REMARK    4  A    between atoms: C11_16  and  C12_18 
ROOT
HETATM    1  C1  UNL     1      62.133  11.134  24.780  1.00  0.00     0.017 C 
HETATM    2  C2  UNL     1      61.567  12.324  24.751  1.00  0.00    -0.050 C 
HETATM    3  C3  UNL     1      60.136  12.585  24.842  1.00  0.00     0.051 C 
HETATM    4  C4  UNL     1      59.220  11.438  24.881  1.00  0.00     0.180 C 
HETATM    5  O1  UNL     1      58.023  11.863  24.263  1.00  0.00    -0.360 OA
HETATM    6  C5  UNL     1      58.285  13.067  23.617  1.00  0.00     0.264 C 
HETATM    7  C6  UNL     1      59.752  13.129  23.448  1.00  0.00     0.083 C 
HETATM    8  C7  UNL     1      60.383  14.440  23.303  1.00  0.00     0.169 A 
HETATM    9  O3  UNL     1      61.540  14.338  22.363  1.00  0.00    -0.366 OA
HETATM   10  C8  UNL     1      61.772  14.590  23.698  1.00  0.00     0.115 A 
HETATM   11  C9  UNL     1      62.273  16.019  23.947  1.00  0.00     0.052 C 
HETATM   12  C10 UNL     1      62.364  13.593  24.616  1.00  0.00     0.197 C 
ENDROOT
BRANCH  12  13
HETATM   13  O4  UNL     1      63.726  13.333  24.422  1.00  0.00    -0.308 OA
BRANCH  13  14
HETATM   14  C11 UNL     1      64.720  13.592  25.325  1.00  0.00     0.263 C 
HETATM   15  O5  UNL     1      65.194  14.768  25.294  1.00  0.00    -0.265 OA
BRANCH  14  16
HETATM   16  C12 UNL     1      65.224  12.576  26.285  1.00  0.00     0.077 C 
HETATM   17  C13 UNL     1      66.288  13.115  27.201  1.00  0.00     0.020 C 
HETATM   18  C14 UNL     1      65.667  11.305  25.590  1.00  0.00     0.020 C 
ENDBRANCH  14  16
ENDBRANCH  13  14
ENDBRANCH  12  13
BRANCH   6  19
HETATM   19  O2  UNL     1      57.571  13.169  22.428  1.00  0.00    -0.371 OA
ATOM     20  H2  UNL     1      58.134  13.428  21.709  1.00  0.00     0.212 HD
ENDBRANCH   6  19
TORSDOF 4
ENDMDL
MODEL 2
REMARK VINA RESULT: -7.823031812      1.654      3.188
REMARK  4 active torsions:
REMARK  status: ('A' for Active; 'I' for Inactive)
REMARK    1  A    between atoms: C5_6  and  O2_7 
REMARK    2  A    between atoms: C10_14  and  O4_15 
REMARK    3  A    between atoms: O4_15  and  C11_16 
REMARK    4  A    between atoms: C11_16  and  C12_18 
ROOT
HETATM    1  C1  UNL     1      63.170  14.704  24.760  1.00  0.00     0.017 C 
HETATM    2  C2  UNL     1      62.316  13.787  24.352  1.00  0.00    -0.050 C 
HETATM    3  C3  UNL     1      61.203  14.012  23.438  1.00  0.00     0.051 C 
HETATM    4  C4  UNL     1      60.935  15.385  22.991  1.00  0.00     0.180 C 
HETATM    5  O1  UNL     1      59.542  15.469  22.774  1.00  0.00    -0.360 OA
HETATM    6  C5  UNL     1      58.957  14.340  23.340  1.00  0.00     0.264 C 
HETATM    7  C6  UNL     1      59.942  13.811  24.308  1.00  0.00     0.083 C 
HETATM    8  C7  UNL     1      59.879  12.395  24.665  1.00  0.00     0.169 A 
HETATM    9  O3  UNL     1      60.253  12.223  26.100  1.00  0.00    -0.366 OA
HETATM   10  C8  UNL     1      61.091  11.738  25.119  1.00  0.00     0.115 A 
HETATM   11  C9  UNL     1      61.111  10.205  25.069  1.00  0.00     0.052 C 
HETATM   12  C10 UNL     1      62.398  12.353  24.799  1.00  0.00     0.197 C 
ENDROOT
BRANCH  12  13
HETATM   13  O4  UNL     1      63.401  12.164  25.757  1.00  0.00    -0.308 OA
BRANCH  13  14
HETATM   14  C11 UNL     1      64.504  11.369  25.606  1.00  0.00     0.263 C 
HETATM   15  O5  UNL     1      64.427  10.220  26.139  1.00  0.00    -0.265 OA
BRANCH  14  16
HETATM   16  C12 UNL     1      65.718  11.805  24.870  1.00  0.00     0.077 C 
HETATM   17  C13 UNL     1      66.724  10.700  24.697  1.00  0.00     0.020 C 
HETATM   18  C14 UNL     1      66.340  13.044  25.480  1.00  0.00     0.020 C 
ENDBRANCH  14  16
ENDBRANCH  13  14
ENDBRANCH  12  13
BRANCH   6  19
HETATM   19  O2  UNL     1      57.718  14.636  23.895  1.00  0.00    -0.371 OA
ATOM     20  H2  UNL     1      57.765  14.679  24.842  1.00  0.00     0.212 HD
ENDBRANCH   6  19
TORSDOF 4
ENDMDL
MODEL 3
REMARK VINA RESULT: -7.789716201      1.571      3.026
REMARK  4 active torsions:
REMARK  status: ('A' for Active; 'I' for Inactive)
REMARK    1  A    between atoms: C5_6  and  O2_7 
REMARK    2  A    between atoms: C10_14  and  O4_15 
REMARK    3  A    between atoms: O4_15  and  C11_16 
REMARK    4  A    between atoms: C11_16  and  C12_18 
ROOT
HETATM    1  C1  UNL     1      63.345  14.750  24.584  1.00  0.00     0.017 C 
HETATM    2  C2  UNL     1      62.478  13.834  24.198  1.00  0.00    -0.050 C 
HETATM    3  C3  UNL     1      61.304  14.075  23.369  1.00  0.00     0.051 C 
HETATM    4  C4  UNL     1      60.987  15.459  22.994  1.00  0.00     0.180 C 
HETATM    5  O1  UNL     1      59.582  15.528  22.873  1.00  0.00    -0.360 OA
HETATM    6  C5  UNL     1      59.052  14.369  23.431  1.00  0.00     0.264 C 
HETATM    7  C6  UNL     1      60.106  13.820  24.311  1.00  0.00     0.083 C 
HETATM    8  C7  UNL     1      60.087  12.391  24.615  1.00  0.00     0.169 A 
HETATM    9  O3  UNL     1      60.559  12.170  26.015  1.00  0.00    -0.366 OA
HETATM   10  C8  UNL     1      61.337  11.738  24.962  1.00  0.00     0.115 A 
HETATM   11  C9  UNL     1      61.375  10.208  24.851  1.00  0.00     0.052 C 
HETATM   12  C10 UNL     1      62.610  12.386  24.581  1.00  0.00     0.197 C 
ENDROOT
BRANCH  12  13
HETATM   13  O4  UNL     1      63.678  12.177  25.464  1.00  0.00    -0.308 OA
BRANCH  13  14
HETATM   14  C11 UNL     1      64.861  11.570  25.147  1.00  0.00     0.263 C 
HETATM   15  O5  UNL     1      64.823  10.782  24.154  1.00  0.00    -0.265 OA
BRANCH  14  16
HETATM   16  C12 UNL     1      66.118  11.806  25.904  1.00  0.00     0.077 C 
HETATM   17  C13 UNL     1      66.025  12.983  26.837  1.00  0.00     0.020 C 
HETATM   18  C14 UNL     1      67.323  11.902  24.992  1.00  0.00     0.020 C 
ENDBRANCH  14  16
ENDBRANCH  13  14
ENDBRANCH  12  13
BRANCH   6  19
HETATM   19  O2  UNL     1      57.848  14.623  24.078  1.00  0.00    -0.371 OA
ATOM     20  H2  UNL     1      57.417  13.817  24.335  1.00  0.00     0.212 HD
ENDBRANCH   6  19
TORSDOF 4
ENDMDL
MODEL 4
REMARK VINA RESULT: -7.784529637      1.695      6.000
REMARK  4 active torsions:
REMARK  status: ('A' for Active; 'I' for Inactive)
REMARK    1  A    between atoms: C5_6  and  O2_7 
REMARK    2  A    between atoms: C10_14  and  O4_15 
REMARK    3  A    between atoms: O4_15  and  C11_16 
REMARK    4  A    between atoms: C11_16  and  C12_18 
ROOT
HETATM    1  C1  UNL     1      59.573  11.528  25.419  1.00  0.00     0.017 C 
HETATM    2  C2  UNL     1      60.389  12.125  24.573  1.00  0.00    -0.050 C 
HETATM    3  C3  UNL     1      61.809  11.836  24.418  1.00  0.00     0.051 C 
HETATM    4  C4  UNL     1      62.426  10.864  25.330  1.00  0.00     0.180 C 
HETATM    5  O1  UNL     1      63.770  11.266  25.490  1.00  0.00    -0.360 OA
HETATM    6  C5  UNL     1      63.891  12.553  24.974  1.00  0.00     0.264 C 
HETATM    7  C6  UNL     1      62.521  13.107  24.931  1.00  0.00     0.083 C 
HETATM    8  C7  UNL     1      62.232  14.182  23.984  1.00  0.00     0.169 A 
HETATM    9  O3  UNL     1      61.246  15.129  24.586  1.00  0.00    -0.366 OA
HETATM   10  C8  UNL     1      60.868  14.347  23.516  1.00  0.00     0.115 A 
HETATM   11  C9  UNL     1      60.667  15.165  22.233  1.00  0.00     0.052 C 
HETATM   12  C10 UNL     1      59.929  13.211  23.639  1.00  0.00     0.197 C 
ENDROOT
BRANCH  12  13
HETATM   13  O4  UNL     1      58.591  13.559  23.866  1.00  0.00    -0.308 OA
BRANCH  13  14
HETATM   14  C11 UNL     1      57.627  13.671  22.903  1.00  0.00     0.263 C 
HETATM   15  O5  UNL     1      57.766  12.910  21.898  1.00  0.00    -0.265 OA
BRANCH  14  16
HETATM   16  C12 UNL     1      56.485  14.615  23.011  1.00  0.00     0.077 C 
HETATM   17  C13 UNL     1      55.456  14.413  21.931  1.00  0.00     0.020 C 
HETATM   18  C14 UNL     1      56.942  16.057  23.092  1.00  0.00     0.020 C 
ENDBRANCH  14  16
ENDBRANCH  13  14
ENDBRANCH  12  13
BRANCH   6  19
HETATM   19  O2  UNL     1      64.789  13.313  25.715  1.00  0.00    -0.371 OA
ATOM     20  H2  UNL     1      64.850  14.200  25.379  1.00  0.00     0.212 HD
ENDBRANCH   6  19
TORSDOF 4
ENDMDL
MODEL 5
REMARK VINA RESULT: -7.697390185      1.821      6.103
REMARK  4 active torsions:
REMARK  status: ('A' for Active; 'I' for Inactive)
REMARK    1  A    between atoms: C5_6  and  O2_7 
REMARK    2  A    between atoms: C10_14  and  O4_15 
REMARK    3  A    between atoms: O4_15  and  C11_16 
REMARK    4  A    between atoms: C11_16  and  C12_18 
ROOT
HETATM    1  C1  UNL     1      62.761  15.624  23.341  1.00  0.00     0.017 C 
HETATM    2  C2  UNL     1      62.590  14.738  24.301  1.00  0.00    -0.050 C 
HETATM    3  C3  UNL     1      63.629  14.254  25.203  1.00  0.00     0.051 C 
HETATM    4  C4  UNL     1      65.008  14.710  24.985  1.00  0.00     0.180 C 
HETATM    5  O1  UNL     1      65.847  13.660  25.415  1.00  0.00    -0.360 OA
HETATM    6  C5  UNL     1      65.055  12.529  25.590  1.00  0.00     0.264 C 
HETATM    7  C6  UNL     1      63.820  12.772  24.813  1.00  0.00     0.083 C 
HETATM    8  C7  UNL     1      62.603  12.059  25.196  1.00  0.00     0.169 A 
HETATM    9  O3  UNL     1      61.809  11.731  23.975  1.00  0.00    -0.366 OA
HETATM   10  C8  UNL     1      61.319  12.654  24.873  1.00  0.00     0.115 A 
HETATM   11  C9  UNL     1      60.098  12.133  25.643  1.00  0.00     0.052 C 
HETATM   12  C10 UNL     1      61.256  14.104  24.587  1.00  0.00     0.197 C 
ENDROOT
BRANCH  12  13
HETATM   13  O4  UNL     1      60.287  14.490  23.653  1.00  0.00    -0.308 OA
BRANCH  13  14
HETATM   14  C11 UNL     1      59.037  14.956  23.952  1.00  0.00     0.263 C 
HETATM   15  O5  UNL     1      58.887  15.401  25.131  1.00  0.00    -0.265 OA
BRANCH  14  16
HETATM   16  C12 UNL     1      57.917  14.949  22.976  1.00  0.00     0.077 C 
HETATM   17  C13 UNL     1      56.764  15.814  23.405  1.00  0.00     0.020 C 
HETATM   18  C14 UNL     1      57.471  13.543  22.631  1.00  0.00     0.020 C 
ENDBRANCH  14  16
ENDBRANCH  13  14
ENDBRANCH  12  13
BRANCH   6  19
HETATM   19  O2  UNL     1      65.736  11.373  25.227  1.00  0.00    -0.371 OA
ATOM     20  H2  UNL     1      65.922  10.830  25.984  1.00  0.00     0.212 HD
ENDBRANCH   6  19
TORSDOF 4
ENDMDL
