MODEL 1
REMARK VINA RESULT: -6.283416605      0.000      0.000
REMARK  5 active torsions:
REMARK  status: ('A' for Active; 'I' for Inactive)
REMARK    1  A    between atoms: C2_2  and  O1_4 
REMARK    2  A    between atoms: O1_4  and  C4_5 
REMARK       I    between atoms: C4_5  and  N1_7 
REMARK    3  A    between atoms: C7_11  and  C8_12 
REMARK    4  A    between atoms: C8_12  and  O5_14 
REMARK    5  A    between atoms: O5_14  and  C9_15 
ROOT
HETATM    1  C4  UNL     1      60.083  13.232  22.968  1.00  0.00     0.365 C 
HETATM    2  O2  UNL     1      60.721  13.626  21.948  1.00  0.00    -0.238 OA
HETATM    3  N1  UNL     1      60.679  12.539  24.037  1.00  0.00    -0.290 N 
HETATM    4  C5  UNL     1      60.059  12.048  25.237  1.00  0.00     0.299 C 
HETATM    5  O3  UNL     1      61.008  11.296  25.913  1.00  0.00    -0.369 OA
HETATM    6  C6  UNL     1      61.955  10.902  24.954  1.00  0.00     0.205 C 
HETATM    7  C7  UNL     1      62.067  12.176  24.141  1.00  0.00     0.215 C 
ENDROOT
BRANCH   7   8
HETATM    8  C8  UNL     1      62.863  13.165  24.909  1.00  0.00     0.285 C 
HETATM    9  O4  UNL     1      62.675  14.397  24.879  1.00  0.00    -0.263 OA
BRANCH   8  10
HETATM   10  O5  UNL     1      63.875  12.697  25.709  1.00  0.00    -0.310 OA
BRANCH  10  11
HETATM   11  C9  UNL     1      65.238  12.923  25.538  1.00  0.00     0.060 C 
HETATM   12  C10 UNL     1      65.882  12.772  26.924  1.00  0.00     0.045 C 
HETATM   13  C11 UNL     1      65.906  11.946  24.606  1.00  0.00     0.045 C 
HETATM   14  C12 UNL     1      65.566  14.325  25.078  1.00  0.00     0.045 C 
ENDBRANCH  10  11
ENDBRANCH   8  10
ENDBRANCH   7   8
BRANCH   1  15
HETATM   15  O1  UNL     1      58.710  13.546  22.949  1.00  0.00    -0.299 OA
BRANCH  15  16
HETATM   16  C2  UNL     1      58.251  14.879  23.109  1.00  0.00     0.125 C 
HETATM   17  C1  UNL     1      58.684  15.410  24.461  1.00  0.00     0.040 C 
HETATM   18  C3  UNL     1      56.740  14.958  23.068  1.00  0.00     0.040 C 
ENDBRANCH  15  16
ENDBRANCH   1  15
TORSDOF 5
ENDMDL
MODEL 2
REMARK VINA RESULT: -6.263922989      3.478      5.961
REMARK  5 active torsions:
REMARK  status: ('A' for Active; 'I' for Inactive)
REMARK    1  A    between atoms: C2_2  and  O1_4 
REMARK    2  A    between atoms: O1_4  and  C4_5 
REMARK       I    between atoms: C4_5  and  N1_7 
REMARK    3  A    between atoms: C7_11  and  C8_12 
REMARK    4  A    between atoms: C8_12  and  O5_14 
REMARK    5  A    between atoms: O5_14  and  C9_15 
ROOT
HETATM    1  C4  UNL     1      64.963  11.287  25.782  1.00  0.00     0.365 C 
HETATM    2  O2  UNL     1      64.670  10.059  25.698  1.00  0.00    -0.238 OA
HETATM    3  N1  UNL     1      66.276  11.780  25.673  1.00  0.00    -0.290 N 
HETATM    4  C5  UNL     1      66.725  13.144  25.750  1.00  0.00     0.299 C 
HETATM    5  O3  UNL     1      68.111  13.123  25.747  1.00  0.00    -0.369 OA
HETATM    6  C6  UNL     1      68.486  11.842  26.184  1.00  0.00     0.205 C 
HETATM    7  C7  UNL     1      67.461  10.994  25.457  1.00  0.00     0.215 C 
ENDROOT
BRANCH   7   8
HETATM    8  C8  UNL     1      67.840  10.908  24.026  1.00  0.00     0.285 C 
HETATM    9  O4  UNL     1      68.986  11.125  23.586  1.00  0.00    -0.263 OA
BRANCH   8  10
HETATM   10  O5  UNL     1      66.868  10.566  23.120  1.00  0.00    -0.310 OA
BRANCH  10  11
HETATM   11  C9  UNL     1      66.548   9.281  22.694  1.00  0.00     0.060 C 
HETATM   12  C10 UNL     1      67.288   9.064  21.366  1.00  0.00     0.045 C 
HETATM   13  C11 UNL     1      66.978   8.197  23.648  1.00  0.00     0.045 C 
HETATM   14  C12 UNL     1      65.080   9.093  22.386  1.00  0.00     0.045 C 
ENDBRANCH  10  11
ENDBRANCH   8  10
ENDBRANCH   7   8
BRANCH   1  15
HETATM   15  O1  UNL     1      63.858  12.133  25.994  1.00  0.00    -0.299 OA
BRANCH  15  16
HETATM   16  C2  UNL     1      63.048  12.582  24.918  1.00  0.00     0.125 C 
HETATM   17  C1  UNL     1      63.202  14.081  24.754  1.00  0.00     0.040 C 
HETATM   18  C3  UNL     1      61.581  12.314  25.175  1.00  0.00     0.040 C 
ENDBRANCH  15  16
ENDBRANCH   1  15
TORSDOF 5
ENDMDL
MODEL 3
REMARK VINA RESULT: -6.206712979      1.271      1.994
REMARK  5 active torsions:
REMARK  status: ('A' for Active; 'I' for Inactive)
REMARK    1  A    between atoms: C2_2  and  O1_4 
REMARK    2  A    between atoms: O1_4  and  C4_5 
REMARK       I    between atoms: C4_5  and  N1_7 
REMARK    3  A    between atoms: C7_11  and  C8_12 
REMARK    4  A    between atoms: C8_12  and  O5_14 
REMARK    5  A    between atoms: O5_14  and  C9_15 
ROOT
HETATM    1  C4  UNL     1      61.307  13.360  24.309  1.00  0.00     0.365 C 
HETATM    2  O2  UNL     1      62.170  13.841  23.518  1.00  0.00    -0.238 OA
HETATM    3  N1  UNL     1      61.424  12.093  24.907  1.00  0.00    -0.290 N 
HETATM    4  C5  UNL     1      60.514  11.448  25.815  1.00  0.00     0.299 C 
HETATM    5  O3  UNL     1      60.971  10.153  26.006  1.00  0.00    -0.369 OA
HETATM    6  C6  UNL     1      61.775   9.851  24.895  1.00  0.00     0.205 C 
HETATM    7  C7  UNL     1      62.508  11.166  24.723  1.00  0.00     0.215 C 
ENDROOT
BRANCH   7   8
HETATM    8  C8  UNL     1      63.545  11.277  25.778  1.00  0.00     0.285 C 
HETATM    9  O4  UNL     1      63.973  10.318  26.449  1.00  0.00    -0.263 OA
BRANCH   8  10
HETATM   10  O5  UNL     1      64.071  12.518  26.037  1.00  0.00    -0.310 OA
BRANCH  10  11
HETATM   11  C9  UNL     1      65.374  12.934  25.782  1.00  0.00     0.060 C 
HETATM   12  C10 UNL     1      65.274  14.354  25.206  1.00  0.00     0.045 C 
HETATM   13  C11 UNL     1      66.247  12.991  27.008  1.00  0.00     0.045 C 
HETATM   14  C12 UNL     1      66.079  12.109  24.730  1.00  0.00     0.045 C 
ENDBRANCH  10  11
ENDBRANCH   8  10
ENDBRANCH   7   8
BRANCH   1  15
HETATM   15  O1  UNL     1      60.205  14.204  24.547  1.00  0.00    -0.299 OA
BRANCH  15  16
HETATM   16  C2  UNL     1      59.270  14.513  23.524  1.00  0.00     0.125 C 
HETATM   17  C1  UNL     1      58.174  15.397  24.085  1.00  0.00     0.040 C 
HETATM   18  C3  UNL     1      58.600  13.267  22.987  1.00  0.00     0.040 C 
ENDBRANCH  15  16
ENDBRANCH   1  15
TORSDOF 5
ENDMDL
MODEL 4
REMARK VINA RESULT: -6.162330110      1.584      6.595
REMARK  5 active torsions:
REMARK  status: ('A' for Active; 'I' for Inactive)
REMARK    1  A    between atoms: C2_2  and  O1_4 
REMARK    2  A    between atoms: O1_4  and  C4_5 
REMARK       I    between atoms: C4_5  and  N1_7 
REMARK    3  A    between atoms: C7_11  and  C8_12 
REMARK    4  A    between atoms: C8_12  and  O5_14 
REMARK    5  A    between atoms: O5_14  and  C9_15 
ROOT
HETATM    1  C4  UNL     1      61.710  12.653  24.640  1.00  0.00     0.365 C 
HETATM    2  O2  UNL     1      61.175  11.517  24.476  1.00  0.00    -0.238 OA
HETATM    3  N1  UNL     1      61.226  13.831  24.044  1.00  0.00    -0.290 N 
HETATM    4  C5  UNL     1      61.746  15.166  24.159  1.00  0.00     0.299 C 
HETATM    5  O3  UNL     1      61.039  15.963  23.271  1.00  0.00    -0.369 OA
HETATM    6  C6  UNL     1      60.507  15.096  22.303  1.00  0.00     0.205 C 
HETATM    7  C7  UNL     1      60.081  13.935  23.179  1.00  0.00     0.215 C 
ENDROOT
BRANCH   7   8
HETATM    8  C8  UNL     1      58.844  14.312  23.905  1.00  0.00     0.285 C 
HETATM    9  O4  UNL     1      58.816  15.032  24.922  1.00  0.00    -0.263 OA
BRANCH   8  10
HETATM   10  O5  UNL     1      57.647  13.840  23.429  1.00  0.00    -0.310 OA
BRANCH  10  11
HETATM   11  C9  UNL     1      56.611  14.599  22.894  1.00  0.00     0.060 C 
HETATM   12  C10 UNL     1      55.435  14.484  23.875  1.00  0.00     0.045 C 
HETATM   13  C11 UNL     1      56.943  16.060  22.736  1.00  0.00     0.045 C 
HETATM   14  C12 UNL     1      56.099  14.079  21.570  1.00  0.00     0.045 C 
ENDBRANCH  10  11
ENDBRANCH   8  10
ENDBRANCH   7   8
BRANCH   1  15
HETATM   15  O1  UNL     1      62.842  12.644  25.477  1.00  0.00    -0.299 OA
BRANCH  15  16
HETATM   16  C2  UNL     1      64.149  12.459  24.956  1.00  0.00     0.125 C 
HETATM   17  C1  UNL     1      64.798  11.262  25.622  1.00  0.00     0.040 C 
HETATM   18  C3  UNL     1      65.035  13.653  25.236  1.00  0.00     0.040 C 
ENDBRANCH  15  16
ENDBRANCH   1  15
TORSDOF 5
ENDMDL
MODEL 5
REMARK VINA RESULT: -6.145022496      2.219      3.721
REMARK  5 active torsions:
REMARK  status: ('A' for Active; 'I' for Inactive)
REMARK    1  A    between atoms: C2_2  and  O1_4 
REMARK    2  A    between atoms: O1_4  and  C4_5 
REMARK       I    between atoms: C4_5  and  N1_7 
REMARK    3  A    between atoms: C7_11  and  C8_12 
REMARK    4  A    between atoms: C8_12  and  O5_14 
REMARK    5  A    between atoms: O5_14  and  C9_15 
ROOT
HETATM    1  C4  UNL     1      58.941  12.777  23.664  1.00  0.00     0.365 C 
HETATM    2  O2  UNL     1      58.443  12.047  24.569  1.00  0.00    -0.238 OA
HETATM    3  N1  UNL     1      60.269  13.240  23.684  1.00  0.00    -0.290 N 
HETATM    4  C5  UNL     1      60.939  14.068  22.718  1.00  0.00     0.299 C 
HETATM    5  O3  UNL     1      62.180  14.392  23.242  1.00  0.00    -0.369 OA
HETATM    6  C6  UNL     1      62.072  14.236  24.634  1.00  0.00     0.205 C 
HETATM    7  C7  UNL     1      61.245  12.969  24.705  1.00  0.00     0.215 C 
ENDROOT
BRANCH   7   8
HETATM    8  C8  UNL     1      62.114  11.813  24.375  1.00  0.00     0.285 C 
HETATM    9  O4  UNL     1      63.353  11.873  24.258  1.00  0.00    -0.263 OA
BRANCH   8  10
HETATM   10  O5  UNL     1      61.518  10.591  24.187  1.00  0.00    -0.310 OA
BRANCH  10  11
HETATM   11  C9  UNL     1      61.388   9.578  25.131  1.00  0.00     0.060 C 
HETATM   12  C10 UNL     1      62.300   8.431  24.668  1.00  0.00     0.045 C 
HETATM   13  C11 UNL     1      61.815   9.979  26.519  1.00  0.00     0.045 C 
HETATM   14  C12 UNL     1      59.996   8.995  25.208  1.00  0.00     0.045 C 
ENDBRANCH  10  11
ENDBRANCH   8  10
ENDBRANCH   7   8
BRANCH   1  15
HETATM   15  O1  UNL     1      58.050  13.094  22.620  1.00  0.00    -0.299 OA
BRANCH  15  16
HETATM   16  C2  UNL     1      56.927  13.936  22.832  1.00  0.00     0.125 C 
HETATM   17  C1  UNL     1      56.127  14.049  21.549  1.00  0.00     0.040 C 
HETATM   18  C3  UNL     1      57.345  15.338  23.217  1.00  0.00     0.040 C 
ENDBRANCH  15  16
ENDBRANCH   1  15
TORSDOF 5
ENDMDL
