MODEL 1
REMARK VINA RESULT: -8.056823447      0.000      0.000
REMARK  2 active torsions:
REMARK  status: ('A' for Active; 'I' for Inactive)
REMARK    1  A    between atoms: C5_5  and  O1_6 
REMARK    2  A    between atoms: C8_13  and  C10_15 
ROOT
HETATM    1  C1  UNL     1       5.365  13.007   3.668  1.00  0.00     0.036 C 
HETATM    2  C2  UNL     1       5.382  11.961   2.618  1.00  0.00    -0.023 C 
HETATM    3  C3  UNL     1       4.383  11.766   1.825  1.00  0.00    -0.025 C 
HETATM    4  C4  UNL     1       4.370  10.738   0.776  1.00  0.00     0.073 C 
HETATM    5  C5  UNL     1       2.923  10.430   0.323  1.00  0.00     0.154 C 
HETATM    6  C6  UNL     1       2.070  11.609   0.150  1.00  0.00     0.191 C 
HETATM    7  O2  UNL     1       2.813  12.736   0.541  1.00  0.00    -0.344 OA
HETATM    8  C7  UNL     1       3.149  12.576   1.911  1.00  0.00     0.327 C 
HETATM    9  O3  UNL     1       2.251  11.842   2.622  1.00  0.00    -0.202 OA
HETATM   10  O4  UNL     1       1.053  11.737   2.243  1.00  0.00    -0.224 OA
HETATM   11  C8  UNL     1       0.799  11.728   0.873  1.00  0.00     0.125 C 
HETATM   12  C9  UNL     1       0.313  13.179   0.636  1.00  0.00     0.052 C 
ENDROOT
BRANCH  11  13
HETATM   13  C10 UNL     1      -0.343  10.855   0.517  1.00  0.00     0.026 C 
HETATM   14  C11 UNL     1      -0.073   9.382   0.597  1.00  0.00     0.008 C 
HETATM   15  C12 UNL     1      -0.825   8.663   1.699  1.00  0.00     0.000 C 
HETATM   16  C13 UNL     1      -2.158   8.128   1.233  1.00  0.00     0.000 C 
HETATM   17  C14 UNL     1      -3.191   9.192   1.209  1.00  0.00     0.000 C 
HETATM   18  C15 UNL     1      -2.763  10.418   0.420  1.00  0.00     0.000 C 
HETATM   19  C16 UNL     1      -1.647  11.164   1.166  1.00  0.00     0.008 C 
ENDBRANCH  11  13
BRANCH   5  20
HETATM   20  O1  UNL     1       3.154   9.810  -0.911  1.00  0.00    -0.393 OA
ATOM     21  H1  UNL     1       2.303   9.427  -1.085  1.00  0.00     0.210 HD
ENDBRANCH   5  20
TORSDOF 2
ENDMDL
MODEL 2
REMARK VINA RESULT: -7.945745174      3.133      5.604
REMARK  2 active torsions:
REMARK  status: ('A' for Active; 'I' for Inactive)
REMARK    1  A    between atoms: C5_5  and  O1_6 
REMARK    2  A    between atoms: C8_13  and  C10_15 
ROOT
HETATM    1  C1  UNL     1       2.027   5.694  -4.713  1.00  0.00     0.036 C 
HETATM    2  C2  UNL     1       2.859   6.917  -4.614  1.00  0.00    -0.023 C 
HETATM    3  C3  UNL     1       2.974   7.583  -3.515  1.00  0.00    -0.025 C 
HETATM    4  C4  UNL     1       3.790   8.797  -3.384  1.00  0.00     0.073 C 
HETATM    5  C5  UNL     1       3.373   9.612  -2.138  1.00  0.00     0.154 C 
HETATM    6  C6  UNL     1       3.124   8.812  -0.937  1.00  0.00     0.191 C 
HETATM    7  O2  UNL     1       3.261   7.458  -1.288  1.00  0.00    -0.344 OA
HETATM    8  C7  UNL     1       2.282   7.169  -2.275  1.00  0.00     0.327 C 
HETATM    9  O3  UNL     1       1.158   7.931  -2.185  1.00  0.00    -0.202 OA
HETATM   10  O4  UNL     1       0.824   8.468  -1.094  1.00  0.00    -0.224 OA
HETATM   11  C8  UNL     1       1.837   8.889  -0.236  1.00  0.00     0.125 C 
HETATM   12  C9  UNL     1       1.856   7.747   0.809  1.00  0.00     0.052 C 
ENDROOT
BRANCH  11  13
HETATM   13  C10 UNL     1       1.471  10.115   0.511  1.00  0.00     0.026 C 
HETATM   14  C11 UNL     1       2.623  10.888   1.080  1.00  0.00     0.008 C 
HETATM   15  C12 UNL     1       2.854  12.240   0.437  1.00  0.00     0.000 C 
HETATM   16  C13 UNL     1       2.104  13.348   1.137  1.00  0.00     0.000 C 
HETATM   17  C14 UNL     1       0.680  13.384   0.725  1.00  0.00     0.000 C 
HETATM   18  C15 UNL     1      -0.017  12.042   0.876  1.00  0.00     0.000 C 
HETATM   19  C16 UNL     1       0.523  11.046  -0.162  1.00  0.00     0.008 C 
ENDBRANCH  11  13
BRANCH   5  20
HETATM   20  O1  UNL     1       4.498  10.425  -1.960  1.00  0.00    -0.393 OA
ATOM     21  H1  UNL     1       4.132  11.131  -1.439  1.00  0.00     0.210 HD
ENDBRANCH   5  20
TORSDOF 2
ENDMDL
MODEL 3
REMARK VINA RESULT: -7.806051902      3.100      5.554
REMARK  2 active torsions:
REMARK  status: ('A' for Active; 'I' for Inactive)
REMARK    1  A    between atoms: C5_5  and  O1_6 
REMARK    2  A    between atoms: C8_13  and  C10_15 
ROOT
HETATM    1  C1  UNL     1      -3.218  11.806   1.219  1.00  0.00     0.036 C 
HETATM    2  C2  UNL     1      -2.864  10.421   1.613  1.00  0.00    -0.023 C 
HETATM    3  C3  UNL     1      -1.697   9.920   1.387  1.00  0.00    -0.025 C 
HETATM    4  C4  UNL     1      -1.315   8.552   1.765  1.00  0.00     0.073 C 
HETATM    5  C5  UNL     1      -0.071   8.088   0.974  1.00  0.00     0.154 C 
HETATM    6  C6  UNL     1       0.987   9.093   0.848  1.00  0.00     0.191 C 
HETATM    7  O2  UNL     1       0.522  10.281   1.438  1.00  0.00    -0.344 OA
HETATM    8  C7  UNL     1      -0.630  10.696   0.718  1.00  0.00     0.327 C 
HETATM    9  O3  UNL     1      -0.636  10.318  -0.589  1.00  0.00    -0.202 OA
HETATM   10  O4  UNL     1       0.440  10.068  -1.197  1.00  0.00    -0.224 OA
HETATM   11  C8  UNL     1       1.484   9.499  -0.471  1.00  0.00     0.125 C 
HETATM   12  C9  UNL     1       2.395  10.726  -0.221  1.00  0.00     0.052 C 
ENDROOT
BRANCH  11  13
HETATM   13  C10 UNL     1       2.289   8.557  -1.284  1.00  0.00     0.026 C 
HETATM   14  C11 UNL     1       3.242   7.696  -0.511  1.00  0.00     0.008 C 
HETATM   15  C12 UNL     1       2.889   6.222  -0.498  1.00  0.00     0.000 C 
HETATM   16  C13 UNL     1       3.534   5.464  -1.633  1.00  0.00     0.000 C 
HETATM   17  C14 UNL     1       2.784   5.642  -2.900  1.00  0.00     0.000 C 
HETATM   18  C15 UNL     1       2.549   7.102  -3.252  1.00  0.00     0.000 C 
HETATM   19  C16 UNL     1       1.545   7.727  -2.271  1.00  0.00     0.008 C 
ENDBRANCH  11  13
BRANCH   5  20
HETATM   20  O1  UNL     1       0.364   7.016   1.762  1.00  0.00    -0.393 OA
ATOM     21  H1  UNL     1       0.551   6.364   1.097  1.00  0.00     0.210 HD
ENDBRANCH   5  20
TORSDOF 2
ENDMDL
MODEL 4
REMARK VINA RESULT: -7.695902962      2.745      6.618
REMARK  2 active torsions:
REMARK  status: ('A' for Active; 'I' for Inactive)
REMARK    1  A    between atoms: C5_5  and  O1_6 
REMARK    2  A    between atoms: C8_13  and  C10_15 
ROOT
HETATM    1  C1  UNL     1      -4.751   6.377  -1.501  1.00  0.00     0.036 C 
HETATM    2  C2  UNL     1      -3.923   5.941  -0.351  1.00  0.00    -0.023 C 
HETATM    3  C3  UNL     1      -3.234   6.773   0.355  1.00  0.00    -0.025 C 
HETATM    4  C4  UNL     1      -2.406   6.372   1.499  1.00  0.00     0.073 C 
HETATM    5  C5  UNL     1      -1.364   7.465   1.836  1.00  0.00     0.154 C 
HETATM    6  C6  UNL     1      -1.879   8.836   1.799  1.00  0.00     0.191 C 
HETATM    7  O2  UNL     1      -3.216   8.780   1.369  1.00  0.00    -0.344 OA
HETATM    8  C7  UNL     1      -3.223   8.223   0.062  1.00  0.00     0.327 C 
HETATM    9  O3  UNL     1      -2.092   8.466  -0.654  1.00  0.00    -0.202 OA
HETATM   10  O4  UNL     1      -1.355   9.453  -0.386  1.00  0.00    -0.224 OA
HETATM   11  C8  UNL     1      -1.252   9.851   0.945  1.00  0.00     0.125 C 
HETATM   12  C9  UNL     1      -2.199  11.075   0.979  1.00  0.00     0.052 C 
ENDROOT
BRANCH  11  13
HETATM   13  C10 UNL     1       0.095  10.371   1.276  1.00  0.00     0.026 C 
HETATM   14  C11 UNL     1       1.240   9.612   0.675  1.00  0.00     0.008 C 
HETATM   15  C12 UNL     1       2.017  10.375  -0.379  1.00  0.00     0.000 C 
HETATM   16  C13 UNL     1       3.176  11.147   0.205  1.00  0.00     0.000 C 
HETATM   17  C14 UNL     1       2.726  12.423   0.811  1.00  0.00     0.000 C 
HETATM   18  C15 UNL     1       1.602  12.240   1.816  1.00  0.00     0.000 C 
HETATM   19  C16 UNL     1       0.308  11.833   1.094  1.00  0.00     0.008 C 
ENDBRANCH  11  13
BRANCH   5  20
HETATM   20  O1  UNL     1      -1.016   7.109   3.145  1.00  0.00    -0.393 OA
ATOM     21  H1  UNL     1      -1.632   6.406   3.313  1.00  0.00     0.210 HD
ENDBRANCH   5  20
TORSDOF 2
ENDMDL
MODEL 5
REMARK VINA RESULT: -7.635705055      2.833      5.214
REMARK  2 active torsions:
REMARK  status: ('A' for Active; 'I' for Inactive)
REMARK    1  A    between atoms: C5_5  and  O1_6 
REMARK    2  A    between atoms: C8_13  and  C10_15 
ROOT
HETATM    1  C1  UNL     1       1.572  12.466   0.758  1.00  0.00     0.036 C 
HETATM    2  C2  UNL     1       0.091  12.509   0.758  1.00  0.00    -0.023 C 
HETATM    3  C3  UNL     1      -0.628  11.451   0.927  1.00  0.00    -0.025 C 
HETATM    4  C4  UNL     1      -2.097  11.461   0.932  1.00  0.00     0.073 C 
HETATM    5  C5  UNL     1      -2.660  10.043   0.685  1.00  0.00     0.154 C 
HETATM    6  C6  UNL     1      -1.972   8.973   1.412  1.00  0.00     0.191 C 
HETATM    7  O2  UNL     1      -0.891   9.551   2.101  1.00  0.00    -0.344 OA
HETATM    8  C7  UNL     1      -0.020  10.119   1.133  1.00  0.00     0.327 C 
HETATM    9  O3  UNL     1      -0.042   9.491  -0.073  1.00  0.00    -0.202 OA
HETATM   10  O4  UNL     1      -0.407   8.288  -0.172  1.00  0.00    -0.224 OA
HETATM   11  C8  UNL     1      -1.394   7.830   0.698  1.00  0.00     0.125 C 
HETATM   12  C9  UNL     1      -0.554   7.058   1.744  1.00  0.00     0.052 C 
ENDROOT
BRANCH  11  13
HETATM   13  C10 UNL     1      -2.280   6.824   0.067  1.00  0.00     0.026 C 
HETATM   14  C11 UNL     1      -3.742   6.987   0.354  1.00  0.00     0.008 C 
HETATM   15  C12 UNL     1      -4.578   7.388  -0.844  1.00  0.00     0.000 C 
HETATM   16  C13 UNL     1      -5.126   6.196  -1.591  1.00  0.00     0.000 C 
HETATM   17  C14 UNL     1      -4.105   5.604  -2.489  1.00  0.00     0.000 C 
HETATM   18  C15 UNL     1      -2.802   5.280  -1.777  1.00  0.00     0.000 C 
HETATM   19  C16 UNL     1      -2.076   6.576  -1.387  1.00  0.00     0.008 C 
ENDBRANCH  11  13
BRANCH   5  20
HETATM   20  O1  UNL     1      -3.971  10.188   1.155  1.00  0.00    -0.393 OA
ATOM     21  H1  UNL     1      -4.304   9.306   1.041  1.00  0.00     0.210 HD
ENDBRANCH   5  20
TORSDOF 2
ENDMDL
