MODEL 1
REMARK VINA RESULT: -7.322478583      0.000      0.000
REMARK  6 active torsions:
REMARK  status: ('A' for Active; 'I' for Inactive)
REMARK    1  A    between atoms: C2_3  and  N2_4 
REMARK    2  A    between atoms: C8_10  and  N3_11 
REMARK    3  A    between atoms: N3_11  and  C9_13 
REMARK    4  A    between atoms: C10_18  and  N6_19 
REMARK    5  A    between atoms: C14_27  and  C15_28 
REMARK    6  A    between atoms: C15_28  and  O1_29 
ROOT
HETATM    1  N1  UNL     1      -4.203   1.847  10.398  1.00  0.00    -0.196 NA
HETATM    2  C1  UNL     1      -4.442   2.276  11.449  1.00  0.00     0.087 C 
HETATM    3  C2  UNL     1      -4.770   2.813  12.763  1.00  0.00     0.363 C 
ENDROOT
BRANCH   3   4
HETATM    4  N2  UNL     1      -4.103   4.103  13.020  1.00  0.00    -0.028 N 
HETATM    5  C3  UNL     1      -2.704   3.813  13.059  1.00  0.00     0.242 C 
HETATM    6  C4  UNL     1      -1.812   4.828  12.421  1.00  0.00     0.028 C 
HETATM    7  C5  UNL     1      -2.091   6.235  12.712  1.00  0.00     0.007 C 
HETATM    8  C6  UNL     1      -3.403   6.581  13.285  1.00  0.00     0.002 C 
HETATM    9  C7  UNL     1      -3.760   5.893  14.578  1.00  0.00     0.068 C 
HETATM   10  C14 UNL     1      -4.517   6.417  12.305  1.00  0.00     0.009 C 
HETATM   11  C8  UNL     1      -4.479   4.602  14.343  1.00  0.00     0.217 C 
HETATM   12  C11 UNL     1      -5.968   4.787  14.470  1.00  0.00     0.062 C 
HETATM   13  C12 UNL     1      -6.611   5.671  13.478  1.00  0.00     0.005 C 
HETATM   14  C13 UNL     1      -5.794   6.832  12.999  1.00  0.00     0.014 C 
HETATM   15  C16 UNL     1      -4.530   4.944  11.946  1.00  0.00     0.253 C 
BRANCH  11  16
HETATM   16  N3  UNL     1      -4.077   3.627  15.283  1.00  0.00    -0.189 N 
ATOM     17  H3  UNL     1      -3.094   3.680  15.546  1.00  0.00     0.180 HD
BRANCH  16  18
HETATM   18  C9  UNL     1      -4.719   2.700  15.857  1.00  0.00     0.709 A 
HETATM   19  N4  UNL     1      -4.188   1.436  16.031  1.00  0.00    -0.117 N 
HETATM   20  N5  UNL     1      -5.060   0.702  16.643  1.00  0.00    -0.118 N 
ATOM     21  H4  UNL     1      -3.262   1.133  15.727  1.00  0.00     0.206 HD
HETATM   22  C10 UNL     1      -6.145   1.418  16.884  1.00  0.00     0.705 A 
ATOM     23  H5  UNL     1      -4.931  -0.277  16.899  1.00  0.00     0.206 HD
HETATM   24  N7  UNL     1      -5.941   2.652  16.402  1.00  0.00    -0.020 N 
ATOM     25  H7  UNL     1      -6.605   3.425  16.443  1.00  0.00     0.203 HD
BRANCH  22  26
HETATM   26  N6  UNL     1      -7.246   1.030  17.485  1.00  0.00    -0.233 N 
ATOM     27  H62 UNL     1      -7.422   0.078  17.803  1.00  0.00     0.174 HD
ATOM     28  H61 UNL     1      -8.063   1.596  17.717  1.00  0.00     0.174 HD
ENDBRANCH  22  26
ENDBRANCH  16  18
ENDBRANCH  11  16
BRANCH  10  29
HETATM   29  C15 UNL     1      -4.379   7.229  11.060  1.00  0.00     0.175 C 
BRANCH  29  30
HETATM   30  O1  UNL     1      -5.207   6.634  10.079  1.00  0.00    -0.400 OA
ATOM     31  H1  UNL     1      -4.759   5.855   9.771  1.00  0.00     0.209 HD
ENDBRANCH  29  30
ENDBRANCH  10  29
ENDBRANCH   3   4
TORSDOF 6
ENDMDL
MODEL 2
REMARK VINA RESULT: -7.170267468      0.772      1.032
REMARK  6 active torsions:
REMARK  status: ('A' for Active; 'I' for Inactive)
REMARK    1  A    between atoms: C2_3  and  N2_4 
REMARK    2  A    between atoms: C8_10  and  N3_11 
REMARK    3  A    between atoms: N3_11  and  C9_13 
REMARK    4  A    between atoms: C10_18  and  N6_19 
REMARK    5  A    between atoms: C14_27  and  C15_28 
REMARK    6  A    between atoms: C15_28  and  O1_29 
ROOT
HETATM    1  N1  UNL     1      -3.459   2.234  10.228  1.00  0.00    -0.196 NA
HETATM    2  C1  UNL     1      -3.848   2.545  11.275  1.00  0.00     0.087 C 
HETATM    3  C2  UNL     1      -4.362   2.931  12.583  1.00  0.00     0.363 C 
ENDROOT
BRANCH   3   4
HETATM    4  N2  UNL     1      -3.871   4.257  13.005  1.00  0.00    -0.028 N 
HETATM    5  C3  UNL     1      -2.454   4.118  13.139  1.00  0.00     0.242 C 
HETATM    6  C4  UNL     1      -1.641   5.279  12.669  1.00  0.00     0.028 C 
HETATM    7  C5  UNL     1      -2.102   6.614  13.054  1.00  0.00     0.007 C 
HETATM    8  C6  UNL     1      -3.485   6.759  13.539  1.00  0.00     0.002 C 
HETATM    9  C7  UNL     1      -3.857   5.917  14.733  1.00  0.00     0.068 C 
HETATM   10  C14 UNL     1      -4.495   6.568  12.457  1.00  0.00     0.009 C 
HETATM   11  C8  UNL     1      -4.401   4.585  14.328  1.00  0.00     0.217 C 
HETATM   12  C11 UNL     1      -5.907   4.593  14.342  1.00  0.00     0.062 C 
HETATM   13  C12 UNL     1      -6.571   5.492  13.378  1.00  0.00     0.005 C 
HETATM   14  C13 UNL     1      -5.861   6.774  13.071  1.00  0.00     0.014 C 
HETATM   15  C16 UNL     1      -4.310   5.143  11.973  1.00  0.00     0.253 C 
BRANCH  11  16
HETATM   16  N3  UNL     1      -3.961   3.575  15.213  1.00  0.00    -0.189 N 
ATOM     17  H3  UNL     1      -2.953   3.423  15.206  1.00  0.00     0.180 HD
BRANCH  16  18
HETATM   18  C9  UNL     1      -4.594   2.825  16.012  1.00  0.00     0.709 A 
HETATM   19  N4  UNL     1      -5.433   3.331  16.987  1.00  0.00    -0.117 N 
HETATM   20  N5  UNL     1      -5.940   2.341  17.649  1.00  0.00    -0.118 N 
ATOM     21  H4  UNL     1      -5.621   4.320  17.155  1.00  0.00     0.206 HD
HETATM   22  C10 UNL     1      -5.478   1.203  17.161  1.00  0.00     0.705 A 
ATOM     23  H5  UNL     1      -6.594   2.427  18.428  1.00  0.00     0.206 HD
HETATM   24  N7  UNL     1      -4.646   1.495  16.151  1.00  0.00    -0.020 N 
ATOM     25  H7  UNL     1      -4.139   0.816  15.582  1.00  0.00     0.203 HD
BRANCH  22  26
HETATM   26  N6  UNL     1      -5.756  -0.015  17.564  1.00  0.00    -0.233 N 
ATOM     27  H62 UNL     1      -5.615  -0.353  18.516  1.00  0.00     0.174 HD
ATOM     28  H61 UNL     1      -6.140  -0.782  17.012  1.00  0.00     0.174 HD
ENDBRANCH  22  26
ENDBRANCH  16  18
ENDBRANCH  11  16
BRANCH  10  29
HETATM   29  C15 UNL     1      -4.358   7.505  11.302  1.00  0.00     0.175 C 
BRANCH  29  30
HETATM   30  O1  UNL     1      -5.371   8.484  11.436  1.00  0.00    -0.400 OA
ATOM     31  H1  UNL     1      -5.109   9.231  10.913  1.00  0.00     0.209 HD
ENDBRANCH  29  30
ENDBRANCH  10  29
ENDBRANCH   3   4
TORSDOF 6
ENDMDL
MODEL 3
REMARK VINA RESULT: -7.004269075      3.248      5.548
REMARK  6 active torsions:
REMARK  status: ('A' for Active; 'I' for Inactive)
REMARK    1  A    between atoms: C2_3  and  N2_4 
REMARK    2  A    between atoms: C8_10  and  N3_11 
REMARK    3  A    between atoms: N3_11  and  C9_13 
REMARK    4  A    between atoms: C10_18  and  N6_19 
REMARK    5  A    between atoms: C14_27  and  C15_28 
REMARK    6  A    between atoms: C15_28  and  O1_29 
ROOT
HETATM    1  N1  UNL     1      -4.240   1.674  10.364  1.00  0.00    -0.196 NA
HETATM    2  C1  UNL     1      -3.533   2.387  10.943  1.00  0.00     0.087 C 
HETATM    3  C2  UNL     1      -2.644   3.267  11.691  1.00  0.00     0.363 C 
ENDROOT
BRANCH   3   4
HETATM    4  N2  UNL     1      -3.187   4.633  11.815  1.00  0.00    -0.028 N 
HETATM    5  C3  UNL     1      -3.427   5.075  10.477  1.00  0.00     0.242 C 
HETATM    6  C4  UNL     1      -4.672   5.873  10.271  1.00  0.00     0.028 C 
HETATM    7  C5  UNL     1      -4.966   6.915  11.256  1.00  0.00     0.007 C 
HETATM    8  C6  UNL     1      -4.256   6.874  12.545  1.00  0.00     0.002 C 
HETATM    9  C7  UNL     1      -2.750   6.897  12.469  1.00  0.00     0.068 C 
HETATM   10  C14 UNL     1      -4.696   5.737  13.407  1.00  0.00     0.009 C 
HETATM   11  C8  UNL     1      -2.174   5.519  12.389  1.00  0.00     0.217 C 
HETATM   12  C11 UNL     1      -1.720   5.047  13.746  1.00  0.00     0.062 C 
HETATM   13  C12 UNL     1      -2.770   4.873  14.769  1.00  0.00     0.005 C 
HETATM   14  C13 UNL     1      -3.924   5.826  14.702  1.00  0.00     0.014 C 
HETATM   15  C16 UNL     1      -4.348   4.481  12.634  1.00  0.00     0.253 C 
BRANCH  11  16
HETATM   16  N3  UNL     1      -1.060   5.492  11.521  1.00  0.00    -0.189 N 
ATOM     17  H3  UNL     1      -1.292   5.295  10.549  1.00  0.00     0.180 HD
BRANCH  16  18
HETATM   18  C9  UNL     1       0.175   5.669  11.735  1.00  0.00     0.709 A 
HETATM   19  N4  UNL     1       1.092   4.639  11.643  1.00  0.00    -0.117 N 
HETATM   20  N5  UNL     1       2.268   5.109  11.911  1.00  0.00    -0.118 N 
ATOM     21  H4  UNL     1       0.877   3.671  11.404  1.00  0.00     0.206 HD
HETATM   22  C10 UNL     1       2.176   6.400  12.176  1.00  0.00     0.705 A 
ATOM     23  H5  UNL     1       3.132   4.566  11.918  1.00  0.00     0.206 HD
HETATM   24  N7  UNL     1       0.886   6.753  12.069  1.00  0.00    -0.020 N 
ATOM     25  H7  UNL     1       0.511   7.689  12.216  1.00  0.00     0.203 HD
BRANCH  22  26
HETATM   26  N6  UNL     1       3.145   7.226  12.492  1.00  0.00    -0.233 N 
ATOM     27  H62 UNL     1       3.672   7.189  13.364  1.00  0.00     0.174 HD
ATOM     28  H61 UNL     1       3.509   8.003  11.939  1.00  0.00     0.174 HD
ENDBRANCH  22  26
ENDBRANCH  16  18
ENDBRANCH  11  16
BRANCH  10  29
HETATM   29  C15 UNL     1      -6.153   5.731  13.734  1.00  0.00     0.175 C 
BRANCH  29  30
HETATM   30  O1  UNL     1      -6.562   4.377  13.789  1.00  0.00    -0.400 OA
ATOM     31  H1  UNL     1      -6.949   4.167  12.947  1.00  0.00     0.209 HD
ENDBRANCH  29  30
ENDBRANCH  10  29
ENDBRANCH   3   4
TORSDOF 6
ENDMDL
MODEL 4
REMARK VINA RESULT: -6.804703837      3.686      5.025
REMARK  6 active torsions:
REMARK  status: ('A' for Active; 'I' for Inactive)
REMARK    1  A    between atoms: C2_3  and  N2_4 
REMARK    2  A    between atoms: C8_10  and  N3_11 
REMARK    3  A    between atoms: N3_11  and  C9_13 
REMARK    4  A    between atoms: C10_18  and  N6_19 
REMARK    5  A    between atoms: C14_27  and  C15_28 
REMARK    6  A    between atoms: C15_28  and  O1_29 
ROOT
HETATM    1  N1  UNL     1      -3.346   6.564   8.058  1.00  0.00    -0.196 NA
HETATM    2  C1  UNL     1      -3.426   5.695   8.821  1.00  0.00     0.087 C 
HETATM    3  C2  UNL     1      -3.545   4.618   9.796  1.00  0.00     0.363 C 
ENDROOT
BRANCH   3   4
HETATM    4  N2  UNL     1      -2.231   4.170  10.294  1.00  0.00    -0.028 N 
HETATM    5  C3  UNL     1      -1.563   3.603   9.163  1.00  0.00     0.242 C 
HETATM    6  C4  UNL     1      -0.102   3.892   9.060  1.00  0.00     0.028 C 
HETATM    7  C5  UNL     1       0.690   3.768  10.286  1.00  0.00     0.007 C 
HETATM    8  C6  UNL     1      -0.024   3.737  11.574  1.00  0.00     0.002 C 
HETATM    9  C7  UNL     1      -1.058   2.651  11.729  1.00  0.00     0.068 C 
HETATM   10  C14 UNL     1      -0.626   5.056  11.928  1.00  0.00     0.009 C 
HETATM   11  C8  UNL     1      -2.409   3.098  11.273  1.00  0.00     0.217 C 
HETATM   12  C11 UNL     1      -3.251   3.541  12.441  1.00  0.00     0.062 C 
HETATM   13  C12 UNL     1      -2.779   4.727  13.182  1.00  0.00     0.005 C 
HETATM   14  C13 UNL     1      -1.294   4.902  13.275  1.00  0.00     0.014 C 
HETATM   15  C16 UNL     1      -1.635   5.350  10.835  1.00  0.00     0.253 C 
BRANCH  11  16
HETATM   16  N3  UNL     1      -3.090   2.047  10.618  1.00  0.00    -0.189 N 
ATOM     17  H3  UNL     1      -3.562   2.327   9.758  1.00  0.00     0.180 HD
BRANCH  16  18
HETATM   18  C9  UNL     1      -3.219   0.822  10.906  1.00  0.00     0.709 A 
HETATM   19  N4  UNL     1      -4.365   0.322  11.494  1.00  0.00    -0.117 N 
HETATM   20  N5  UNL     1      -4.216  -0.951  11.672  1.00  0.00    -0.118 N 
ATOM     21  H4  UNL     1      -5.191   0.866  11.746  1.00  0.00     0.206 HD
HETATM   22  C10 UNL     1      -3.026  -1.320  11.231  1.00  0.00     0.705 A 
ATOM     23  H5  UNL     1      -4.909  -1.573  12.089  1.00  0.00     0.206 HD
HETATM   24  N7  UNL     1      -2.405  -0.230  10.757  1.00  0.00    -0.020 N 
ATOM     25  H7  UNL     1      -1.470  -0.207  10.349  1.00  0.00     0.203 HD
BRANCH  22  26
HETATM   26  N6  UNL     1      -2.506  -2.525  11.236  1.00  0.00    -0.233 N 
ATOM     27  H62 UNL     1      -2.414  -3.109  12.068  1.00  0.00     0.174 HD
ATOM     28  H61 UNL     1      -2.127  -3.046  10.444  1.00  0.00     0.174 HD
ENDBRANCH  22  26
ENDBRANCH  16  18
ENDBRANCH  11  16
BRANCH  10  29
HETATM   29  C15 UNL     1       0.349   6.183  12.019  1.00  0.00     0.175 C 
BRANCH  29  30
HETATM   30  O1  UNL     1      -0.258   7.198  12.797  1.00  0.00    -0.400 OA
ATOM     31  H1  UNL     1       0.188   8.012  12.592  1.00  0.00     0.209 HD
ENDBRANCH  29  30
ENDBRANCH  10  29
ENDBRANCH   3   4
TORSDOF 6
ENDMDL
MODEL 5
REMARK VINA RESULT: -6.576563696      4.086      6.587
REMARK  6 active torsions:
REMARK  status: ('A' for Active; 'I' for Inactive)
REMARK    1  A    between atoms: C2_3  and  N2_4 
REMARK    2  A    between atoms: C8_10  and  N3_11 
REMARK    3  A    between atoms: N3_11  and  C9_13 
REMARK    4  A    between atoms: C10_18  and  N6_19 
REMARK    5  A    between atoms: C14_27  and  C15_28 
REMARK    6  A    between atoms: C15_28  and  O1_29 
ROOT
HETATM    1  N1  UNL     1      -4.211   6.424   7.978  1.00  0.00    -0.196 NA
HETATM    2  C1  UNL     1      -3.414   5.684   8.380  1.00  0.00     0.087 C 
HETATM    3  C2  UNL     1      -2.422   4.735   8.868  1.00  0.00     0.363 C 
ENDROOT
BRANCH   3   4
HETATM    4  N2  UNL     1      -2.498   4.551  10.330  1.00  0.00    -0.028 N 
HETATM    5  C3  UNL     1      -2.659   5.863  10.875  1.00  0.00     0.242 C 
HETATM    6  C4  UNL     1      -3.599   5.975  12.031  1.00  0.00     0.028 C 
HETATM    7  C5  UNL     1      -3.495   4.954  13.075  1.00  0.00     0.007 C 
HETATM    8  C6  UNL     1      -2.764   3.713  12.764  1.00  0.00     0.002 C 
HETATM    9  C7  UNL     1      -1.334   3.885  12.316  1.00  0.00     0.068 C 
HETATM   10  C14 UNL     1      -3.493   2.846  11.791  1.00  0.00     0.009 C 
HETATM   11  C8  UNL     1      -1.228   4.027  10.832  1.00  0.00     0.217 C 
HETATM   12  C11 UNL     1      -0.872   2.712  10.190  1.00  0.00     0.062 C 
HETATM   13  C12 UNL     1      -1.865   1.627  10.316  1.00  0.00     0.005 C 
HETATM   14  C13 UNL     1      -2.662   1.602  11.584  1.00  0.00     0.014 C 
HETATM   15  C16 UNL     1      -3.602   3.663  10.519  1.00  0.00     0.253 C 
BRANCH  11  16
HETATM   16  N3  UNL     1      -0.228   4.965  10.489  1.00  0.00    -0.189 N 
ATOM     17  H3  UNL     1      -0.551   5.715   9.878  1.00  0.00     0.180 HD
BRANCH  16  18
HETATM   18  C9  UNL     1       0.995   5.041  10.804  1.00  0.00     0.709 A 
HETATM   19  N4  UNL     1       2.005   4.819   9.887  1.00  0.00    -0.117 N 
HETATM   20  N5  UNL     1       3.144   4.964  10.486  1.00  0.00    -0.118 N 
ATOM     21  H4  UNL     1       1.875   4.582   8.904  1.00  0.00     0.206 HD
HETATM   22  C10 UNL     1       2.938   5.271  11.754  1.00  0.00     0.705 A 
ATOM     23  H5  UNL     1       4.058   4.857  10.046  1.00  0.00     0.206 HD
HETATM   24  N7  UNL     1       1.614   5.320  11.958  1.00  0.00    -0.020 N 
ATOM     25  H7  UNL     1       1.154   5.535  12.843  1.00  0.00     0.203 HD
BRANCH  22  26
HETATM   26  N6  UNL     1       3.838   5.495  12.683  1.00  0.00    -0.233 N 
ATOM     27  H62 UNL     1       4.550   4.822  12.969  1.00  0.00     0.174 HD
ATOM     28  H61 UNL     1       3.964   6.340  13.240  1.00  0.00     0.174 HD
ENDBRANCH  22  26
ENDBRANCH  16  18
ENDBRANCH  11  16
BRANCH  10  29
HETATM   29  C15 UNL     1      -4.857   2.427  12.230  1.00  0.00     0.175 C 
BRANCH  29  30
HETATM   30  O1  UNL     1      -5.420   1.670  11.175  1.00  0.00    -0.400 OA
ATOM     31  H1  UNL     1      -6.361   1.675  11.298  1.00  0.00     0.209 HD
ENDBRANCH  29  30
ENDBRANCH  10  29
ENDBRANCH   3   4
TORSDOF 6
ENDMDL
