MODEL 1
REMARK VINA RESULT: -7.480159930      0.000      0.000
REMARK  10 active torsions:
REMARK  status: ('A' for Active; 'I' for Inactive)
REMARK    1  A    between atoms: C2_3  and  N2_4 
REMARK    2  A    between atoms: N2_4  and  C3_6 
REMARK    3  A    between atoms: C3_6  and  C4_7 
REMARK    4  A    between atoms: C4_7  and  C5_8 
REMARK    5  A    between atoms: C4_7  and  C6_17 
REMARK    6  A    between atoms: C5_8  and  N3_9 
REMARK    7  A    between atoms: C5_8  and  N4_13 
REMARK    8  A    between atoms: C6_17  and  N5_18 
REMARK    9  A    between atoms: C6_17  and  C7_22 
REMARK   10  A    between atoms: C8_27  and  N8_28 
ROOT
HETATM    1  C3  UNL     1       9.399  -6.628 -14.153  1.00  0.00     0.149 C 
ENDROOT
BRANCH   1   2
HETATM    2  N2  UNL     1      10.782  -6.704 -14.224  1.00  0.00    -0.225 N 
ATOM      3  H2  UNL     1      11.066  -7.182 -15.079  1.00  0.00     0.177 HD
BRANCH   2   4
HETATM    4  C2  UNL     1      11.777  -6.370 -13.569  1.00  0.00     0.683 A 
HETATM    5  N1  UNL     1      12.599  -7.151 -12.858  1.00  0.00    -0.170 N 
HETATM    6  C1  UNL     1      12.383  -8.582 -12.786  1.00  0.00     0.177 C 
HETATM    7  C11 UNL     1      13.671  -6.660 -12.170  1.00  0.00     0.154 A 
HETATM    8  C9  UNL     1      13.924  -5.321 -12.202  1.00  0.00     0.123 A 
HETATM    9  N10 UNL     1      14.618  -7.212 -11.405  1.00  0.00    -0.336 N 
HETATM   10  C8  UNL     1      13.100  -4.493 -12.922  1.00  0.00     0.145 A 
HETATM   11  N9  UNL     1      15.033  -5.050 -11.452  1.00  0.00    -0.346 N 
HETATM   12  N7  UNL     1      12.082  -5.027 -13.564  1.00  0.00    -0.175 N 
ATOM     13  H7  UNL     1      11.475  -4.402 -14.095  1.00  0.00     0.186 HD
HETATM   14  C10 UNL     1      15.443  -6.233 -10.971  1.00  0.00     0.182 A 
ATOM     15  H9  UNL     1      15.461  -4.138 -11.291  1.00  0.00     0.167 HD
ATOM     16  H10 UNL     1      14.704  -8.204 -11.185  1.00  0.00     0.168 HD
BRANCH  10  17
HETATM   17  N8  UNL     1      13.317  -3.219 -12.969  1.00  0.00    -0.383 N 
ATOM     18  H82 UNL     1      13.984  -2.825 -13.633  1.00  0.00     0.157 HD
ATOM     19  H81 UNL     1      12.824  -2.583 -12.341  1.00  0.00     0.157 HD
ENDBRANCH  10  17
ENDBRANCH   2   4
ENDBRANCH   1   2
BRANCH   1  20
HETATM   20  C4  UNL     1       8.822  -7.235 -12.869  1.00  0.00     0.101 C 
BRANCH  20  21
HETATM   21  C5  UNL     1       8.081  -6.155 -12.134  1.00  0.00     0.386 C 
BRANCH  21  22
HETATM   22  N3  UNL     1       7.217  -5.414 -13.005  1.00  0.00    -0.050 N 
ATOM     23  H33 UNL     1       7.444  -5.584 -13.985  1.00  0.00     0.276 HD
ATOM     24  H32 UNL     1       6.268  -5.787 -12.993  1.00  0.00     0.276 HD
ATOM     25  H31 UNL     1       7.226  -4.417 -12.790  1.00  0.00     0.276 HD
ENDBRANCH  21  22
BRANCH  21  26
HETATM   26  N4  UNL     1       7.373  -6.733 -10.999  1.00  0.00    -0.050 N 
ATOM     27  H43 UNL     1       6.387  -6.473 -10.987  1.00  0.00     0.276 HD
ATOM     28  H42 UNL     1       7.258  -7.742 -11.091  1.00  0.00     0.276 HD
ATOM     29  H41 UNL     1       7.848  -6.478 -10.133  1.00  0.00     0.276 HD
ENDBRANCH  21  26
ENDBRANCH  20  21
BRANCH  20  30
HETATM   30  C6  UNL     1       7.932  -8.406 -13.147  1.00  0.00     0.281 C 
BRANCH  30  31
HETATM   31  N5  UNL     1       7.959  -8.674 -14.564  1.00  0.00    -0.066 N 
ATOM     32  H53 UNL     1       7.206  -9.295 -14.861  1.00  0.00     0.275 HD
ATOM     33  H52 UNL     1       7.696  -7.861 -15.122  1.00  0.00     0.275 HD
ATOM     34  H51 UNL     1       8.881  -9.034 -14.808  1.00  0.00     0.275 HD
ENDBRANCH  30  31
BRANCH  30  35
HETATM   35  C7  UNL     1       8.220  -9.592 -12.330  1.00  0.00     0.262 C 
HETATM   36  N6  UNL     1       7.308  -9.983 -11.325  1.00  0.00    -0.060 NA
HETATM   37  O1  UNL     1       9.265 -10.249 -12.523  1.00  0.00    -0.275 OA
ENDBRANCH  30  35
ENDBRANCH  20  30
ENDBRANCH   1  20
TORSDOF 10
ENDMDL
MODEL 2
REMARK VINA RESULT: -7.406235821      1.629      2.439
REMARK  10 active torsions:
REMARK  status: ('A' for Active; 'I' for Inactive)
REMARK    1  A    between atoms: C2_3  and  N2_4 
REMARK    2  A    between atoms: N2_4  and  C3_6 
REMARK    3  A    between atoms: C3_6  and  C4_7 
REMARK    4  A    between atoms: C4_7  and  C5_8 
REMARK    5  A    between atoms: C4_7  and  C6_17 
REMARK    6  A    between atoms: C5_8  and  N3_9 
REMARK    7  A    between atoms: C5_8  and  N4_13 
REMARK    8  A    between atoms: C6_17  and  N5_18 
REMARK    9  A    between atoms: C6_17  and  C7_22 
REMARK   10  A    between atoms: C8_27  and  N8_28 
ROOT
HETATM    1  C3  UNL     1      10.505  -9.292 -14.075  1.00  0.00     0.149 C 
ENDROOT
BRANCH   1   2
HETATM    2  N2  UNL     1      11.707  -8.602 -14.124  1.00  0.00    -0.225 N 
ATOM      3  H2  UNL     1      12.449  -9.209 -14.473  1.00  0.00     0.177 HD
BRANCH   2   4
HETATM    4  C2  UNL     1      12.157  -7.478 -13.874  1.00  0.00     0.683 A 
HETATM    5  N1  UNL     1      12.876  -7.091 -12.815  1.00  0.00    -0.170 N 
HETATM    6  C1  UNL     1      13.229  -8.036 -11.773  1.00  0.00     0.177 C 
HETATM    7  C11 UNL     1      13.316  -5.808 -12.649  1.00  0.00     0.154 A 
HETATM    8  C9  UNL     1      13.016  -4.876 -13.596  1.00  0.00     0.123 A 
HETATM    9  N10 UNL     1      14.030  -5.183 -11.707  1.00  0.00    -0.336 N 
HETATM   10  C8  UNL     1      12.280  -5.241 -14.696  1.00  0.00     0.145 A 
HETATM   11  N9  UNL     1      13.549  -3.672 -13.234  1.00  0.00    -0.346 N 
HETATM   12  N7  UNL     1      11.884  -6.493 -14.798  1.00  0.00    -0.175 N 
ATOM     13  H7  UNL     1      11.337  -6.752 -15.619  1.00  0.00     0.186 HD
HETATM   14  C10 UNL     1      14.170  -3.888 -12.065  1.00  0.00     0.182 A 
ATOM     15  H9  UNL     1      13.488  -2.791 -13.746  1.00  0.00     0.167 HD
ATOM     16  H10 UNL     1      14.405  -5.612 -10.861  1.00  0.00     0.168 HD
BRANCH  10  17
HETATM   17  N8  UNL     1      11.981  -4.376 -15.610  1.00  0.00    -0.383 N 
ATOM     18  H82 UNL     1      11.017  -4.257 -15.922  1.00  0.00     0.157 HD
ATOM     19  H81 UNL     1      12.704  -3.797 -16.038  1.00  0.00     0.157 HD
ENDBRANCH  10  17
ENDBRANCH   2   4
ENDBRANCH   1   2
BRANCH   1  20
HETATM   20  C4  UNL     1       9.453  -8.617 -13.188  1.00  0.00     0.101 C 
BRANCH  20  21
HETATM   21  C5  UNL     1       8.247  -8.325 -14.035  1.00  0.00     0.386 C 
BRANCH  21  22
HETATM   22  N3  UNL     1       7.880  -6.940 -13.981  1.00  0.00    -0.050 N 
ATOM     23  H33 UNL     1       7.648  -6.582 -14.907  1.00  0.00     0.276 HD
ATOM     24  H32 UNL     1       6.975  -6.813 -13.528  1.00  0.00     0.276 HD
ATOM     25  H31 UNL     1       8.601  -6.374 -13.533  1.00  0.00     0.276 HD
ENDBRANCH  21  22
BRANCH  21  26
HETATM   26  N4  UNL     1       8.480  -8.792 -15.396  1.00  0.00    -0.050 N 
ATOM     27  H43 UNL     1       7.641  -9.192 -15.814  1.00  0.00     0.276 HD
ATOM     28  H42 UNL     1       8.617  -8.021 -16.049  1.00  0.00     0.276 HD
ATOM     29  H41 UNL     1       9.263  -9.446 -15.403  1.00  0.00     0.276 HD
ENDBRANCH  21  26
ENDBRANCH  20  21
BRANCH  20  30
HETATM   30  C6  UNL     1       9.089  -9.454 -12.002  1.00  0.00     0.281 C 
BRANCH  30  31
HETATM   31  N5  UNL     1      10.074  -9.236 -10.970  1.00  0.00    -0.066 N 
ATOM     32  H53 UNL     1      10.651  -8.413 -11.146  1.00  0.00     0.275 HD
ATOM     33  H52 UNL     1       9.659  -8.930 -10.090  1.00  0.00     0.275 HD
ATOM     34  H51 UNL     1      10.627 -10.087 -10.867  1.00  0.00     0.275 HD
ENDBRANCH  30  31
BRANCH  30  35
HETATM   35  C7  UNL     1       7.711  -9.271 -11.531  1.00  0.00     0.262 C 
HETATM   36  N6  UNL     1       7.333  -8.047 -10.938  1.00  0.00    -0.060 NA
HETATM   37  O1  UNL     1       6.878 -10.194 -11.654  1.00  0.00    -0.275 OA
ENDBRANCH  30  35
ENDBRANCH  20  30
ENDBRANCH   1  20
TORSDOF 10
ENDMDL
MODEL 3
REMARK VINA RESULT: -7.387018886      1.636      2.307
REMARK  10 active torsions:
REMARK  status: ('A' for Active; 'I' for Inactive)
REMARK    1  A    between atoms: C2_3  and  N2_4 
REMARK    2  A    between atoms: N2_4  and  C3_6 
REMARK    3  A    between atoms: C3_6  and  C4_7 
REMARK    4  A    between atoms: C4_7  and  C5_8 
REMARK    5  A    between atoms: C4_7  and  C6_17 
REMARK    6  A    between atoms: C5_8  and  N3_9 
REMARK    7  A    between atoms: C5_8  and  N4_13 
REMARK    8  A    between atoms: C6_17  and  N5_18 
REMARK    9  A    between atoms: C6_17  and  C7_22 
REMARK   10  A    between atoms: C8_27  and  N8_28 
ROOT
HETATM    1  C3  UNL     1       9.615  -8.652 -13.722  1.00  0.00     0.149 C 
ENDROOT
BRANCH   1   2
HETATM    2  N2  UNL     1      10.934  -8.279 -13.934  1.00  0.00    -0.225 N 
ATOM      3  H2  UNL     1      11.361  -8.878 -14.641  1.00  0.00     0.177 HD
BRANCH   2   4
HETATM    4  C2  UNL     1      11.752  -7.444 -13.531  1.00  0.00     0.683 A 
HETATM    5  N1  UNL     1      12.598  -7.546 -12.499  1.00  0.00    -0.170 N 
HETATM    6  C1  UNL     1      12.639  -8.749 -11.691  1.00  0.00     0.177 C 
HETATM    7  C11 UNL     1      13.457  -6.544 -12.147  1.00  0.00     0.154 A 
HETATM    8  C9  UNL     1      13.463  -5.390 -12.871  1.00  0.00     0.123 A 
HETATM    9  N10 UNL     1      14.375  -6.400 -11.186  1.00  0.00    -0.336 N 
HETATM   10  C8  UNL     1      12.609  -5.254 -13.936  1.00  0.00     0.145 A 
HETATM   11  N9  UNL     1      14.391  -4.533 -12.351  1.00  0.00    -0.346 N 
HETATM   12  N7  UNL     1      11.803  -6.255 -14.224  1.00  0.00    -0.175 N 
ATOM     13  H7  UNL     1      11.172  -6.142 -15.018  1.00  0.00     0.186 HD
HETATM   14  C10 UNL     1      14.939  -5.180 -11.312  1.00  0.00     0.182 A 
ATOM     15  H9  UNL     1      14.619  -3.595 -12.683  1.00  0.00     0.167 HD
ATOM     16  H10 UNL     1      14.609  -7.095 -10.476  1.00  0.00     0.168 HD
BRANCH  10  17
HETATM   17  N8  UNL     1      12.594  -4.169 -14.640  1.00  0.00    -0.383 N 
ATOM     18  H82 UNL     1      11.941  -4.058 -15.416  1.00  0.00     0.157 HD
ATOM     19  H81 UNL     1      13.236  -3.404 -14.433  1.00  0.00     0.157 HD
ENDBRANCH  10  17
ENDBRANCH   2   4
ENDBRANCH   1   2
BRANCH   1  20
HETATM   20  C4  UNL     1       8.705  -7.478 -13.347  1.00  0.00     0.101 C 
BRANCH  20  21
HETATM   21  C5  UNL     1       7.864  -7.138 -14.544  1.00  0.00     0.386 C 
BRANCH  21  22
HETATM   22  N3  UNL     1       8.196  -5.852 -15.081  1.00  0.00    -0.050 N 
ATOM     23  H33 UNL     1       8.613  -5.250 -14.371  1.00  0.00     0.276 HD
ATOM     24  H32 UNL     1       8.985  -5.910 -15.725  1.00  0.00     0.276 HD
ATOM     25  H31 UNL     1       7.391  -5.405 -15.520  1.00  0.00     0.276 HD
ENDBRANCH  21  22
BRANCH  21  26
HETATM   26  N4  UNL     1       7.968  -8.205 -15.533  1.00  0.00    -0.050 N 
ATOM     27  H43 UNL     1       7.838  -7.861 -16.484  1.00  0.00     0.276 HD
ATOM     28  H42 UNL     1       8.924  -8.547 -15.630  1.00  0.00     0.276 HD
ATOM     29  H41 UNL     1       7.313  -8.951 -15.301  1.00  0.00     0.276 HD
ENDBRANCH  21  26
ENDBRANCH  20  21
BRANCH  20  30
HETATM   30  C6  UNL     1       7.851  -7.781 -12.156  1.00  0.00     0.281 C 
BRANCH  30  31
HETATM   31  N5  UNL     1       8.498  -8.812 -11.381  1.00  0.00    -0.066 N 
ATOM     32  H53 UNL     1       7.834  -9.472 -10.975  1.00  0.00     0.275 HD
ATOM     33  H52 UNL     1       9.015  -9.472 -11.961  1.00  0.00     0.275 HD
ATOM     34  H51 UNL     1       9.086  -8.366 -10.677  1.00  0.00     0.275 HD
ENDBRANCH  30  31
BRANCH  30  35
HETATM   35  C7  UNL     1       7.484  -6.604 -11.358  1.00  0.00     0.262 C 
HETATM   36  N6  UNL     1       6.345  -6.654 -10.525  1.00  0.00    -0.060 NA
HETATM   37  O1  UNL     1       8.175  -5.565 -11.419  1.00  0.00    -0.275 OA
ENDBRANCH  30  35
ENDBRANCH  20  30
ENDBRANCH   1  20
TORSDOF 10
ENDMDL
MODEL 4
REMARK VINA RESULT: -7.293391834      1.703      3.021
REMARK  10 active torsions:
REMARK  status: ('A' for Active; 'I' for Inactive)
REMARK    1  A    between atoms: C2_3  and  N2_4 
REMARK    2  A    between atoms: N2_4  and  C3_6 
REMARK    3  A    between atoms: C3_6  and  C4_7 
REMARK    4  A    between atoms: C4_7  and  C5_8 
REMARK    5  A    between atoms: C4_7  and  C6_17 
REMARK    6  A    between atoms: C5_8  and  N3_9 
REMARK    7  A    between atoms: C5_8  and  N4_13 
REMARK    8  A    between atoms: C6_17  and  N5_18 
REMARK    9  A    between atoms: C6_17  and  C7_22 
REMARK   10  A    between atoms: C8_27  and  N8_28 
ROOT
HETATM    1  C3  UNL     1       9.493  -8.853 -13.770  1.00  0.00     0.149 C 
ENDROOT
BRANCH   1   2
HETATM    2  N2  UNL     1      10.845  -8.556 -13.854  1.00  0.00    -0.225 N 
ATOM      3  H2  UNL     1      11.259  -9.019 -14.663  1.00  0.00     0.177 HD
BRANCH   2   4
HETATM    4  C2  UNL     1      11.704  -7.903 -13.250  1.00  0.00     0.683 A 
HETATM    5  N1  UNL     1      12.184  -6.691 -13.549  1.00  0.00    -0.170 N 
HETATM    6  C1  UNL     1      11.697  -5.967 -14.707  1.00  0.00     0.177 C 
HETATM    7  C11 UNL     1      13.142  -6.070 -12.800  1.00  0.00     0.154 A 
HETATM    8  C9  UNL     1      13.637  -6.703 -11.699  1.00  0.00     0.123 A 
HETATM    9  N10 UNL     1      13.773  -4.894 -12.883  1.00  0.00    -0.336 N 
HETATM   10  C8  UNL     1      13.166  -7.948 -11.364  1.00  0.00     0.145 A 
HETATM   11  N9  UNL     1      14.577  -5.910 -11.103  1.00  0.00    -0.346 N 
HETATM   12  N7  UNL     1      12.242  -8.494 -12.128  1.00  0.00    -0.175 N 
ATOM     13  H7  UNL     1      11.900  -9.420 -11.869  1.00  0.00     0.186 HD
HETATM   14  C10 UNL     1      14.641  -4.800 -11.853  1.00  0.00     0.182 A 
ATOM     15  H9  UNL     1      15.117  -6.119 -10.263  1.00  0.00     0.167 HD
ATOM     16  H10 UNL     1      13.623  -4.188 -13.603  1.00  0.00     0.168 HD
BRANCH  10  17
HETATM   17  N8  UNL     1      13.619  -8.571 -10.325  1.00  0.00    -0.383 N 
ATOM     18  H82 UNL     1      13.761  -9.581 -10.342  1.00  0.00     0.157 HD
ATOM     19  H81 UNL     1      13.841  -8.064  -9.468  1.00  0.00     0.157 HD
ENDBRANCH  10  17
ENDBRANCH   2   4
ENDBRANCH   1   2
BRANCH   1  20
HETATM   20  C4  UNL     1       8.639  -7.669 -13.305  1.00  0.00     0.101 C 
BRANCH  20  21
HETATM   21  C5  UNL     1       7.804  -7.211 -14.466  1.00  0.00     0.386 C 
BRANCH  21  22
HETATM   22  N3  UNL     1       8.024  -5.827 -14.768  1.00  0.00    -0.050 N 
ATOM     23  H33 UNL     1       8.596  -5.378 -14.052  1.00  0.00     0.276 HD
ATOM     24  H32 UNL     1       8.650  -5.716 -15.566  1.00  0.00     0.276 HD
ATOM     25  H31 UNL     1       7.148  -5.325 -14.911  1.00  0.00     0.276 HD
ENDBRANCH  21  22
BRANCH  21  26
HETATM   26  N4  UNL     1       8.040  -8.080 -15.612  1.00  0.00    -0.050 N 
ATOM     27  H43 UNL     1       8.973  -8.492 -15.596  1.00  0.00     0.276 HD
ATOM     28  H42 UNL     1       7.498  -8.943 -15.558  1.00  0.00     0.276 HD
ATOM     29  H41 UNL     1       7.862  -7.566 -16.474  1.00  0.00     0.276 HD
ENDBRANCH  21  26
ENDBRANCH  20  21
BRANCH  20  30
HETATM   30  C6  UNL     1       7.782  -8.016 -12.128  1.00  0.00     0.281 C 
BRANCH  30  31
HETATM   31  N5  UNL     1       8.426  -9.076 -11.391  1.00  0.00    -0.066 N 
ATOM     32  H53 UNL     1       7.907  -9.953 -11.430  1.00  0.00     0.275 HD
ATOM     33  H52 UNL     1       9.283  -9.401 -11.840  1.00  0.00     0.275 HD
ATOM     34  H51 UNL     1       8.583  -8.756 -10.436  1.00  0.00     0.275 HD
ENDBRANCH  30  31
BRANCH  30  35
HETATM   35  C7  UNL     1       7.414  -6.870 -11.288  1.00  0.00     0.262 C 
HETATM   36  N6  UNL     1       8.142  -5.665 -11.394  1.00  0.00    -0.060 NA
HETATM   37  O1  UNL     1       6.462  -6.961 -10.483  1.00  0.00    -0.275 OA
ENDBRANCH  30  35
ENDBRANCH  20  30
ENDBRANCH   1  20
TORSDOF 10
ENDMDL
MODEL 5
REMARK VINA RESULT: -7.200522299      1.482      2.799
REMARK  10 active torsions:
REMARK  status: ('A' for Active; 'I' for Inactive)
REMARK    1  A    between atoms: C2_3  and  N2_4 
REMARK    2  A    between atoms: N2_4  and  C3_6 
REMARK    3  A    between atoms: C3_6  and  C4_7 
REMARK    4  A    between atoms: C4_7  and  C5_8 
REMARK    5  A    between atoms: C4_7  and  C6_17 
REMARK    6  A    between atoms: C5_8  and  N3_9 
REMARK    7  A    between atoms: C5_8  and  N4_13 
REMARK    8  A    between atoms: C6_17  and  N5_18 
REMARK    9  A    between atoms: C6_17  and  C7_22 
REMARK   10  A    between atoms: C8_27  and  N8_28 
ROOT
HETATM    1  C3  UNL     1      10.416  -9.170 -14.158  1.00  0.00     0.149 C 
ENDROOT
BRANCH   1   2
HETATM    2  N2  UNL     1      11.609  -8.469 -14.260  1.00  0.00    -0.225 N 
ATOM      3  H2  UNL     1      12.139  -8.790 -15.070  1.00  0.00     0.177 HD
BRANCH   2   4
HETATM    4  C2  UNL     1      12.227  -7.575 -13.671  1.00  0.00     0.683 A 
HETATM    5  N1  UNL     1      12.268  -6.269 -13.960  1.00  0.00    -0.170 N 
HETATM    6  C1  UNL     1      11.525  -5.735 -15.084  1.00  0.00     0.177 C 
HETATM    7  C11 UNL     1      12.997  -5.374 -13.230  1.00  0.00     0.154 A 
HETATM    8  C9  UNL     1      13.715  -5.818 -12.161  1.00  0.00     0.123 A 
HETATM    9  N10 UNL     1      13.200  -4.055 -13.309  1.00  0.00    -0.336 N 
HETATM   10  C8  UNL     1      13.694  -7.152 -11.838  1.00  0.00     0.145 A 
HETATM   11  N9  UNL     1      14.364  -4.765 -11.580  1.00  0.00    -0.346 N 
HETATM   12  N7  UNL     1      12.973  -7.965 -12.581  1.00  0.00    -0.175 N 
ATOM     13  H7  UNL     1      12.966  -8.954 -12.332  1.00  0.00     0.186 HD
HETATM   14  C10 UNL     1      14.029  -3.689 -12.307  1.00  0.00     0.182 A 
ATOM     15  H9  UNL     1      14.975  -4.792 -10.763  1.00  0.00     0.167 HD
ATOM     16  H10 UNL     1      12.798  -3.430 -14.007  1.00  0.00     0.168 HD
BRANCH  10  17
HETATM   17  N8  UNL     1      14.368  -7.600 -10.828  1.00  0.00    -0.383 N 
ATOM     18  H82 UNL     1      14.123  -8.487 -10.388  1.00  0.00     0.157 HD
ATOM     19  H81 UNL     1      15.157  -7.074 -10.453  1.00  0.00     0.157 HD
ENDBRANCH  10  17
ENDBRANCH   2   4
ENDBRANCH   1   2
BRANCH   1  20
HETATM   20  C4  UNL     1       9.402  -8.511 -13.218  1.00  0.00     0.101 C 
BRANCH  20  21
HETATM   21  C5  UNL     1       8.160  -8.211 -14.007  1.00  0.00     0.386 C 
BRANCH  21  22
HETATM   22  N3  UNL     1       7.827  -6.818 -13.968  1.00  0.00    -0.050 N 
ATOM     23  H33 UNL     1       8.660  -6.235 -14.051  1.00  0.00     0.276 HD
ATOM     24  H32 UNL     1       7.343  -6.528 -14.818  1.00  0.00     0.276 HD
ATOM     25  H31 UNL     1       7.289  -6.579 -13.135  1.00  0.00     0.276 HD
ENDBRANCH  21  22
BRANCH  21  26
HETATM   26  N4  UNL     1       8.310  -8.716 -15.366  1.00  0.00    -0.050 N 
ATOM     27  H43 UNL     1       7.454  -9.148 -15.713  1.00  0.00     0.276 HD
ATOM     28  H42 UNL     1       8.382  -7.963 -16.050  1.00  0.00     0.276 HD
ATOM     29  H41 UNL     1       9.106  -9.352 -15.408  1.00  0.00     0.276 HD
ENDBRANCH  21  26
ENDBRANCH  20  21
BRANCH  20  30
HETATM   30  C6  UNL     1       9.093  -9.366 -12.028  1.00  0.00     0.281 C 
BRANCH  30  31
HETATM   31  N5  UNL     1      10.101  -9.132 -11.024  1.00  0.00    -0.066 N 
ATOM     32  H53 UNL     1       9.857  -8.368 -10.393  1.00  0.00     0.275 HD
ATOM     33  H52 UNL     1      10.143  -9.878 -10.329  1.00  0.00     0.275 HD
ATOM     34  H51 UNL     1      10.995  -8.983 -11.491  1.00  0.00     0.275 HD
ENDBRANCH  30  31
BRANCH  30  35
HETATM   35  C7  UNL     1       7.724  -9.220 -11.517  1.00  0.00     0.262 C 
HETATM   36  N6  UNL     1       7.329  -8.002 -10.922  1.00  0.00    -0.060 NA
HETATM   37  O1  UNL     1       6.916 -10.168 -11.608  1.00  0.00    -0.275 OA
ENDBRANCH  30  35
ENDBRANCH  20  30
ENDBRANCH   1  20
TORSDOF 10
ENDMDL
