MODEL 1
REMARK VINA RESULT: -7.115956126      0.000      0.000
REMARK  13 active torsions:
REMARK  status: ('A' for Active; 'I' for Inactive)
REMARK    1  A    between atoms: N1_2  and  C2_4 
REMARK    2  A    between atoms: C3_5  and  O1_6 
REMARK    3  A    between atoms: C4_8  and  C5_9 
REMARK    4  A    between atoms: N2_12  and  C6_13 
REMARK    5  A    between atoms: C6_13  and  S1_14 
REMARK    6  A    between atoms: S1_14  and  C7_15 
REMARK    7  A    between atoms: C7_15  and  C8_16 
REMARK    8  A    between atoms: N3_18  and  N4_20 
REMARK       I    between atoms: N4_20  and  C10_21 
REMARK    9  A    between atoms: C10_21  and  C11_23 
REMARK   10  A    between atoms: C11_23  and  S2_24 
REMARK   11  A    between atoms: S2_24  and  C12_25 
REMARK   12  A    between atoms: C18_37  and  O6_38 
REMARK   13  A    between atoms: N9_43  and  S4_44 
ROOT
HETATM    1  C8  UNL     1      22.285   6.899  26.164  1.00  0.00     0.022 C 
HETATM    2  C9  UNL     1      22.913   8.172  26.500  1.00  0.00     0.066 C 
HETATM    3  N3  UNL     1      21.814   6.796  24.944  1.00  0.00    -0.240 N 
ATOM      4  H3  UNL     1      21.936   7.580  24.303  1.00  0.00     0.201 HD
ENDROOT
BRANCH   1   5
HETATM    5  C7  UNL     1      22.109   5.775  27.069  1.00  0.00     0.134 C 
BRANCH   5   6
HETATM    6  S1  UNL     1      23.224   5.565  28.405  1.00  0.00    -0.118 SA
BRANCH   6   7
HETATM    7  C6  UNL     1      24.950   5.543  28.224  1.00  0.00     0.145 C 
BRANCH   7   8
HETATM    8  N2  UNL     1      25.837   5.304  29.299  1.00  0.00    -0.283 N 
HETATM    9  C4  UNL     1      26.141   4.050  29.639  1.00  0.00     0.156 A 
HETATM   10  C3  UNL     1      27.022   3.872  30.748  1.00  0.00     0.145 A 
HETATM   11  C2  UNL     1      27.503   5.004  31.395  1.00  0.00     0.156 A 
HETATM   12  N9  UNL     1      27.146   6.266  30.988  1.00  0.00    -0.196 N 
HETATM   13  C19 UNL     1      26.325   6.390  29.955  1.00  0.00     0.201 A 
HETATM   14  S3  UNL     1      25.925   7.914  29.494  1.00  0.00    -0.039 SA
BRANCH   9  15
HETATM   15  C5  UNL     1      25.676   2.860  28.958  1.00  0.00     0.230 C 
HETATM   16  O2  UNL     1      25.894   2.503  27.793  1.00  0.00    -0.643 OA
HETATM   17  O3  UNL     1      24.864   1.966  29.692  1.00  0.00    -0.643 OA
ENDBRANCH   9  15
BRANCH  10  18
HETATM   18  O1  UNL     1      27.316   2.624  31.077  1.00  0.00    -0.355 OA
ATOM     19  H1  UNL     1      26.903   1.851  30.712  1.00  0.00     0.218 HD
ENDBRANCH  10  18
BRANCH  11  20
HETATM   20  N1  UNL     1      28.294   4.950  32.371  1.00  0.00    -0.377 N 
HETATM   21  C1  UNL     1      28.053   4.391  33.642  1.00  0.00     0.148 C 
ATOM     22  H1  UNL     1      29.217   5.358  32.226  1.00  0.00     0.160 HD
ENDBRANCH  11  20
BRANCH  12  23
HETATM   23  S4  UNL     1      27.794   7.606  31.881  1.00  0.00     0.236 S 
HETATM   24  C20 UNL     1      26.756   8.020  33.261  1.00  0.00     0.186 C 
HETATM   25  O7  UNL     1      27.836   8.830  31.001  1.00  0.00    -0.205 OA
HETATM   26  O8  UNL     1      29.183   7.325  32.336  1.00  0.00    -0.205 OA
ENDBRANCH  12  23
ENDBRANCH   7   8
ENDBRANCH   6   7
ENDBRANCH   5   6
ENDBRANCH   1   5
BRANCH   3  27
HETATM   27  N4  UNL     1      21.159   5.664  24.493  1.00  0.00    -0.286 NA
HETATM   28  C10 UNL     1      20.548   4.597  24.068  1.00  0.00     0.322 C 
HETATM   29  O4  UNL     1      21.045   3.504  23.599  1.00  0.00    -0.254 OA
BRANCH  28  30
HETATM   30  C11 UNL     1      19.015   4.498  24.071  1.00  0.00     0.203 C 
BRANCH  30  31
HETATM   31  S2  UNL     1      18.346   4.134  25.670  1.00  0.00    -0.081 SA
BRANCH  31  32
HETATM   32  C12 UNL     1      19.495   3.378  26.782  1.00  0.00     0.170 A 
HETATM   33  N5  UNL     1      20.460   2.459  26.556  1.00  0.00    -0.278 N 
HETATM   34  N6  UNL     1      21.042   2.176  27.693  1.00  0.00    -0.278 N 
ATOM     35  H5  UNL     1      20.696   2.054  25.650  1.00  0.00     0.189 HD
HETATM   36  C13 UNL     1      20.492   2.882  28.689  1.00  0.00     0.200 A 
ATOM     37  H6  UNL     1      21.806   1.510  27.806  1.00  0.00     0.189 HD
HETATM   38  C14 UNL     1      20.720   2.948  30.041  1.00  0.00     0.293 A 
HETATM   39  N8  UNL     1      19.524   3.632  28.106  1.00  0.00    -0.248 N 
HETATM   40  O5  UNL     1      21.620   2.248  30.563  1.00  0.00    -0.264 OA
HETATM   41  N7  UNL     1      19.974   3.766  30.806  1.00  0.00    -0.316 N 
HETATM   42  C15 UNL     1      20.271   3.782  32.236  1.00  0.00     0.159 C 
HETATM   43  C16 UNL     1      19.013   4.515  30.247  1.00  0.00     0.062 A 
HETATM   44  C17 UNL     1      18.200   5.389  31.137  1.00  0.00     0.073 C 
HETATM   45  C18 UNL     1      18.778   4.456  28.876  1.00  0.00     0.173 A 
BRANCH  45  46
HETATM   46  O6  UNL     1      17.790   5.234  28.325  1.00  0.00    -0.344 OA
ATOM     47  H6  UNL     1      17.852   5.493  27.413  1.00  0.00     0.219 HD
ENDBRANCH  45  46
ENDBRANCH  31  32
ENDBRANCH  30  31
ENDBRANCH  28  30
ENDBRANCH   3  27
TORSDOF 13
ENDMDL
MODEL 2
REMARK VINA RESULT: -6.996686791      1.695      4.071
REMARK  13 active torsions:
REMARK  status: ('A' for Active; 'I' for Inactive)
REMARK    1  A    between atoms: N1_2  and  C2_4 
REMARK    2  A    between atoms: C3_5  and  O1_6 
REMARK    3  A    between atoms: C4_8  and  C5_9 
REMARK    4  A    between atoms: N2_12  and  C6_13 
REMARK    5  A    between atoms: C6_13  and  S1_14 
REMARK    6  A    between atoms: S1_14  and  C7_15 
REMARK    7  A    between atoms: C7_15  and  C8_16 
REMARK    8  A    between atoms: N3_18  and  N4_20 
REMARK       I    between atoms: N4_20  and  C10_21 
REMARK    9  A    between atoms: C10_21  and  C11_23 
REMARK   10  A    between atoms: C11_23  and  S2_24 
REMARK   11  A    between atoms: S2_24  and  C12_25 
REMARK   12  A    between atoms: C18_37  and  O6_38 
REMARK   13  A    between atoms: N9_43  and  S4_44 
ROOT
HETATM    1  C8  UNL     1      22.608   5.235  31.214  1.00  0.00     0.022 C 
HETATM    2  C9  UNL     1      23.403   6.152  32.022  1.00  0.00     0.066 C 
HETATM    3  N3  UNL     1      22.419   4.039  31.721  1.00  0.00    -0.240 N 
ATOM      4  H3  UNL     1      22.804   3.831  32.642  1.00  0.00     0.201 HD
ENDROOT
BRANCH   1   5
HETATM    5  C7  UNL     1      22.053   5.523  29.901  1.00  0.00     0.134 C 
BRANCH   5   6
HETATM    6  S1  UNL     1      22.965   5.086  28.469  1.00  0.00    -0.118 SA
BRANCH   6   7
HETATM    7  C6  UNL     1      24.654   5.424  28.262  1.00  0.00     0.145 C 
BRANCH   7   8
HETATM    8  N2  UNL     1      25.598   5.316  29.310  1.00  0.00    -0.283 N 
HETATM    9  C4  UNL     1      25.988   4.109  29.726  1.00  0.00     0.156 A 
HETATM   10  C3  UNL     1      26.923   4.064  30.803  1.00  0.00     0.145 A 
HETATM   11  C2  UNL     1      27.365   5.266  31.343  1.00  0.00     0.156 A 
HETATM   12  N9  UNL     1      26.919   6.472  30.862  1.00  0.00    -0.196 N 
HETATM   13  C19 UNL     1      26.049   6.473  29.861  1.00  0.00     0.201 A 
HETATM   14  S3  UNL     1      25.543   7.933  29.310  1.00  0.00    -0.039 SA
BRANCH   9  15
HETATM   15  C5  UNL     1      25.564   2.847  29.156  1.00  0.00     0.230 C 
HETATM   16  O2  UNL     1      24.843   1.977  29.660  1.00  0.00    -0.643 OA
HETATM   17  O3  UNL     1      26.018   2.537  27.854  1.00  0.00    -0.643 OA
ENDBRANCH   9  15
BRANCH  10  18
HETATM   18  O1  UNL     1      27.302   2.862  31.209  1.00  0.00    -0.355 OA
ATOM     19  H1  UNL     1      27.469   2.121  30.639  1.00  0.00     0.218 HD
ENDBRANCH  10  18
BRANCH  11  20
HETATM   20  N1  UNL     1      28.198   5.329  32.283  1.00  0.00    -0.377 N 
HETATM   21  C1  UNL     1      28.033   4.881  33.609  1.00  0.00     0.148 C 
ATOM     22  H1  UNL     1      29.098   5.754  32.060  1.00  0.00     0.160 HD
ENDBRANCH  11  20
BRANCH  12  23
HETATM   23  S4  UNL     1      27.525   7.909  31.624  1.00  0.00     0.236 S 
HETATM   24  C20 UNL     1      27.553   9.275  30.489  1.00  0.00     0.186 C 
HETATM   25  O7  UNL     1      28.952   7.690  32.058  1.00  0.00    -0.205 OA
HETATM   26  O8  UNL     1      26.727   8.251  32.833  1.00  0.00    -0.205 OA
ENDBRANCH  12  23
ENDBRANCH   7   8
ENDBRANCH   6   7
ENDBRANCH   5   6
ENDBRANCH   1   5
BRANCH   3  27
HETATM   27  N4  UNL     1      21.719   3.051  31.053  1.00  0.00    -0.286 NA
HETATM   28  C10 UNL     1      21.066   2.119  30.423  1.00  0.00     0.322 C 
HETATM   29  O4  UNL     1      21.515   1.063  29.834  1.00  0.00    -0.254 OA
BRANCH  28  30
HETATM   30  C11 UNL     1      19.537   2.164  30.289  1.00  0.00     0.203 C 
BRANCH  30  31
HETATM   31  S2  UNL     1      18.978   3.370  29.117  1.00  0.00    -0.081 SA
BRANCH  31  32
HETATM   32  C12 UNL     1      19.735   3.238  27.524  1.00  0.00     0.170 A 
HETATM   33  N5  UNL     1      20.597   2.318  27.035  1.00  0.00    -0.278 N 
HETATM   34  N6  UNL     1      20.911   2.649  25.809  1.00  0.00    -0.278 N 
ATOM     35  H5  UNL     1      20.945   1.502  27.539  1.00  0.00     0.189 HD
HETATM   36  C13 UNL     1      20.281   3.775  25.452  1.00  0.00     0.200 A 
ATOM     37  H6  UNL     1      21.546   2.123  25.209  1.00  0.00     0.189 HD
HETATM   38  C14 UNL     1      20.273   4.534  24.309  1.00  0.00     0.293 A 
HETATM   39  N8  UNL     1      19.548   4.135  26.536  1.00  0.00    -0.248 N 
HETATM   40  O5  UNL     1      20.958   4.185  23.317  1.00  0.00    -0.264 OA
HETATM   41  N7  UNL     1      19.530   5.654  24.255  1.00  0.00    -0.316 N 
HETATM   42  C15 UNL     1      19.573   6.413  23.008  1.00  0.00     0.159 C 
HETATM   43  C16 UNL     1      18.798   6.025  25.315  1.00  0.00     0.062 A 
HETATM   44  C17 UNL     1      18.008   7.284  25.214  1.00  0.00     0.073 C 
HETATM   45  C18 UNL     1      18.799   5.259  26.477  1.00  0.00     0.173 A 
BRANCH  45  46
HETATM   46  O6  UNL     1      18.040   5.657  27.550  1.00  0.00    -0.344 OA
ATOM     47  H6  UNL     1      17.914   5.063  28.281  1.00  0.00     0.219 HD
ENDBRANCH  45  46
ENDBRANCH  31  32
ENDBRANCH  30  31
ENDBRANCH  28  30
ENDBRANCH   3  27
TORSDOF 13
ENDMDL
MODEL 3
REMARK VINA RESULT: -6.956804363      2.663      7.959
REMARK  13 active torsions:
REMARK  status: ('A' for Active; 'I' for Inactive)
REMARK    1  A    between atoms: N1_2  and  C2_4 
REMARK    2  A    between atoms: C3_5  and  O1_6 
REMARK    3  A    between atoms: C4_8  and  C5_9 
REMARK    4  A    between atoms: N2_12  and  C6_13 
REMARK    5  A    between atoms: C6_13  and  S1_14 
REMARK    6  A    between atoms: S1_14  and  C7_15 
REMARK    7  A    between atoms: C7_15  and  C8_16 
REMARK    8  A    between atoms: N3_18  and  N4_20 
REMARK       I    between atoms: N4_20  and  C10_21 
REMARK    9  A    between atoms: C10_21  and  C11_23 
REMARK   10  A    between atoms: C11_23  and  S2_24 
REMARK   11  A    between atoms: S2_24  and  C12_25 
REMARK   12  A    between atoms: C18_37  and  O6_38 
REMARK   13  A    between atoms: N9_43  and  S4_44 
ROOT
HETATM    1  C8  UNL     1      20.122   2.175  29.889  1.00  0.00     0.022 C 
HETATM    2  C9  UNL     1      18.742   2.221  30.359  1.00  0.00     0.066 C 
HETATM    3  N3  UNL     1      20.771   1.059  30.125  1.00  0.00    -0.240 N 
ATOM      4  H3  UNL     1      20.279   0.294  30.586  1.00  0.00     0.201 HD
ENDROOT
BRANCH   1   5
HETATM    5  C7  UNL     1      20.830   3.259  29.229  1.00  0.00     0.134 C 
BRANCH   5   6
HETATM    6  S1  UNL     1      20.679   3.453  27.493  1.00  0.00    -0.118 SA
BRANCH   6   7
HETATM    7  C6  UNL     1      19.840   4.773  26.741  1.00  0.00     0.145 C 
BRANCH   7   8
HETATM    8  N2  UNL     1      20.451   5.649  25.815  1.00  0.00    -0.283 N 
HETATM    9  C4  UNL     1      20.487   5.323  24.521  1.00  0.00     0.156 A 
HETATM   10  C3  UNL     1      21.139   6.236  23.639  1.00  0.00     0.145 A 
HETATM   11  C2  UNL     1      21.687   7.394  24.176  1.00  0.00     0.156 A 
HETATM   12  N9  UNL     1      21.611   7.664  25.520  1.00  0.00    -0.196 N 
HETATM   13  C19 UNL     1      20.999   6.791  26.308  1.00  0.00     0.201 A 
HETATM   14  S3  UNL     1      20.923   7.150  27.907  1.00  0.00    -0.039 SA
BRANCH   9  15
HETATM   15  C5  UNL     1      19.894   4.139  23.937  1.00  0.00     0.230 C 
HETATM   16  O2  UNL     1      18.695   3.852  23.825  1.00  0.00    -0.643 OA
HETATM   17  O3  UNL     1      20.772   3.159  23.419  1.00  0.00    -0.643 OA
ENDBRANCH   9  15
BRANCH  10  18
HETATM   18  O1  UNL     1      21.170   5.903  22.358  1.00  0.00    -0.355 OA
ATOM     19  H1  UNL     1      20.457   6.030  21.743  1.00  0.00     0.218 HD
ENDBRANCH  10  18
BRANCH  11  20
HETATM   20  N1  UNL     1      22.268   8.264  23.478  1.00  0.00    -0.377 N 
HETATM   21  C1  UNL     1      21.735   8.994  22.396  1.00  0.00     0.148 C 
ATOM     22  H1  UNL     1      23.238   8.465  23.723  1.00  0.00     0.160 HD
ENDBRANCH  11  20
BRANCH  12  23
HETATM   23  S4  UNL     1      22.346   9.132  26.083  1.00  0.00     0.236 S 
HETATM   24  C20 UNL     1      22.225   9.276  27.849  1.00  0.00     0.186 C 
HETATM   25  O7  UNL     1      21.613  10.319  25.511  1.00  0.00    -0.205 OA
HETATM   26  O8  UNL     1      23.767   9.220  25.647  1.00  0.00    -0.205 OA
ENDBRANCH  12  23
ENDBRANCH   7   8
ENDBRANCH   6   7
ENDBRANCH   5   6
ENDBRANCH   1   5
BRANCH   3  27
HETATM   27  N4  UNL     1      22.096   0.882  29.772  1.00  0.00    -0.286 NA
HETATM   28  C10 UNL     1      23.344   0.710  29.444  1.00  0.00     0.322 C 
HETATM   29  O4  UNL     1      24.122  -0.289  29.688  1.00  0.00    -0.254 OA
BRANCH  28  30
HETATM   30  C11 UNL     1      24.117   1.775  28.653  1.00  0.00     0.203 C 
BRANCH  30  31
HETATM   31  S2  UNL     1      24.989   2.915  29.691  1.00  0.00    -0.081 SA
BRANCH  31  32
HETATM   32  C12 UNL     1      24.905   4.597  29.150  1.00  0.00     0.170 A 
HETATM   33  N5  UNL     1      24.139   5.176  28.200  1.00  0.00    -0.278 N 
HETATM   34  N6  UNL     1      24.446   6.446  28.131  1.00  0.00    -0.278 N 
ATOM     35  H5  UNL     1      23.438   4.702  27.630  1.00  0.00     0.189 HD
HETATM   36  C13 UNL     1      25.406   6.744  29.015  1.00  0.00     0.200 A 
ATOM     37  H6  UNL     1      24.015   7.116  27.494  1.00  0.00     0.189 HD
HETATM   38  C14 UNL     1      26.076   7.899  29.332  1.00  0.00     0.293 A 
HETATM   39  N8  UNL     1      25.686   5.577  29.648  1.00  0.00    -0.248 N 
HETATM   40  O5  UNL     1      25.803   8.969  28.737  1.00  0.00    -0.264 OA
HETATM   41  N7  UNL     1      27.027   7.880  30.284  1.00  0.00    -0.316 N 
HETATM   42  C15 UNL     1      27.700   9.145  30.567  1.00  0.00     0.159 C 
HETATM   43  C16 UNL     1      27.317   6.737  30.921  1.00  0.00     0.062 A 
HETATM   44  C17 UNL     1      28.392   6.762  31.951  1.00  0.00     0.073 C 
HETATM   45  C18 UNL     1      26.640   5.562  30.606  1.00  0.00     0.173 A 
BRANCH  45  46
HETATM   46  O6  UNL     1      26.952   4.403  31.273  1.00  0.00    -0.344 OA
ATOM     47  H6  UNL     1      26.266   3.773  31.462  1.00  0.00     0.219 HD
ENDBRANCH  45  46
ENDBRANCH  31  32
ENDBRANCH  30  31
ENDBRANCH  28  30
ENDBRANCH   3  27
TORSDOF 13
ENDMDL
MODEL 4
REMARK VINA RESULT: -6.893768456      2.520      8.146
REMARK  13 active torsions:
REMARK  status: ('A' for Active; 'I' for Inactive)
REMARK    1  A    between atoms: N1_2  and  C2_4 
REMARK    2  A    between atoms: C3_5  and  O1_6 
REMARK    3  A    between atoms: C4_8  and  C5_9 
REMARK    4  A    between atoms: N2_12  and  C6_13 
REMARK    5  A    between atoms: C6_13  and  S1_14 
REMARK    6  A    between atoms: S1_14  and  C7_15 
REMARK    7  A    between atoms: C7_15  and  C8_16 
REMARK    8  A    between atoms: N3_18  and  N4_20 
REMARK       I    between atoms: N4_20  and  C10_21 
REMARK    9  A    between atoms: C10_21  and  C11_23 
REMARK   10  A    between atoms: C11_23  and  S2_24 
REMARK   11  A    between atoms: S2_24  and  C12_25 
REMARK   12  A    between atoms: C18_37  and  O6_38 
REMARK   13  A    between atoms: N9_43  and  S4_44 
ROOT
HETATM    1  C8  UNL     1      20.037   2.441  29.919  1.00  0.00     0.022 C 
HETATM    2  C9  UNL     1      18.681   2.204  30.401  1.00  0.00     0.066 C 
HETATM    3  N3  UNL     1      20.902   1.481  30.147  1.00  0.00    -0.240 N 
ATOM      4  H3  UNL     1      20.581   0.631  30.610  1.00  0.00     0.201 HD
ENDROOT
BRANCH   1   5
HETATM    5  C7  UNL     1      20.503   3.648  29.257  1.00  0.00     0.134 C 
BRANCH   5   6
HETATM    6  S1  UNL     1      20.466   3.736  27.507  1.00  0.00    -0.118 SA
BRANCH   6   7
HETATM    7  C6  UNL     1      19.816   5.082  26.624  1.00  0.00     0.145 C 
BRANCH   7   8
HETATM    8  N2  UNL     1      20.539   5.772  25.624  1.00  0.00    -0.283 N 
HETATM    9  C4  UNL     1      20.551   5.303  24.375  1.00  0.00     0.156 A 
HETATM   10  C3  UNL     1      21.319   6.029  23.415  1.00  0.00     0.145 A 
HETATM   11  C2  UNL     1      21.996   7.166  23.837  1.00  0.00     0.156 A 
HETATM   12  N9  UNL     1      21.936   7.591  25.142  1.00  0.00    -0.196 N 
HETATM   13  C19 UNL     1      21.213   6.889  26.004  1.00  0.00     0.201 A 
HETATM   14  S3  UNL     1      21.161   7.430  27.553  1.00  0.00    -0.039 SA
BRANCH   9  15
HETATM   15  C5  UNL     1      19.828   4.138  23.908  1.00  0.00     0.230 C 
HETATM   16  O2  UNL     1      18.604   3.967  23.841  1.00  0.00    -0.643 OA
HETATM   17  O3  UNL     1      20.591   3.033  23.466  1.00  0.00    -0.643 OA
ENDBRANCH   9  15
BRANCH  10  18
HETATM   18  O1  UNL     1      21.326   5.554  22.180  1.00  0.00    -0.355 OA
ATOM     19  H1  UNL     1      20.877   5.947  21.441  1.00  0.00     0.218 HD
ENDBRANCH  10  18
BRANCH  11  20
HETATM   20  N1  UNL     1      22.685   7.879  23.064  1.00  0.00    -0.377 N 
HETATM   21  C1  UNL     1      22.272   8.493  21.865  1.00  0.00     0.148 C 
ATOM     22  H1  UNL     1      23.656   8.030  23.337  1.00  0.00     0.160 HD
ENDBRANCH  11  20
BRANCH  12  23
HETATM   23  S4  UNL     1      22.834   9.016  25.561  1.00  0.00     0.236 S 
HETATM   24  C20 UNL     1      21.770  10.432  25.690  1.00  0.00     0.186 C 
HETATM   25  O7  UNL     1      23.825   9.330  24.469  1.00  0.00    -0.205 OA
HETATM   26  O8  UNL     1      23.596   8.816  26.824  1.00  0.00    -0.205 OA
ENDBRANCH  12  23
ENDBRANCH   7   8
ENDBRANCH   6   7
ENDBRANCH   5   6
ENDBRANCH   1   5
BRANCH   3  27
HETATM   27  N4  UNL     1      22.233   1.579  29.783  1.00  0.00    -0.286 NA
HETATM   28  C10 UNL     1      23.485   1.665  29.443  1.00  0.00     0.322 C 
HETATM   29  O4  UNL     1      24.396   0.752  29.444  1.00  0.00    -0.254 OA
BRANCH  28  30
HETATM   30  C11 UNL     1      24.093   2.988  28.953  1.00  0.00     0.203 C 
BRANCH  30  31
HETATM   31  S2  UNL     1      25.856   2.926  28.796  1.00  0.00    -0.081 SA
BRANCH  31  32
HETATM   32  C12 UNL     1      26.732   3.554  30.199  1.00  0.00     0.170 A 
HETATM   33  N5  UNL     1      27.250   2.912  31.269  1.00  0.00    -0.278 N 
HETATM   34  N6  UNL     1      27.784   3.798  32.069  1.00  0.00    -0.278 N 
ATOM     35  H5  UNL     1      27.228   1.904  31.427  1.00  0.00     0.189 HD
HETATM   36  C13 UNL     1      27.640   5.031  31.567  1.00  0.00     0.200 A 
ATOM     37  H6  UNL     1      28.246   3.581  32.953  1.00  0.00     0.189 HD
HETATM   38  C14 UNL     1      28.001   6.280  32.005  1.00  0.00     0.293 A 
HETATM   39  N8  UNL     1      26.979   4.865  30.394  1.00  0.00    -0.248 N 
HETATM   40  O5  UNL     1      28.613   6.414  33.092  1.00  0.00    -0.264 OA
HETATM   41  N7  UNL     1      27.696   7.362  31.265  1.00  0.00    -0.316 N 
HETATM   42  C15 UNL     1      28.109   8.659  31.795  1.00  0.00     0.159 C 
HETATM   43  C16 UNL     1      27.044   7.218  30.103  1.00  0.00     0.062 A 
HETATM   44  C17 UNL     1      26.710   8.446  29.331  1.00  0.00     0.073 C 
HETATM   45  C18 UNL     1      26.676   5.953  29.651  1.00  0.00     0.173 A 
BRANCH  45  46
HETATM   46  O6  UNL     1      26.010   5.829  28.457  1.00  0.00    -0.344 OA
ATOM     47  H6  UNL     1      26.126   5.044  27.936  1.00  0.00     0.219 HD
ENDBRANCH  45  46
ENDBRANCH  31  32
ENDBRANCH  30  31
ENDBRANCH  28  30
ENDBRANCH   3  27
TORSDOF 13
ENDMDL
MODEL 5
REMARK VINA RESULT: -6.827162210      2.534      7.798
REMARK  13 active torsions:
REMARK  status: ('A' for Active; 'I' for Inactive)
REMARK    1  A    between atoms: N1_2  and  C2_4 
REMARK    2  A    between atoms: C3_5  and  O1_6 
REMARK    3  A    between atoms: C4_8  and  C5_9 
REMARK    4  A    between atoms: N2_12  and  C6_13 
REMARK    5  A    between atoms: C6_13  and  S1_14 
REMARK    6  A    between atoms: S1_14  and  C7_15 
REMARK    7  A    between atoms: C7_15  and  C8_16 
REMARK    8  A    between atoms: N3_18  and  N4_20 
REMARK       I    between atoms: N4_20  and  C10_21 
REMARK    9  A    between atoms: C10_21  and  C11_23 
REMARK   10  A    between atoms: C11_23  and  S2_24 
REMARK   11  A    between atoms: S2_24  and  C12_25 
REMARK   12  A    between atoms: C18_37  and  O6_38 
REMARK   13  A    between atoms: N9_43  and  S4_44 
ROOT
HETATM    1  C8  UNL     1      26.291   4.589  29.854  1.00  0.00     0.022 C 
HETATM    2  C9  UNL     1      26.941   3.336  30.222  1.00  0.00     0.066 C 
HETATM    3  N3  UNL     1      27.075   5.637  29.765  1.00  0.00    -0.240 N 
ATOM      4  H3  UNL     1      28.075   5.517  29.925  1.00  0.00     0.201 HD
ENDROOT
BRANCH   1   5
HETATM    5  C7  UNL     1      24.867   4.770  29.622  1.00  0.00     0.134 C 
BRANCH   5   6
HETATM    6  S1  UNL     1      23.732   4.363  30.894  1.00  0.00    -0.118 SA
BRANCH   6   7
HETATM    7  C6  UNL     1      22.316   3.390  30.646  1.00  0.00     0.145 C 
BRANCH   7   8
HETATM    8  N2  UNL     1      21.786   3.110  29.366  1.00  0.00    -0.283 N 
HETATM    9  C4  UNL     1      22.278   2.091  28.656  1.00  0.00     0.156 A 
HETATM   10  C3  UNL     1      21.719   1.873  27.361  1.00  0.00     0.145 A 
HETATM   11  C2  UNL     1      20.710   2.723  26.926  1.00  0.00     0.156 A 
HETATM   12  N9  UNL     1      20.253   3.752  27.713  1.00  0.00    -0.196 N 
HETATM   13  C19 UNL     1      20.798   3.923  28.910  1.00  0.00     0.201 A 
HETATM   14  S3  UNL     1      20.223   5.159  29.824  1.00  0.00    -0.039 SA
BRANCH   9  15
HETATM   15  C5  UNL     1      23.306   1.176  29.103  1.00  0.00     0.230 C 
HETATM   16  O2  UNL     1      23.217   0.265  29.937  1.00  0.00    -0.643 OA
HETATM   17  O3  UNL     1      24.592   1.313  28.534  1.00  0.00    -0.643 OA
ENDBRANCH   9  15
BRANCH  10  18
HETATM   18  O1  UNL     1      22.215   0.862  26.665  1.00  0.00    -0.355 OA
ATOM     19  H1  UNL     1      23.068   0.468  26.805  1.00  0.00     0.218 HD
ENDBRANCH  10  18
BRANCH  11  20
HETATM   20  N1  UNL     1      20.147   2.602  25.808  1.00  0.00    -0.377 N 
HETATM   21  C1  UNL     1      20.737   2.706  24.533  1.00  0.00     0.148 C 
ATOM     22  H1  UNL     1      19.146   2.406  25.827  1.00  0.00     0.160 HD
ENDBRANCH  11  20
BRANCH  12  23
HETATM   23  S4  UNL     1      19.001   4.761  27.062  1.00  0.00     0.236 S 
HETATM   24  C20 UNL     1      18.355   5.862  28.297  1.00  0.00     0.186 C 
HETATM   25  O7  UNL     1      17.844   3.907  26.609  1.00  0.00    -0.205 OA
HETATM   26  O8  UNL     1      19.490   5.527  25.883  1.00  0.00    -0.205 OA
ENDBRANCH  12  23
ENDBRANCH   7   8
ENDBRANCH   6   7
ENDBRANCH   5   6
ENDBRANCH   1   5
BRANCH   3  27
HETATM   27  N4  UNL     1      26.597   6.899  29.464  1.00  0.00    -0.286 NA
HETATM   28  C10 UNL     1      26.152   8.088  29.177  1.00  0.00     0.322 C 
HETATM   29  O4  UNL     1      26.693   9.010  28.455  1.00  0.00    -0.254 OA
BRANCH  28  30
HETATM   30  C11 UNL     1      24.802   8.588  29.712  1.00  0.00     0.203 C 
BRANCH  30  31
HETATM   31  S2  UNL     1      23.784   9.314  28.458  1.00  0.00    -0.081 SA
BRANCH  31  32
HETATM   32  C12 UNL     1      23.136   8.155  27.289  1.00  0.00     0.170 A 
HETATM   33  N5  UNL     1      22.725   6.878  27.455  1.00  0.00    -0.278 N 
HETATM   34  N6  UNL     1      22.351   6.405  26.294  1.00  0.00    -0.278 N 
ATOM     35  H5  UNL     1      22.708   6.368  28.339  1.00  0.00     0.189 HD
HETATM   36  C13 UNL     1      22.501   7.333  25.340  1.00  0.00     0.200 A 
ATOM     37  H6  UNL     1      21.997   5.462  26.137  1.00  0.00     0.189 HD
HETATM   38  C14 UNL     1      22.273   7.345  23.987  1.00  0.00     0.293 A 
HETATM   39  N8  UNL     1      22.993   8.425  25.976  1.00  0.00    -0.248 N 
HETATM   40  O5  UNL     1      21.816   6.325  23.416  1.00  0.00    -0.264 OA
HETATM   41  N7  UNL     1      22.542   8.453  23.274  1.00  0.00    -0.316 N 
HETATM   42  C15 UNL     1      22.277   8.393  21.839  1.00  0.00     0.159 C 
HETATM   43  C16 UNL     1      23.028   9.543  23.885  1.00  0.00     0.062 A 
HETATM   44  C17 UNL     1      23.329  10.738  23.049  1.00  0.00     0.073 C 
HETATM   45  C18 UNL     1      23.259   9.539  25.257  1.00  0.00     0.173 A 
BRANCH  45  46
HETATM   46  O6  UNL     1      23.756  10.667  25.862  1.00  0.00    -0.344 OA
ATOM     47  H6  UNL     1      24.694  10.762  25.977  1.00  0.00     0.219 HD
ENDBRANCH  45  46
ENDBRANCH  31  32
ENDBRANCH  30  31
ENDBRANCH  28  30
ENDBRANCH   3  27
TORSDOF 13
ENDMDL
