MODEL 1
REMARK VINA RESULT: -8.697075270      0.000      0.000
REMARK  7 active torsions:
REMARK  status: ('A' for Active; 'I' for Inactive)
REMARK    1  A    between atoms: C9_9  and  N1_10 
REMARK    2  A    between atoms: N1_10  and  C10_12 
REMARK    3  A    between atoms: N2_15  and  O1_17 
REMARK    4  A    between atoms: O1_17  and  C13_18 
REMARK    5  A    between atoms: C13_18  and  C14_19 
REMARK    6  A    between atoms: C16_22  and  O2_23 
REMARK    7  A    between atoms: C19_27  and  C20_28 
ROOT
HETATM    1  N1  UNL     1      27.949   2.744   3.601  1.00  0.00    -0.407 N 
ATOM      2  H1  UNL     1      28.314   2.585   2.662  1.00  0.00     0.154 HD
ENDROOT
BRANCH   1   3
HETATM    3  C9  UNL     1      26.660   3.106   3.550  1.00  0.00     0.034 C 
HETATM    4  C2  UNL     1      25.738   2.679   2.483  1.00  0.00     0.014 C 
HETATM    5  C1  UNL     1      26.075   1.392   1.780  1.00  0.00     0.012 C 
HETATM    6  C3  UNL     1      24.395   2.417   3.134  1.00  0.00    -0.008 C 
HETATM    7  C4  UNL     1      23.591   3.667   3.323  1.00  0.00     0.010 C 
HETATM    8  C8  UNL     1      24.860   1.824   4.466  1.00  0.00     0.012 C 
HETATM    9  C5  UNL     1      24.378   4.709   4.101  1.00  0.00    -0.001 C 
HETATM   10  C6  UNL     1      25.075   4.088   5.259  1.00  0.00     0.012 C 
HETATM   11  C19 UNL     1      25.398   5.286   3.174  1.00  0.00     0.100 C 
HETATM   12  C7  UNL     1      25.914   2.893   4.825  1.00  0.00     0.014 C 
HETATM   13  C18 UNL     1      26.708   4.660   3.385  1.00  0.00     0.045 C 
BRANCH  11  14
HETATM   14  C20 UNL     1      25.540   6.777   3.515  1.00  0.00     0.391 C 
HETATM   15  F2  UNL     1      24.532   7.197   4.338  1.00  0.00    -0.171 F 
HETATM   16  F3  UNL     1      26.793   7.086   3.995  1.00  0.00    -0.171 F 
HETATM   17  F4  UNL     1      25.402   7.532   2.339  1.00  0.00    -0.171 F 
ENDBRANCH  11  14
ENDBRANCH   1   3
BRANCH   1  18
HETATM   18  C10 UNL     1      28.901   2.528   4.520  1.00  0.00     0.085 C 
HETATM   19  C11 UNL     1      28.417   1.335   5.392  1.00  0.00     0.079 C 
HETATM   20  C12 UNL     1      29.588   0.508   5.737  1.00  0.00     0.014 C 
HETATM   21  N2  UNL     1      30.088   0.461   6.908  1.00  0.00    -0.275 N 
HETATM   22  C15 UNL     1      30.164  -0.292   4.594  1.00  0.00     0.086 C 
ATOM     23  H2  UNL     1      30.900  -0.131   7.082  1.00  0.00     0.193 HD
HETATM   24  C16 UNL     1      30.277   0.715   3.440  1.00  0.00     0.125 C 
HETATM   25  C17 UNL     1      30.240   2.119   3.975  1.00  0.00     0.057 C 
BRANCH  21  26
HETATM   26  O1  UNL     1      29.559   1.189   7.935  1.00  0.00    -0.278 OA
BRANCH  26  27
HETATM   27  C13 UNL     1      29.826   0.838   9.303  1.00  0.00     0.232 C 
BRANCH  27  28
HETATM   28  C14 UNL     1      28.602   1.153  10.151  1.00  0.00     0.250 C 
HETATM   29  F1  UNL     1      28.031   2.339   9.750  1.00  0.00    -0.253 F 
ENDBRANCH  27  28
ENDBRANCH  26  27
ENDBRANCH  21  26
BRANCH  24  30
HETATM   30  O2  UNL     1      29.390   0.454   2.436  1.00  0.00    -0.395 OA
ATOM     31  H2  UNL     1      29.698   0.766   1.593  1.00  0.00     0.210 HD
ENDBRANCH  24  30
ENDBRANCH   1  18
TORSDOF 7
ENDMDL
MODEL 2
REMARK VINA RESULT: -8.597673322      0.782      1.099
REMARK  7 active torsions:
REMARK  status: ('A' for Active; 'I' for Inactive)
REMARK    1  A    between atoms: C9_9  and  N1_10 
REMARK    2  A    between atoms: N1_10  and  C10_12 
REMARK    3  A    between atoms: N2_15  and  O1_17 
REMARK    4  A    between atoms: O1_17  and  C13_18 
REMARK    5  A    between atoms: C13_18  and  C14_19 
REMARK    6  A    between atoms: C16_22  and  O2_23 
REMARK    7  A    between atoms: C19_27  and  C20_28 
ROOT
HETATM    1  N1  UNL     1      28.051   2.962   3.781  1.00  0.00    -0.407 N 
ATOM      2  H1  UNL     1      28.473   2.748   2.877  1.00  0.00     0.154 HD
ENDROOT
BRANCH   1   3
HETATM    3  C9  UNL     1      26.746   3.234   3.638  1.00  0.00     0.034 C 
HETATM    4  C2  UNL     1      25.927   2.723   2.527  1.00  0.00     0.014 C 
HETATM    5  C1  UNL     1      26.394   1.446   1.881  1.00  0.00     0.012 C 
HETATM    6  C3  UNL     1      24.564   2.383   3.098  1.00  0.00    -0.008 C 
HETATM    7  C4  UNL     1      23.668   3.579   3.202  1.00  0.00     0.010 C 
HETATM    8  C8  UNL     1      24.980   1.853   4.472  1.00  0.00     0.012 C 
HETATM    9  C5  UNL     1      24.331   4.689   4.001  1.00  0.00    -0.001 C 
HETATM   10  C6  UNL     1      24.991   4.144   5.217  1.00  0.00     0.012 C 
HETATM   11  C19 UNL     1      25.369   5.314   3.126  1.00  0.00     0.100 C 
HETATM   12  C7  UNL     1      25.935   2.999   4.869  1.00  0.00     0.014 C 
HETATM   13  C18 UNL     1      26.701   4.784   3.436  1.00  0.00     0.045 C 
BRANCH  11  14
HETATM   14  C20 UNL     1      25.388   6.818   3.436  1.00  0.00     0.391 C 
HETATM   15  F2  UNL     1      25.346   7.562   2.290  1.00  0.00    -0.171 F 
HETATM   16  F3  UNL     1      24.421   7.176   4.349  1.00  0.00    -0.171 F 
HETATM   17  F4  UNL     1      26.608   7.145   4.050  1.00  0.00    -0.171 F 
ENDBRANCH  11  14
ENDBRANCH   1   3
BRANCH   1  18
HETATM   18  C10 UNL     1      28.966   2.889   4.758  1.00  0.00     0.085 C 
HETATM   19  C11 UNL     1      28.441   1.842   5.782  1.00  0.00     0.079 C 
HETATM   20  C12 UNL     1      29.592   1.077   6.294  1.00  0.00     0.014 C 
HETATM   21  N2  UNL     1      30.047   1.209   7.477  1.00  0.00    -0.275 N 
HETATM   22  C15 UNL     1      30.207   0.112   5.309  1.00  0.00     0.086 C 
ATOM     23  H2  UNL     1      30.848   0.650   7.770  1.00  0.00     0.193 HD
HETATM   24  C16 UNL     1      30.371   0.932   4.021  1.00  0.00     0.125 C 
HETATM   25  C17 UNL     1      30.321   2.402   4.335  1.00  0.00     0.057 C 
BRANCH  21  26
HETATM   26  O1  UNL     1      29.484   2.085   8.360  1.00  0.00    -0.278 OA
BRANCH  26  27
HETATM   27  C13 UNL     1      28.761   1.612   9.509  1.00  0.00     0.232 C 
BRANCH  27  28
HETATM   28  C14 UNL     1      29.289   0.241   9.906  1.00  0.00     0.250 C 
HETATM   29  F1  UNL     1      30.279   0.362  10.854  1.00  0.00    -0.253 F 
ENDBRANCH  27  28
ENDBRANCH  26  27
ENDBRANCH  21  26
BRANCH  24  30
HETATM   30  O2  UNL     1      29.521   0.521   3.034  1.00  0.00    -0.395 OA
ATOM     31  H2  UNL     1      29.895  -0.173   2.504  1.00  0.00     0.210 HD
ENDBRANCH  24  30
ENDBRANCH   1  18
TORSDOF 7
ENDMDL
MODEL 3
REMARK VINA RESULT: -8.312232326      2.849      6.664
REMARK  7 active torsions:
REMARK  status: ('A' for Active; 'I' for Inactive)
REMARK    1  A    between atoms: C9_9  and  N1_10 
REMARK    2  A    between atoms: N1_10  and  C10_12 
REMARK    3  A    between atoms: N2_15  and  O1_17 
REMARK    4  A    between atoms: O1_17  and  C13_18 
REMARK    5  A    between atoms: C13_18  and  C14_19 
REMARK    6  A    between atoms: C16_22  and  O2_23 
REMARK    7  A    between atoms: C19_27  and  C20_28 
ROOT
HETATM    1  N1  UNL     1      27.436   3.058   4.442  1.00  0.00    -0.407 N 
ATOM      2  H1  UNL     1      27.794   3.705   5.145  1.00  0.00     0.154 HD
ENDROOT
BRANCH   1   3
HETATM    3  C9  UNL     1      28.142   1.919   4.446  1.00  0.00     0.034 C 
HETATM    4  C2  UNL     1      27.561   0.602   4.136  1.00  0.00     0.014 C 
HETATM    5  C1  UNL     1      26.336   0.598   3.261  1.00  0.00     0.012 C 
HETATM    6  C3  UNL     1      28.598  -0.166   3.341  1.00  0.00    -0.008 C 
HETATM    7  C4  UNL     1      29.621  -0.827   4.212  1.00  0.00     0.010 C 
HETATM    8  C8  UNL     1      29.196   0.977   2.516  1.00  0.00     0.012 C 
HETATM    9  C5  UNL     1      30.283   0.181   5.138  1.00  0.00    -0.001 C 
HETATM   10  C6  UNL     1      30.623   1.428   4.403  1.00  0.00     0.012 C 
HETATM   11  C19 UNL     1      29.304   0.508   6.219  1.00  0.00     0.100 C 
HETATM   12  C7  UNL     1      29.413   1.985   3.665  1.00  0.00     0.014 C 
HETATM   13  C18 UNL     1      28.609   1.767   5.930  1.00  0.00     0.045 C 
BRANCH  11  14
HETATM   14  C20 UNL     1      30.101   0.708   7.516  1.00  0.00     0.391 C 
HETATM   15  F2  UNL     1      31.190  -0.116   7.564  1.00  0.00    -0.171 F 
HETATM   16  F3  UNL     1      30.415   2.031   7.738  1.00  0.00    -0.171 F 
HETATM   17  F4  UNL     1      29.301   0.335   8.609  1.00  0.00    -0.171 F 
ENDBRANCH  11  14
ENDBRANCH   1   3
BRANCH   1  18
HETATM   18  C10 UNL     1      26.397   3.599   3.788  1.00  0.00     0.085 C 
HETATM   19  C11 UNL     1      25.871   4.765   4.673  1.00  0.00     0.079 C 
HETATM   20  C12 UNL     1      25.453   5.866   3.788  1.00  0.00     0.014 C 
HETATM   21  N2  UNL     1      24.233   6.180   3.594  1.00  0.00    -0.275 N 
HETATM   22  C15 UNL     1      26.582   6.610   3.116  1.00  0.00     0.086 C 
ATOM     23  H2  UNL     1      24.009   6.953   2.968  1.00  0.00     0.193 HD
HETATM   24  C16 UNL     1      27.486   5.505   2.553  1.00  0.00     0.125 C 
HETATM   25  C17 UNL     1      26.725   4.212   2.458  1.00  0.00     0.057 C 
BRANCH  21  26
HETATM   26  O1  UNL     1      23.220   5.500   4.207  1.00  0.00    -0.278 OA
BRANCH  26  27
HETATM   27  C13 UNL     1      22.513   4.452   3.523  1.00  0.00     0.232 C 
BRANCH  27  28
HETATM   28  C14 UNL     1      22.969   3.104   4.060  1.00  0.00     0.250 C 
HETATM   29  F1  UNL     1      23.538   2.353   3.058  1.00  0.00    -0.253 F 
ENDBRANCH  27  28
ENDBRANCH  26  27
ENDBRANCH  21  26
BRANCH  24  30
HETATM   30  O2  UNL     1      28.680   5.427   3.212  1.00  0.00    -0.395 OA
ATOM     31  H2  UNL     1      29.308   4.882   2.754  1.00  0.00     0.210 HD
ENDBRANCH  24  30
ENDBRANCH   1  18
TORSDOF 7
ENDMDL
MODEL 4
REMARK VINA RESULT: -7.478350583      1.111      1.118
REMARK  7 active torsions:
REMARK  status: ('A' for Active; 'I' for Inactive)
REMARK    1  A    between atoms: C9_9  and  N1_10 
REMARK    2  A    between atoms: N1_10  and  C10_12 
REMARK    3  A    between atoms: N2_15  and  O1_17 
REMARK    4  A    between atoms: O1_17  and  C13_18 
REMARK    5  A    between atoms: C13_18  and  C14_19 
REMARK    6  A    between atoms: C16_22  and  O2_23 
REMARK    7  A    between atoms: C19_27  and  C20_28 
ROOT
HETATM    1  N1  UNL     1      27.101   1.982   3.658  1.00  0.00    -0.407 N 
ATOM      2  H1  UNL     1      27.117   1.323   2.880  1.00  0.00     0.154 HD
ENDROOT
BRANCH   1   3
HETATM    3  C9  UNL     1      25.988   2.728   3.622  1.00  0.00     0.034 C 
HETATM    4  C2  UNL     1      24.930   2.558   2.612  1.00  0.00     0.014 C 
HETATM    5  C1  UNL     1      24.813   1.196   1.983  1.00  0.00     0.012 C 
HETATM    6  C3  UNL     1      23.604   2.766   3.318  1.00  0.00    -0.008 C 
HETATM    7  C4  UNL     1      23.240   4.213   3.451  1.00  0.00     0.010 C 
HETATM    8  C8  UNL     1      23.924   2.126   4.671  1.00  0.00     0.012 C 
HETATM    9  C5  UNL     1      24.350   4.993   4.137  1.00  0.00    -0.001 C 
HETATM   10  C6  UNL     1      24.873   4.245   5.311  1.00  0.00     0.012 C 
HETATM   11  C19 UNL     1      25.453   5.171   3.145  1.00  0.00     0.100 C 
HETATM   12  C7  UNL     1      25.275   2.826   4.930  1.00  0.00     0.014 C 
HETATM   13  C18 UNL     1      26.511   4.177   3.357  1.00  0.00     0.045 C 
BRANCH  11  14
HETATM   14  C20 UNL     1      26.069   6.558   3.386  1.00  0.00     0.391 C 
HETATM   15  F2  UNL     1      25.468   7.194   4.436  1.00  0.00    -0.171 F 
HETATM   16  F3  UNL     1      27.441   6.508   3.498  1.00  0.00    -0.171 F 
HETATM   17  F4  UNL     1      25.824   7.370   2.266  1.00  0.00    -0.171 F 
ENDBRANCH  11  14
ENDBRANCH   1   3
BRANCH   1  18
HETATM   18  C10 UNL     1      28.200   1.845   4.414  1.00  0.00     0.085 C 
HETATM   19  C11 UNL     1      28.155   0.409   5.011  1.00  0.00     0.079 C 
HETATM   20  C12 UNL     1      29.529  -0.122   5.045  1.00  0.00     0.014 C 
HETATM   21  N2  UNL     1      30.190  -0.277   6.124  1.00  0.00    -0.275 N 
HETATM   22  C15 UNL     1      30.111  -0.477   3.698  1.00  0.00     0.086 C 
ATOM     23  H2  UNL     1      31.139  -0.649   6.080  1.00  0.00     0.193 HD
HETATM   24  C16 UNL     1      29.806   0.742   2.817  1.00  0.00     0.125 C 
HETATM   25  C17 UNL     1      29.504   1.939   3.676  1.00  0.00     0.057 C 
BRANCH  21  26
HETATM   26  O1  UNL     1      29.654   0.048   7.337  1.00  0.00    -0.278 OA
BRANCH  26  27
HETATM   27  C13 UNL     1      30.267   1.044   8.173  1.00  0.00     0.232 C 
BRANCH  27  28
HETATM   28  C14 UNL     1      29.388   2.286   8.201  1.00  0.00     0.250 C 
HETATM   29  F1  UNL     1      30.057   3.361   7.664  1.00  0.00    -0.253 F 
ENDBRANCH  27  28
ENDBRANCH  26  27
ENDBRANCH  21  26
BRANCH  24  30
HETATM   30  O2  UNL     1      28.873   0.467   1.858  1.00  0.00    -0.395 OA
ATOM     31  H2  UNL     1      28.156   1.090   1.866  1.00  0.00     0.210 HD
ENDBRANCH  24  30
ENDBRANCH   1  18
TORSDOF 7
ENDMDL
MODEL 5
REMARK VINA RESULT: -7.351731939      0.908      1.128
REMARK  7 active torsions:
REMARK  status: ('A' for Active; 'I' for Inactive)
REMARK    1  A    between atoms: C9_9  and  N1_10 
REMARK    2  A    between atoms: N1_10  and  C10_12 
REMARK    3  A    between atoms: N2_15  and  O1_17 
REMARK    4  A    between atoms: O1_17  and  C13_18 
REMARK    5  A    between atoms: C13_18  and  C14_19 
REMARK    6  A    between atoms: C16_22  and  O2_23 
REMARK    7  A    between atoms: C19_27  and  C20_28 
ROOT
HETATM    1  N1  UNL     1      28.291   2.970   4.078  1.00  0.00    -0.407 N 
ATOM      2  H1  UNL     1      28.856   3.279   3.287  1.00  0.00     0.154 HD
ENDROOT
BRANCH   1   3
HETATM    3  C9  UNL     1      26.986   3.133   3.818  1.00  0.00     0.034 C 
HETATM    4  C2  UNL     1      26.316   2.558   2.639  1.00  0.00     0.014 C 
HETATM    5  C1  UNL     1      26.943   1.327   2.043  1.00  0.00     0.012 C 
HETATM    6  C3  UNL     1      24.940   2.105   3.087  1.00  0.00    -0.008 C 
HETATM    7  C4  UNL     1      23.942   3.222   3.106  1.00  0.00     0.010 C 
HETATM    8  C8  UNL     1      25.274   1.607   4.495  1.00  0.00     0.012 C 
HETATM    9  C5  UNL     1      24.436   4.381   3.956  1.00  0.00    -0.001 C 
HETATM   10  C6  UNL     1      25.027   3.888   5.228  1.00  0.00     0.012 C 
HETATM   11  C19 UNL     1      25.492   5.092   3.175  1.00  0.00     0.100 C 
HETATM   12  C7  UNL     1      26.090   2.827   4.971  1.00  0.00     0.014 C 
HETATM   13  C18 UNL     1      26.831   4.674   3.605  1.00  0.00     0.045 C 
BRANCH  11  14
HETATM   14  C20 UNL     1      25.359   6.592   3.479  1.00  0.00     0.391 C 
HETATM   15  F2  UNL     1      26.297   7.001   4.385  1.00  0.00    -0.171 F 
HETATM   16  F3  UNL     1      25.343   7.358   2.334  1.00  0.00    -0.171 F 
HETATM   17  F4  UNL     1      24.117   6.828   4.092  1.00  0.00    -0.171 F 
ENDBRANCH  11  14
ENDBRANCH   1   3
BRANCH   1  18
HETATM   18  C10 UNL     1      29.074   2.521   5.069  1.00  0.00     0.085 C 
HETATM   19  C11 UNL     1      28.561   1.098   5.433  1.00  0.00     0.079 C 
HETATM   20  C12 UNL     1      29.725   0.254   5.754  1.00  0.00     0.014 C 
HETATM   21  N2  UNL     1      30.003  -0.131   6.937  1.00  0.00    -0.275 N 
HETATM   22  C15 UNL     1      30.581  -0.132   4.571  1.00  0.00     0.086 C 
ATOM     23  H2  UNL     1      30.825  -0.714   7.093  1.00  0.00     0.193 HD
HETATM   24  C16 UNL     1      30.802   1.185   3.814  1.00  0.00     0.125 C 
HETATM   25  C17 UNL     1      30.524   2.354   4.718  1.00  0.00     0.057 C 
BRANCH  21  26
HETATM   26  O1  UNL     1      29.223   0.224   8.000  1.00  0.00    -0.278 OA
BRANCH  26  27
HETATM   27  C13 UNL     1      29.257  -0.528   9.224  1.00  0.00     0.232 C 
BRANCH  27  28
HETATM   28  C14 UNL     1      29.152   0.427  10.405  1.00  0.00     0.250 C 
HETATM   29  F1  UNL     1      30.207   0.243  11.267  1.00  0.00    -0.253 F 
ENDBRANCH  27  28
ENDBRANCH  26  27
ENDBRANCH  21  26
BRANCH  24  30
HETATM   30  O2  UNL     1      30.147   1.210   2.616  1.00  0.00    -0.395 OA
ATOM     31  H2  UNL     1      29.435   1.839   2.609  1.00  0.00     0.210 HD
ENDBRANCH  24  30
ENDBRANCH   1  18
TORSDOF 7
ENDMDL
