MODEL 1
REMARK VINA RESULT: -7.778486524      0.000      0.000
REMARK  8 active torsions:
REMARK  status: ('A' for Active; 'I' for Inactive)
REMARK    1  A    between atoms: C2_2  and  N1_3 
REMARK    2  A    between atoms: C2_2  and  C6_10 
REMARK    3  A    between atoms: N1_3  and  C3_6 
REMARK    4  A    between atoms: C6_10  and  C7_11 
REMARK    5  A    between atoms: C6_10  and  C16_23 
REMARK       I    between atoms: C7_11  and  N2_13 
REMARK    6  A    between atoms: N2_13  and  C8_15 
REMARK    7  A    between atoms: C16_23  and  S1_25 
REMARK    8  A    between atoms: S1_25  and  C17_26 
ROOT
HETATM    1  C6  UNL     1      29.195   0.966   6.090  1.00  0.00     0.189 C 
ENDROOT
BRANCH   1   2
HETATM    2  C2  UNL     1      29.432   1.160   7.555  1.00  0.00     0.207 C 
HETATM    3  C1  UNL     1      30.123   2.424   7.946  1.00  0.00     0.041 C 
BRANCH   2   4
HETATM    4  N1  UNL     1      30.198   0.037   8.075  1.00  0.00    -0.034 N 
ATOM      5  H12 UNL     1      30.197  -0.752   7.429  1.00  0.00     0.281 HD
ATOM      6  H11 UNL     1      31.199   0.232   8.078  1.00  0.00     0.281 HD
BRANCH   4   7
HETATM    7  C3  UNL     1      29.727  -0.338   9.371  1.00  0.00     0.258 C 
HETATM    8  C4  UNL     1      29.473  -1.857   9.357  1.00  0.00     0.084 C 
HETATM    9  C5  UNL     1      30.724   0.024  10.431  1.00  0.00     0.084 C 
HETATM   10  F1  UNL     1      28.477   0.248   9.620  1.00  0.00    -0.212 F 
ENDBRANCH   4   7
ENDBRANCH   2   4
ENDBRANCH   1   2
BRANCH   1  11
HETATM   11  C7  UNL     1      28.608   2.150   5.426  1.00  0.00     0.232 C 
HETATM   12  O1  UNL     1      29.320   3.169   5.274  1.00  0.00    -0.273 OA
HETATM   13  N2  UNL     1      27.238   2.120   4.973  1.00  0.00    -0.355 N 
ATOM     14  H2  UNL     1      26.670   1.281   5.089  1.00  0.00     0.162 HD
BRANCH  13  15
HETATM   15  C8  UNL     1      26.688   3.302   4.354  1.00  0.00     0.089 C 
HETATM   16  C9  UNL     1      26.445   3.134   2.870  1.00  0.00     0.031 C 
HETATM   17  C10 UNL     1      24.987   3.509   2.819  1.00  0.00    -0.004 C 
HETATM   18  C11 UNL     1      24.499   2.561   3.929  1.00  0.00     0.012 C 
HETATM   19  C13 UNL     1      24.803   4.599   3.849  1.00  0.00    -0.038 C 
HETATM   20  C12 UNL     1      25.261   3.529   4.812  1.00  0.00     0.017 C 
HETATM   21  C14 UNL     1      25.668   5.816   3.716  1.00  0.00     0.015 C 
HETATM   22  C15 UNL     1      23.370   5.029   4.056  1.00  0.00     0.015 C 
ENDBRANCH  13  15
ENDBRANCH   1  11
BRANCH   1  23
HETATM   23  C16 UNL     1      30.317   0.369   5.336  1.00  0.00     0.209 C 
HETATM   24  O2  UNL     1      31.238  -0.229   5.895  1.00  0.00    -0.284 OA
BRANCH  23  25
HETATM   25  S1  UNL     1      30.285   0.556   3.537  1.00  0.00     0.023 SA
BRANCH  25  26
HETATM   26  C17 UNL     1      29.283  -0.813   2.885  1.00  0.00     0.450 C 
HETATM   27  F2  UNL     1      28.132  -0.972   3.651  1.00  0.00    -0.160 F 
HETATM   28  F3  UNL     1      29.979  -2.011   2.990  1.00  0.00    -0.160 F 
HETATM   29  F4  UNL     1      28.989  -0.521   1.570  1.00  0.00    -0.160 F 
ENDBRANCH  25  26
ENDBRANCH  23  25
ENDBRANCH   1  23
TORSDOF 8
ENDMDL
MODEL 2
REMARK VINA RESULT: -7.684694034      1.039      1.224
REMARK  8 active torsions:
REMARK  status: ('A' for Active; 'I' for Inactive)
REMARK    1  A    between atoms: C2_2  and  N1_3 
REMARK    2  A    between atoms: C2_2  and  C6_10 
REMARK    3  A    between atoms: N1_3  and  C3_6 
REMARK    4  A    between atoms: C6_10  and  C7_11 
REMARK    5  A    between atoms: C6_10  and  C16_23 
REMARK       I    between atoms: C7_11  and  N2_13 
REMARK    6  A    between atoms: N2_13  and  C8_15 
REMARK    7  A    between atoms: C16_23  and  S1_25 
REMARK    8  A    between atoms: S1_25  and  C17_26 
ROOT
HETATM    1  C6  UNL     1      29.058   0.989   6.012  1.00  0.00     0.189 C 
ENDROOT
BRANCH   1   2
HETATM    2  C2  UNL     1      29.321   1.095   7.482  1.00  0.00     0.207 C 
HETATM    3  C1  UNL     1      30.041   2.321   7.934  1.00  0.00     0.041 C 
BRANCH   2   4
HETATM    4  N1  UNL     1      30.073  -0.070   7.924  1.00  0.00    -0.034 N 
ATOM      5  H12 UNL     1      29.945  -0.863   7.296  1.00  0.00     0.281 HD
ATOM      6  H11 UNL     1      31.077   0.061   7.804  1.00  0.00     0.281 HD
BRANCH   4   7
HETATM    7  C3  UNL     1      29.739  -0.404   9.274  1.00  0.00     0.258 C 
HETATM    8  C4  UNL     1      29.509  -1.925   9.338  1.00  0.00     0.084 C 
HETATM    9  C5  UNL     1      30.832   0.009  10.215  1.00  0.00     0.084 C 
HETATM   10  F1  UNL     1      28.511   0.177   9.626  1.00  0.00    -0.212 F 
ENDBRANCH   4   7
ENDBRANCH   2   4
ENDBRANCH   1   2
BRANCH   1  11
HETATM   11  C7  UNL     1      28.865   2.299   5.353  1.00  0.00     0.232 C 
HETATM   12  O1  UNL     1      29.869   3.019   5.139  1.00  0.00    -0.273 OA
HETATM   13  N2  UNL     1      27.541   2.730   4.975  1.00  0.00    -0.355 N 
ATOM     14  H2  UNL     1      26.731   2.132   5.140  1.00  0.00     0.162 HD
BRANCH  13  15
HETATM   15  C8  UNL     1      27.385   4.026   4.358  1.00  0.00     0.089 C 
HETATM   16  C9  UNL     1      27.471   3.977   2.848  1.00  0.00     0.031 C 
HETATM   17  C10 UNL     1      26.163   4.643   2.510  1.00  0.00    -0.004 C 
HETATM   18  C11 UNL     1      25.258   3.767   3.393  1.00  0.00     0.012 C 
HETATM   19  C13 UNL     1      25.950   5.701   3.567  1.00  0.00    -0.038 C 
HETATM   20  C12 UNL     1      25.959   4.519   4.507  1.00  0.00     0.017 C 
HETATM   21  C14 UNL     1      27.036   6.721   3.740  1.00  0.00     0.015 C 
HETATM   22  C15 UNL     1      24.616   6.405   3.489  1.00  0.00     0.015 C 
ENDBRANCH  13  15
ENDBRANCH   1  11
BRANCH   1  23
HETATM   23  C16 UNL     1      29.959   0.087   5.266  1.00  0.00     0.209 C 
HETATM   24  O2  UNL     1      31.167   0.023   5.504  1.00  0.00    -0.284 OA
BRANCH  23  25
HETATM   25  S1  UNL     1      29.211  -0.931   3.972  1.00  0.00     0.023 SA
BRANCH  25  26
HETATM   26  C17 UNL     1      29.032   0.130   2.507  1.00  0.00     0.450 C 
HETATM   27  F2  UNL     1      27.776   0.729   2.500  1.00  0.00    -0.160 F 
HETATM   28  F3  UNL     1      29.096  -0.634   1.349  1.00  0.00    -0.160 F 
HETATM   29  F4  UNL     1      30.046   1.063   2.545  1.00  0.00    -0.160 F 
ENDBRANCH  25  26
ENDBRANCH  23  25
ENDBRANCH   1  23
TORSDOF 8
ENDMDL
MODEL 3
REMARK VINA RESULT: -7.500708491      1.835      4.262
REMARK  8 active torsions:
REMARK  status: ('A' for Active; 'I' for Inactive)
REMARK    1  A    between atoms: C2_2  and  N1_3 
REMARK    2  A    between atoms: C2_2  and  C6_10 
REMARK    3  A    between atoms: N1_3  and  C3_6 
REMARK    4  A    between atoms: C6_10  and  C7_11 
REMARK    5  A    between atoms: C6_10  and  C16_23 
REMARK       I    between atoms: C7_11  and  N2_13 
REMARK    6  A    between atoms: N2_13  and  C8_15 
REMARK    7  A    between atoms: C16_23  and  S1_25 
REMARK    8  A    between atoms: S1_25  and  C17_26 
ROOT
HETATM    1  C6  UNL     1      29.888   1.706   6.220  1.00  0.00     0.189 C 
ENDROOT
BRANCH   1   2
HETATM    2  C2  UNL     1      30.058   0.377   5.552  1.00  0.00     0.207 C 
HETATM    3  C1  UNL     1      31.243  -0.424   5.978  1.00  0.00     0.041 C 
BRANCH   2   4
HETATM    4  N1  UNL     1      30.122   0.564   4.111  1.00  0.00    -0.034 N 
ATOM      5  H12 UNL     1      29.917   1.527   3.845  1.00  0.00     0.281 HD
ATOM      6  H11 UNL     1      31.079   0.509   3.765  1.00  0.00     0.281 HD
BRANCH   4   7
HETATM    7  C3  UNL     1      29.263  -0.364   3.443  1.00  0.00     0.258 C 
HETATM    8  C4  UNL     1      28.647   0.356   2.229  1.00  0.00     0.084 C 
HETATM    9  C5  UNL     1      30.022  -1.582   3.010  1.00  0.00     0.084 C 
HETATM   10  F1  UNL     1      28.180  -0.700   4.269  1.00  0.00    -0.212 F 
ENDBRANCH   4   7
ENDBRANCH   2   4
ENDBRANCH   1   2
BRANCH   1  11
HETATM   11  C7  UNL     1      29.116   2.676   5.413  1.00  0.00     0.232 C 
HETATM   12  O1  UNL     1      29.720   3.646   4.899  1.00  0.00    -0.273 OA
HETATM   13  N2  UNL     1      27.695   2.498   5.233  1.00  0.00    -0.355 N 
ATOM     14  H2  UNL     1      27.215   1.697   5.642  1.00  0.00     0.162 HD
BRANCH  13  15
HETATM   15  C8  UNL     1      26.968   3.477   4.461  1.00  0.00     0.089 C 
HETATM   16  C9  UNL     1      26.853   3.111   2.997  1.00  0.00     0.031 C 
HETATM   17  C10 UNL     1      25.356   3.183   2.847  1.00  0.00    -0.004 C 
HETATM   18  C11 UNL     1      24.992   2.280   4.038  1.00  0.00     0.012 C 
HETATM   19  C13 UNL     1      24.904   4.317   3.737  1.00  0.00    -0.038 C 
HETATM   20  C12 UNL     1      25.499   3.465   4.834  1.00  0.00     0.017 C 
HETATM   21  C14 UNL     1      25.527   5.661   3.500  1.00  0.00     0.015 C 
HETATM   22  C15 UNL     1      23.406   4.476   3.837  1.00  0.00     0.015 C 
ENDBRANCH  13  15
ENDBRANCH   1  11
BRANCH   1  23
HETATM   23  C16 UNL     1      29.469   1.659   7.636  1.00  0.00     0.209 C 
HETATM   24  O2  UNL     1      28.407   2.151   8.022  1.00  0.00    -0.284 OA
BRANCH  23  25
HETATM   25  S1  UNL     1      30.592   0.844   8.796  1.00  0.00     0.023 SA
BRANCH  25  26
HETATM   26  C17 UNL     1      29.638  -0.471   9.612  1.00  0.00     0.450 C 
HETATM   27  F2  UNL     1      28.472   0.054  10.162  1.00  0.00    -0.160 F 
HETATM   28  F3  UNL     1      30.359  -0.996  10.678  1.00  0.00    -0.160 F 
HETATM   29  F4  UNL     1      29.371  -1.437   8.667  1.00  0.00    -0.160 F 
ENDBRANCH  25  26
ENDBRANCH  23  25
ENDBRANCH   1  23
TORSDOF 8
ENDMDL
MODEL 4
REMARK VINA RESULT: -7.499548821      1.820      4.439
REMARK  8 active torsions:
REMARK  status: ('A' for Active; 'I' for Inactive)
REMARK    1  A    between atoms: C2_2  and  N1_3 
REMARK    2  A    between atoms: C2_2  and  C6_10 
REMARK    3  A    between atoms: N1_3  and  C3_6 
REMARK    4  A    between atoms: C6_10  and  C7_11 
REMARK    5  A    between atoms: C6_10  and  C16_23 
REMARK       I    between atoms: C7_11  and  N2_13 
REMARK    6  A    between atoms: N2_13  and  C8_15 
REMARK    7  A    between atoms: C16_23  and  S1_25 
REMARK    8  A    between atoms: S1_25  and  C17_26 
ROOT
HETATM    1  C6  UNL     1      29.865   1.719   5.841  1.00  0.00     0.189 C 
ENDROOT
BRANCH   1   2
HETATM    2  C2  UNL     1      29.965   0.437   5.072  1.00  0.00     0.207 C 
HETATM    3  C1  UNL     1      31.240  -0.323   5.229  1.00  0.00     0.041 C 
BRANCH   2   4
HETATM    4  N1  UNL     1      29.759   0.704   3.657  1.00  0.00    -0.034 N 
ATOM      5  H12 UNL     1      29.551   1.688   3.484  1.00  0.00     0.281 HD
ATOM      6  H11 UNL     1      30.629   0.636   3.129  1.00  0.00     0.281 HD
BRANCH   4   7
HETATM    7  C3  UNL     1      28.747  -0.154   3.124  1.00  0.00     0.258 C 
HETATM    8  C4  UNL     1      29.439  -1.422   2.593  1.00  0.00     0.084 C 
HETATM    9  C5  UNL     1      27.732  -0.501   4.172  1.00  0.00     0.084 C 
HETATM   10  F1  UNL     1      28.147   0.443   2.005  1.00  0.00    -0.212 F 
ENDBRANCH   4   7
ENDBRANCH   2   4
ENDBRANCH   1   2
BRANCH   1  11
HETATM   11  C7  UNL     1      29.022   2.738   5.178  1.00  0.00     0.232 C 
HETATM   12  O1  UNL     1      29.579   3.725   4.644  1.00  0.00    -0.273 OA
HETATM   13  N2  UNL     1      27.587   2.588   5.159  1.00  0.00    -0.355 N 
ATOM     14  H2  UNL     1      27.143   1.773   5.584  1.00  0.00     0.162 HD
BRANCH  13  15
HETATM   15  C8  UNL     1      26.792   3.613   4.527  1.00  0.00     0.089 C 
HETATM   16  C9  UNL     1      26.661   3.424   3.031  1.00  0.00     0.031 C 
HETATM   17  C10 UNL     1      25.159   3.434   2.917  1.00  0.00    -0.004 C 
HETATM   18  C11 UNL     1      24.870   2.373   3.993  1.00  0.00     0.012 C 
HETATM   19  C13 UNL     1      24.671   4.424   3.948  1.00  0.00    -0.038 C 
HETATM   20  C12 UNL     1      25.335   3.478   4.921  1.00  0.00     0.017 C 
HETATM   21  C14 UNL     1      25.219   5.818   3.868  1.00  0.00     0.015 C 
HETATM   22  C15 UNL     1      23.170   4.489   4.093  1.00  0.00     0.015 C 
ENDBRANCH  13  15
ENDBRANCH   1  11
BRANCH   1  23
HETATM   23  C16 UNL     1      29.584   1.576   7.284  1.00  0.00     0.209 C 
HETATM   24  O2  UNL     1      29.393   2.551   8.014  1.00  0.00    -0.284 OA
BRANCH  23  25
HETATM   25  S1  UNL     1      29.534  -0.106   7.946  1.00  0.00     0.023 SA
BRANCH  25  26
HETATM   26  C17 UNL     1      30.096  -0.007   9.672  1.00  0.00     0.450 C 
HETATM   27  F2  UNL     1      30.117  -1.277  10.243  1.00  0.00    -0.160 F 
HETATM   28  F3  UNL     1      29.199   0.736  10.429  1.00  0.00    -0.160 F 
HETATM   29  F4  UNL     1      31.346   0.575   9.668  1.00  0.00    -0.160 F 
ENDBRANCH  25  26
ENDBRANCH  23  25
ENDBRANCH   1  23
TORSDOF 8
ENDMDL
MODEL 5
REMARK VINA RESULT: -7.332621577      2.036      6.113
REMARK  8 active torsions:
REMARK  status: ('A' for Active; 'I' for Inactive)
REMARK    1  A    between atoms: C2_2  and  N1_3 
REMARK    2  A    between atoms: C2_2  and  C6_10 
REMARK    3  A    between atoms: N1_3  and  C3_6 
REMARK    4  A    between atoms: C6_10  and  C7_11 
REMARK    5  A    between atoms: C6_10  and  C16_23 
REMARK       I    between atoms: C7_11  and  N2_13 
REMARK    6  A    between atoms: N2_13  and  C8_15 
REMARK    7  A    between atoms: C16_23  and  S1_25 
REMARK    8  A    between atoms: S1_25  and  C17_26 
ROOT
HETATM    1  C6  UNL     1      28.915   1.531   3.807  1.00  0.00     0.189 C 
ENDROOT
BRANCH   1   2
HETATM    2  C2  UNL     1      27.966   2.689   3.843  1.00  0.00     0.207 C 
HETATM    3  C1  UNL     1      28.390   3.858   4.668  1.00  0.00     0.041 C 
BRANCH   2   4
HETATM    4  N1  UNL     1      26.668   2.236   4.319  1.00  0.00    -0.034 N 
ATOM      5  H12 UNL     1      26.622   1.219   4.382  1.00  0.00     0.281 HD
ATOM      6  H11 UNL     1      26.528   2.457   5.305  1.00  0.00     0.281 HD
BRANCH   4   7
HETATM    7  C3  UNL     1      25.619   2.765   3.503  1.00  0.00     0.258 C 
HETATM    8  C4  UNL     1      24.820   1.577   2.938  1.00  0.00     0.084 C 
HETATM    9  C5  UNL     1      24.729   3.675   4.297  1.00  0.00     0.084 C 
HETATM   10  F1  UNL     1      26.159   3.419   2.386  1.00  0.00    -0.212 F 
ENDBRANCH   4   7
ENDBRANCH   2   4
ENDBRANCH   1   2
BRANCH   1  11
HETATM   11  C7  UNL     1      28.893   0.713   5.039  1.00  0.00     0.232 C 
HETATM   12  O1  UNL     1      28.052  -0.212   5.132  1.00  0.00    -0.273 OA
HETATM   13  N2  UNL     1      29.823   0.989   6.107  1.00  0.00    -0.355 N 
ATOM     14  H2  UNL     1      30.513   1.735   6.016  1.00  0.00     0.162 HD
BRANCH  13  15
HETATM   15  C8  UNL     1      29.757   0.189   7.306  1.00  0.00     0.089 C 
HETATM   16  C9  UNL     1      31.094   0.050   8.000  1.00  0.00     0.031 C 
HETATM   17  C10 UNL     1      30.707   0.541   9.370  1.00  0.00    -0.004 C 
HETATM   18  C11 UNL     1      30.048   1.860   8.931  1.00  0.00     0.012 C 
HETATM   19  C13 UNL     1      29.293   0.062   9.600  1.00  0.00    -0.038 C 
HETATM   20  C12 UNL     1      28.991   0.918   8.392  1.00  0.00     0.017 C 
HETATM   21  C14 UNL     1      29.043  -1.411   9.474  1.00  0.00     0.015 C 
HETATM   22  C15 UNL     1      28.660   0.566  10.874  1.00  0.00     0.015 C 
ENDBRANCH  13  15
ENDBRANCH   1  11
BRANCH   1  23
HETATM   23  C16 UNL     1      28.890   0.725   2.569  1.00  0.00     0.209 C 
HETATM   24  O2  UNL     1      27.861   0.574   1.906  1.00  0.00    -0.284 OA
BRANCH  23  25
HETATM   25  S1  UNL     1      30.446  -0.043   2.060  1.00  0.00     0.023 SA
BRANCH  25  26
HETATM   26  C17 UNL     1      30.695  -1.488   3.134  1.00  0.00     0.450 C 
HETATM   27  F2  UNL     1      31.135  -1.082   4.390  1.00  0.00    -0.160 F 
HETATM   28  F3  UNL     1      31.699  -2.300   2.622  1.00  0.00    -0.160 F 
HETATM   29  F4  UNL     1      29.495  -2.163   3.203  1.00  0.00    -0.160 F 
ENDBRANCH  25  26
ENDBRANCH  23  25
ENDBRANCH   1  23
TORSDOF 8
ENDMDL
