MODEL 1
REMARK VINA RESULT: -5.819122442      0.000      0.000
REMARK  6 active torsions:
REMARK  status: ('A' for Active; 'I' for Inactive)
REMARK    1  A    between atoms: C2_2  and  C3_4 
REMARK    2  A    between atoms: C3_4  and  C4_6 
REMARK    3  A    between atoms: C4_6  and  C5_7 
REMARK    4  A    between atoms: C12_22  and  C14_24 
REMARK    5  A    between atoms: C14_24  and  C15_25 
REMARK    6  A    between atoms: C15_25  and  C16_26 
ROOT
HETATM    1  C4  UNL     1      27.824   1.438   4.545  1.00  0.00     0.137 C 
HETATM    2  N2  UNL     1      28.066   0.115   3.969  1.00  0.00    -0.386 N 
ATOM      3  H2  UNL     1      27.498  -0.682   4.255  1.00  0.00     0.155 HD
HETATM    4  C8  UNL     1      29.077  -0.048   3.028  1.00  0.00     0.108 A 
HETATM    5  C9  UNL     1      28.946  -1.034   1.880  1.00  0.00     0.043 A 
HETATM    6  C10 UNL     1      29.727  -1.466   3.031  1.00  0.00     0.043 A 
HETATM    7  C11 UNL     1      30.112   1.004   2.962  1.00  0.00     0.246 C 
HETATM    8  O1  UNL     1      31.222   0.858   2.365  1.00  0.00    -0.271 OA
HETATM    9  N3  UNL     1      29.819   2.227   3.607  1.00  0.00    -0.344 N 
ATOM     10  H3  UNL     1      30.523   2.843   4.015  1.00  0.00     0.163 HD
HETATM   11  C12 UNL     1      28.351   2.508   3.616  1.00  0.00     0.081 C 
HETATM   12  C13 UNL     1      27.760   2.337   2.227  1.00  0.00     0.046 C 
ENDROOT
BRANCH   1  13
HETATM   13  C3  UNL     1      26.373   1.628   4.800  1.00  0.00     0.225 C 
HETATM   14  F1  UNL     1      25.737   0.330   4.796  1.00  0.00    -0.245 F 
BRANCH  13  15
HETATM   15  C2  UNL     1      25.570   2.307   3.717  1.00  0.00     0.115 C 
HETATM   16  C1  UNL     1      24.522   3.125   4.468  1.00  0.00     0.030 C 
HETATM   17 CL1  UNL     1      24.772   1.307   2.557  1.00  0.00    -0.122 Cl
ENDBRANCH  13  15
ENDBRANCH   1  13
BRANCH   1  18
HETATM   18  C5  UNL     1      28.599   1.409   5.816  1.00  0.00     0.084 A 
HETATM   19  N1  UNL     1      28.700   2.319   6.764  1.00  0.00    -0.361 N 
HETATM   20  C6  UNL     1      29.440   2.131   7.815  1.00  0.00     0.096 A 
ATOM     21  H1  UNL     1      28.182   3.193   6.671  1.00  0.00     0.165 HD
HETATM   22  C7  UNL     1      30.117   0.939   7.895  1.00  0.00     0.068 A 
HETATM   23  S1  UNL     1      29.635   0.177   6.451  1.00  0.00    -0.085 SA
ENDBRANCH   1  18
BRANCH  11  24
HETATM   24  C14 UNL     1      28.170   3.896   4.010  1.00  0.00     0.011 C 
BRANCH  24  25
HETATM   25  C15 UNL     1      27.792   4.954   3.062  1.00  0.00     0.087 C 
BRANCH  25  26
HETATM   26  C16 UNL     1      27.021   6.161   3.381  1.00  0.00     0.407 C 
HETATM   27  F2  UNL     1      26.228   6.716   2.438  1.00  0.00    -0.167 F 
HETATM   28  F3  UNL     1      26.110   5.763   4.404  1.00  0.00    -0.167 F 
HETATM   29  F4  UNL     1      27.805   7.121   4.032  1.00  0.00    -0.167 F 
ENDBRANCH  25  26
ENDBRANCH  24  25
ENDBRANCH  11  24
TORSDOF 6
ENDMDL
MODEL 2
REMARK VINA RESULT: -5.219921084      2.975      4.867
REMARK  6 active torsions:
REMARK  status: ('A' for Active; 'I' for Inactive)
REMARK    1  A    between atoms: C2_2  and  C3_4 
REMARK    2  A    between atoms: C3_4  and  C4_6 
REMARK    3  A    between atoms: C4_6  and  C5_7 
REMARK    4  A    between atoms: C12_22  and  C14_24 
REMARK    5  A    between atoms: C14_24  and  C15_25 
REMARK    6  A    between atoms: C15_25  and  C16_26 
ROOT
HETATM    1  C4  UNL     1      28.167   2.568   3.794  1.00  0.00     0.137 C 
HETATM    2  N2  UNL     1      28.603   1.847   2.597  1.00  0.00    -0.386 N 
ATOM      3  H2  UNL     1      28.624   2.318   1.693  1.00  0.00     0.155 HD
HETATM    4  C8  UNL     1      28.989   0.516   2.703  1.00  0.00     0.108 A 
HETATM    5  C9  UNL     1      30.097  -0.064   1.840  1.00  0.00     0.043 A 
HETATM    6  C10 UNL     1      28.728  -0.327   1.416  1.00  0.00     0.043 A 
HETATM    7  C11 UNL     1      28.555  -0.218   3.909  1.00  0.00     0.246 C 
HETATM    8  O1  UNL     1      28.590  -1.483   4.009  1.00  0.00    -0.271 OA
HETATM    9  N3  UNL     1      28.082   0.558   4.991  1.00  0.00    -0.344 N 
ATOM     10  H3  UNL     1      27.385   0.238   5.664  1.00  0.00     0.163 HD
HETATM   11  C12 UNL     1      28.730   1.905   5.029  1.00  0.00     0.081 C 
HETATM   12  C13 UNL     1      30.241   1.780   4.918  1.00  0.00     0.046 C 
ENDROOT
BRANCH   1  13
HETATM   13  C3  UNL     1      28.589   3.990   3.718  1.00  0.00     0.225 C 
HETATM   14  F1  UNL     1      28.749   4.489   5.064  1.00  0.00    -0.245 F 
BRANCH  13  15
HETATM   15  C2  UNL     1      27.573   4.979   3.200  1.00  0.00     0.115 C 
HETATM   16  C1  UNL     1      27.963   5.206   1.741  1.00  0.00     0.030 C 
HETATM   17 CL1  UNL     1      27.461   6.510   3.992  1.00  0.00    -0.122 Cl
ENDBRANCH  13  15
ENDBRANCH   1  13
BRANCH   1  18
HETATM   18  C5  UNL     1      26.683   2.441   3.751  1.00  0.00     0.084 A 
HETATM   19  N1  UNL     1      25.774   2.877   4.601  1.00  0.00    -0.361 N 
HETATM   20  C6  UNL     1      24.507   2.663   4.412  1.00  0.00     0.096 A 
ATOM     21  H1  UNL     1      26.074   3.394   5.427  1.00  0.00     0.165 HD
HETATM   22  C7  UNL     1      24.153   1.962   3.287  1.00  0.00     0.068 A 
HETATM   23  S1  UNL     1      25.673   1.662   2.582  1.00  0.00    -0.085 SA
ENDBRANCH   1  18
BRANCH  11  24
HETATM   24  C14 UNL     1      28.426   2.504   6.319  1.00  0.00     0.011 C 
BRANCH  24  25
HETATM   25  C15 UNL     1      29.363   2.483   7.451  1.00  0.00     0.087 C 
BRANCH  25  26
HETATM   26  C16 UNL     1      29.591   1.353   8.359  1.00  0.00     0.407 C 
HETATM   27  F2  UNL     1      29.489   0.089   7.891  1.00  0.00    -0.167 F 
HETATM   28  F3  UNL     1      30.958   1.462   8.754  1.00  0.00    -0.167 F 
HETATM   29  F4  UNL     1      28.913   1.515   9.572  1.00  0.00    -0.167 F 
ENDBRANCH  25  26
ENDBRANCH  24  25
ENDBRANCH  11  24
TORSDOF 6
ENDMDL
MODEL 3
REMARK VINA RESULT: -3.452119958      2.939      4.778
REMARK  6 active torsions:
REMARK  status: ('A' for Active; 'I' for Inactive)
REMARK    1  A    between atoms: C2_2  and  C3_4 
REMARK    2  A    between atoms: C3_4  and  C4_6 
REMARK    3  A    between atoms: C4_6  and  C5_7 
REMARK    4  A    between atoms: C12_22  and  C14_24 
REMARK    5  A    between atoms: C14_24  and  C15_25 
REMARK    6  A    between atoms: C15_25  and  C16_26 
ROOT
HETATM    1  C4  UNL     1      26.445   2.551   4.027  1.00  0.00     0.137 C 
HETATM    2  N2  UNL     1      27.357   2.343   5.151  1.00  0.00    -0.386 N 
ATOM      3  H2  UNL     1      27.133   2.722   6.072  1.00  0.00     0.155 HD
HETATM    4  C8  UNL     1      28.532   1.625   4.956  1.00  0.00     0.108 A 
HETATM    5  C9  UNL     1      29.109   0.733   6.042  1.00  0.00     0.043 A 
HETATM    6  C10 UNL     1      29.703   2.055   5.893  1.00  0.00     0.043 A 
HETATM    7  C11 UNL     1      29.002   1.466   3.566  1.00  0.00     0.246 C 
HETATM    8  O1  UNL     1      30.175   1.089   3.262  1.00  0.00    -0.271 OA
HETATM    9  N3  UNL     1      28.072   1.757   2.542  1.00  0.00    -0.344 N 
ATOM     10  H3  UNL     1      28.327   2.108   1.619  1.00  0.00     0.163 HD
HETATM   11  C12 UNL     1      26.668   1.486   2.979  1.00  0.00     0.081 C 
HETATM   12  C13 UNL     1      26.554   0.103   3.600  1.00  0.00     0.046 C 
ENDROOT
BRANCH   1  13
HETATM   13  C3  UNL     1      25.037   2.541   4.500  1.00  0.00     0.225 C 
HETATM   14  F1  UNL     1      24.172   2.395   3.352  1.00  0.00    -0.245 F 
BRANCH  13  15
HETATM   15  C2  UNL     1      24.495   3.833   5.063  1.00  0.00     0.115 C 
HETATM   16  C1  UNL     1      24.035   3.476   6.474  1.00  0.00     0.030 C 
HETATM   17 CL1  UNL     1      23.188   4.592   4.226  1.00  0.00    -0.122 Cl
ENDBRANCH  13  15
ENDBRANCH   1  13
BRANCH   1  18
HETATM   18  C5  UNL     1      26.833   3.894   3.511  1.00  0.00     0.084 A 
HETATM   19  N1  UNL     1      26.406   4.545   2.447  1.00  0.00    -0.361 N 
HETATM   20  C6  UNL     1      26.868   5.718   2.135  1.00  0.00     0.096 A 
ATOM     21  H1  UNL     1      25.695   4.116   1.854  1.00  0.00     0.165 HD
HETATM   22  C7  UNL     1      27.823   6.252   2.963  1.00  0.00     0.068 A 
HETATM   23  S1  UNL     1      27.986   5.026   4.131  1.00  0.00    -0.085 SA
ENDBRANCH   1  18
BRANCH  11  24
HETATM   24  C14 UNL     1      25.825   1.513   1.794  1.00  0.00     0.011 C 
BRANCH  24  25
HETATM   25  C15 UNL     1      24.569   0.757   1.688  1.00  0.00     0.087 C 
BRANCH  25  26
HETATM   26  C16 UNL     1      23.939   0.302   0.443  1.00  0.00     0.407 C 
HETATM   27  F2  UNL     1      23.356  -0.916   0.395  1.00  0.00    -0.167 F 
HETATM   28  F3  UNL     1      22.859   1.208   0.219  1.00  0.00    -0.167 F 
HETATM   29  F4  UNL     1      24.759   0.530  -0.668  1.00  0.00    -0.167 F 
ENDBRANCH  25  26
ENDBRANCH  24  25
ENDBRANCH  11  24
TORSDOF 6
ENDMDL
MODEL 4
REMARK VINA RESULT: -3.409941955      0.822      1.184
REMARK  6 active torsions:
REMARK  status: ('A' for Active; 'I' for Inactive)
REMARK    1  A    between atoms: C2_2  and  C3_4 
REMARK    2  A    between atoms: C3_4  and  C4_6 
REMARK    3  A    between atoms: C4_6  and  C5_7 
REMARK    4  A    between atoms: C12_22  and  C14_24 
REMARK    5  A    between atoms: C14_24  and  C15_25 
REMARK    6  A    between atoms: C15_25  and  C16_26 
ROOT
HETATM    1  C4  UNL     1      27.628   1.185   4.205  1.00  0.00     0.137 C 
HETATM    2  N2  UNL     1      28.207  -0.155   4.098  1.00  0.00    -0.386 N 
ATOM      3  H2  UNL     1      27.876  -0.907   4.702  1.00  0.00     0.155 HD
HETATM    4  C8  UNL     1      29.212  -0.394   3.167  1.00  0.00     0.108 A 
HETATM    5  C9  UNL     1      29.333  -1.729   2.451  1.00  0.00     0.043 A 
HETATM    6  C10 UNL     1      30.217  -1.511   3.589  1.00  0.00     0.043 A 
HETATM    7  C11 UNL     1      29.927   0.781   2.630  1.00  0.00     0.246 C 
HETATM    8  O1  UNL     1      31.027   0.704   2.003  1.00  0.00    -0.271 OA
HETATM    9  N3  UNL     1      29.327   2.043   2.841  1.00  0.00    -0.344 N 
ATOM     10  H3  UNL     1      29.847   2.916   2.933  1.00  0.00     0.163 HD
HETATM   11  C12 UNL     1      27.837   1.940   2.913  1.00  0.00     0.081 C 
HETATM   12  C13 UNL     1      27.295   1.140   1.740  1.00  0.00     0.046 C 
ENDROOT
BRANCH   1  13
HETATM   13  C3  UNL     1      26.182   1.093   4.535  1.00  0.00     0.225 C 
HETATM   14  F1  UNL     1      25.666  -0.136   3.981  1.00  0.00    -0.245 F 
BRANCH  13  15
HETATM   15  C2  UNL     1      25.262   2.082   3.860  1.00  0.00     0.115 C 
HETATM   16  C1  UNL     1      24.573   2.815   5.008  1.00  0.00     0.030 C 
HETATM   17 CL1  UNL     1      24.056   1.460   2.791  1.00  0.00    -0.122 Cl
ENDBRANCH  13  15
ENDBRANCH   1  13
BRANCH   1  18
HETATM   18  C5  UNL     1      28.400   1.807   5.316  1.00  0.00     0.084 A 
HETATM   19  N1  UNL     1      28.471   3.069   5.690  1.00  0.00    -0.361 N 
HETATM   20  C6  UNL     1      29.214   3.444   6.689  1.00  0.00     0.096 A 
ATOM     21  H1  UNL     1      27.929   3.769   5.184  1.00  0.00     0.165 HD
HETATM   22  C7  UNL     1      29.925   2.465   7.337  1.00  0.00     0.068 A 
HETATM   23  S1  UNL     1      29.470   1.078   6.464  1.00  0.00    -0.085 SA
ENDBRANCH   1  18
BRANCH  11  24
HETATM   24  C14 UNL     1      27.298   3.288   2.820  1.00  0.00     0.011 C 
BRANCH  24  25
HETATM   25  C15 UNL     1      27.996   4.468   3.351  1.00  0.00     0.087 C 
BRANCH  25  26
HETATM   26  C16 UNL     1      27.396   5.783   3.601  1.00  0.00     0.407 C 
HETATM   27  F2  UNL     1      28.182   6.816   3.977  1.00  0.00    -0.167 F 
HETATM   28  F3  UNL     1      26.866   6.196   2.342  1.00  0.00    -0.167 F 
HETATM   29  F4  UNL     1      26.247   5.689   4.395  1.00  0.00    -0.167 F 
ENDBRANCH  25  26
ENDBRANCH  24  25
ENDBRANCH  11  24
TORSDOF 6
ENDMDL
MODEL 5
REMARK VINA RESULT: -3.291410181      2.970      4.702
REMARK  6 active torsions:
REMARK  status: ('A' for Active; 'I' for Inactive)
REMARK    1  A    between atoms: C2_2  and  C3_4 
REMARK    2  A    between atoms: C3_4  and  C4_6 
REMARK    3  A    between atoms: C4_6  and  C5_7 
REMARK    4  A    between atoms: C12_22  and  C14_24 
REMARK    5  A    between atoms: C14_24  and  C15_25 
REMARK    6  A    between atoms: C15_25  and  C16_26 
ROOT
HETATM    1  C4  UNL     1      26.506   2.573   2.939  1.00  0.00     0.137 C 
HETATM    2  N2  UNL     1      27.881   2.196   2.609  1.00  0.00    -0.386 N 
ATOM      3  H2  UNL     1      28.384   2.685   1.868  1.00  0.00     0.155 HD
HETATM    4  C8  UNL     1      28.496   1.166   3.312  1.00  0.00     0.108 A 
HETATM    5  C9  UNL     1      29.984   1.190   3.620  1.00  0.00     0.043 A 
HETATM    6  C10 UNL     1      29.561   0.379   2.486  1.00  0.00     0.043 A 
HETATM    7  C11 UNL     1      27.619   0.241   4.056  1.00  0.00     0.246 C 
HETATM    8  O1  UNL     1      28.005  -0.883   4.502  1.00  0.00    -0.271 OA
HETATM    9  N3  UNL     1      26.286   0.658   4.269  1.00  0.00    -0.344 N 
ATOM     10  H3  UNL     1      25.493   0.022   4.355  1.00  0.00     0.163 HD
HETATM   11  C12 UNL     1      26.181   2.147   4.352  1.00  0.00     0.081 C 
HETATM   12  C13 UNL     1      27.210   2.707   5.321  1.00  0.00     0.046 C 
ENDROOT
BRANCH   1  13
HETATM   13  C3  UNL     1      26.322   4.038   2.773  1.00  0.00     0.225 C 
HETATM   14  F1  UNL     1      26.476   4.359   1.373  1.00  0.00    -0.245 F 
BRANCH  13  15
HETATM   15  C2  UNL     1      27.390   4.932   3.357  1.00  0.00     0.115 C 
HETATM   16  C1  UNL     1      26.642   6.184   3.806  1.00  0.00     0.030 C 
HETATM   17 CL1  UNL     1      28.698   5.402   2.331  1.00  0.00    -0.122 Cl
ENDBRANCH  13  15
ENDBRANCH   1  13
BRANCH   1  18
HETATM   18  C5  UNL     1      25.692   1.809   1.953  1.00  0.00     0.084 A 
HETATM   19  N1  UNL     1      25.967   1.479   0.707  1.00  0.00    -0.361 N 
HETATM   20  C6  UNL     1      25.125   0.812  -0.023  1.00  0.00     0.096 A 
ATOM     21  H1  UNL     1      26.863   1.755   0.306  1.00  0.00     0.165 HD
HETATM   22  C7  UNL     1      23.932   0.464   0.561  1.00  0.00     0.068 A 
HETATM   23  S1  UNL     1      24.112   1.123   2.119  1.00  0.00    -0.085 SA
ENDBRANCH   1  18
BRANCH  11  24
HETATM   24  C14 UNL     1      24.861   2.468   4.871  1.00  0.00     0.011 C 
BRANCH  24  25
HETATM   25  C15 UNL     1      24.344   3.842   4.950  1.00  0.00     0.087 C 
BRANCH  25  26
HETATM   26  C16 UNL     1      23.355   4.443   4.047  1.00  0.00     0.407 C 
HETATM   27  F2  UNL     1      23.216   3.961   2.793  1.00  0.00    -0.167 F 
HETATM   28  F3  UNL     1      22.090   4.186   4.656  1.00  0.00    -0.167 F 
HETATM   29  F4  UNL     1      23.419   5.841   4.064  1.00  0.00    -0.167 F 
ENDBRANCH  25  26
ENDBRANCH  24  25
ENDBRANCH  11  24
TORSDOF 6
ENDMDL
