MODEL 1
REMARK VINA RESULT: -8.855168664      0.000      0.000
REMARK  6 active torsions:
REMARK  status: ('A' for Active; 'I' for Inactive)
REMARK    1  A    between atoms: C2_2  and  O1_3 
REMARK    2  A    between atoms: C2_2  and  C8_10 
REMARK    3  A    between atoms: O1_3  and  C3_4 
REMARK    4  A    between atoms: C3_4  and  C4_5 
REMARK    5  A    between atoms: C11_13  and  N1_14 
REMARK    6  A    between atoms: N1_14  and  C12_16 
ROOT
HETATM    1  C8  UNL     1      27.616   2.260   3.649  1.00  0.00     0.028 C 
HETATM    2  C9  UNL     1      28.277   3.607   3.955  1.00  0.00     0.010 C 
HETATM    3  C10 UNL     1      29.404   3.356   4.902  1.00  0.00     0.027 C 
HETATM    4  C11 UNL     1      28.936   2.072   5.536  1.00  0.00     0.111 C 
HETATM    5  C16 UNL     1      28.472   1.312   4.312  1.00  0.00     0.018 C 
HETATM    6  C17 UNL     1      29.684   0.999   3.398  1.00  0.00     0.023 C 
HETATM    7  C18 UNL     1      29.022   0.159   2.315  1.00  0.00     0.010 C 
HETATM    8  C19 UNL     1      28.132  -0.708   3.141  1.00  0.00     0.033 C 
HETATM    9  C20 UNL     1      28.166  -0.102   4.518  1.00  0.00     0.133 C 
HETATM   10  O3  UNL     1      29.416  -0.535   5.060  1.00  0.00    -0.385 OA
HETATM   11  C21 UNL     1      30.394  -0.049   4.225  1.00  0.00     0.173 C 
ENDROOT
BRANCH   4  12
HETATM   12  N1  UNL     1      29.830   1.444   6.393  1.00  0.00    -0.221 N 
ATOM     13  H1  UNL     1      30.719   1.153   5.987  1.00  0.00     0.178 HD
BRANCH  12  14
HETATM   14  C12 UNL     1      29.661   1.189   7.642  1.00  0.00     0.678 A 
HETATM   15  N2  UNL     1      28.869   1.965   8.423  1.00  0.00    -0.201 N 
HETATM   16  C13 UNL     1      28.653   1.751   9.728  1.00  0.00     0.126 A 
ATOM     17  H2  UNL     1      28.408   2.764   7.988  1.00  0.00     0.183 HD
HETATM   18  C14 UNL     1      29.282   0.667  10.305  1.00  0.00     0.042 A 
HETATM   19 BR1  UNL     1      29.024   0.294  12.163  1.00  0.00    -0.048 Br
HETATM   20  C15 UNL     1      30.085  -0.117   9.506  1.00  0.00     0.126 A 
HETATM   21  N3  UNL     1      30.279   0.131   8.190  1.00  0.00    -0.201 N 
ATOM     22  H3  UNL     1      30.881  -0.471   7.627  1.00  0.00     0.183 HD
ENDBRANCH  12  14
ENDBRANCH   4  12
BRANCH   1  23
HETATM   23  C2  UNL     1      26.154   2.351   3.815  1.00  0.00     0.122 C 
HETATM   24  C1  UNL     1      25.305   2.198   2.571  1.00  0.00     0.040 C 
BRANCH  23  25
HETATM   25  O1  UNL     1      25.687   3.466   4.416  1.00  0.00    -0.385 OA
BRANCH  25  26
HETATM   26  C3  UNL     1      25.121   4.503   3.826  1.00  0.00     0.174 C 
BRANCH  26  27
HETATM   27  C4  UNL     1      25.248   5.886   4.306  1.00  0.00     0.035 C 
HETATM   28  C5  UNL     1      24.199   6.892   4.037  1.00  0.00     0.035 C 
HETATM   29  C6  UNL     1      24.492   7.191   2.550  1.00  0.00     0.168 C 
HETATM   30  O2  UNL     1      25.856   7.319   2.561  1.00  0.00    -0.391 OA
HETATM   31  C7  UNL     1      26.417   6.523   3.526  1.00  0.00     0.174 C 
ENDBRANCH  26  27
ENDBRANCH  25  26
ENDBRANCH  23  25
ENDBRANCH   1  23
TORSDOF 6
ENDMDL
MODEL 2
REMARK VINA RESULT: -8.711079977      1.079      1.503
REMARK  6 active torsions:
REMARK  status: ('A' for Active; 'I' for Inactive)
REMARK    1  A    between atoms: C2_2  and  O1_3 
REMARK    2  A    between atoms: C2_2  and  C8_10 
REMARK    3  A    between atoms: O1_3  and  C3_4 
REMARK    4  A    between atoms: C3_4  and  C4_5 
REMARK    5  A    between atoms: C11_13  and  N1_14 
REMARK    6  A    between atoms: N1_14  and  C12_16 
ROOT
HETATM    1  C8  UNL     1      27.893   2.184   3.497  1.00  0.00     0.028 C 
HETATM    2  C9  UNL     1      28.597   3.503   3.828  1.00  0.00     0.010 C 
HETATM    3  C10 UNL     1      29.657   3.211   4.839  1.00  0.00     0.027 C 
HETATM    4  C11 UNL     1      29.097   1.956   5.456  1.00  0.00     0.111 C 
HETATM    5  C16 UNL     1      28.667   1.205   4.215  1.00  0.00     0.018 C 
HETATM    6  C17 UNL     1      29.912   0.828   3.372  1.00  0.00     0.023 C 
HETATM    7  C18 UNL     1      29.273   0.007   2.261  1.00  0.00     0.010 C 
HETATM    8  C19 UNL     1      28.299  -0.810   3.043  1.00  0.00     0.033 C 
HETATM    9  C20 UNL     1      28.285  -0.191   4.415  1.00  0.00     0.133 C 
HETATM   10  O3  UNL     1      29.482  -0.674   5.030  1.00  0.00    -0.385 OA
HETATM   11  C21 UNL     1      30.526  -0.242   4.247  1.00  0.00     0.173 C 
ENDROOT
BRANCH   4  12
HETATM   12  N1  UNL     1      29.912   1.299   6.367  1.00  0.00    -0.221 N 
ATOM     13  H1  UNL     1      30.791   0.930   6.005  1.00  0.00     0.178 HD
BRANCH  12  14
HETATM   14  C12 UNL     1      29.681   1.102   7.616  1.00  0.00     0.678 A 
HETATM   15  N2  UNL     1      28.926   1.964   8.342  1.00  0.00    -0.201 N 
HETATM   16  C13 UNL     1      28.649   1.814   9.644  1.00  0.00     0.126 A 
ATOM     17  H2  UNL     1      28.543   2.780   7.864  1.00  0.00     0.183 HD
HETATM   18  C14 UNL     1      29.172   0.707  10.281  1.00  0.00     0.042 A 
HETATM   19 BR1  UNL     1      28.824   0.422  12.139  1.00  0.00    -0.048 Br
HETATM   20  C15 UNL     1      29.939  -0.165   9.538  1.00  0.00     0.126 A 
HETATM   21  N3  UNL     1      30.197   0.021   8.222  1.00  0.00    -0.201 N 
ATOM     22  H3  UNL     1      30.768  -0.646   7.702  1.00  0.00     0.183 HD
ENDBRANCH  12  14
ENDBRANCH   4  12
BRANCH   1  23
HETATM   23  C2  UNL     1      26.429   2.342   3.580  1.00  0.00     0.122 C 
HETATM   24  C1  UNL     1      25.579   1.199   3.068  1.00  0.00     0.040 C 
BRANCH  23  25
HETATM   25  O1  UNL     1      25.912   3.445   2.998  1.00  0.00    -0.385 OA
BRANCH  25  26
HETATM   26  C3  UNL     1      25.703   4.616   3.571  1.00  0.00     0.174 C 
BRANCH  26  27
HETATM   27  C4  UNL     1      24.635   4.868   4.549  1.00  0.00     0.035 C 
HETATM   28  C5  UNL     1      23.823   3.764   5.101  1.00  0.00     0.035 C 
HETATM   29  C6  UNL     1      22.899   3.485   3.895  1.00  0.00     0.168 C 
HETATM   30  O2  UNL     1      22.532   4.755   3.532  1.00  0.00    -0.391 OA
HETATM   31  C7  UNL     1      23.531   5.653   3.811  1.00  0.00     0.174 C 
ENDBRANCH  26  27
ENDBRANCH  25  26
ENDBRANCH  23  25
ENDBRANCH   1  23
TORSDOF 6
ENDMDL
MODEL 3
REMARK VINA RESULT: -8.337083024      1.069      1.274
REMARK  6 active torsions:
REMARK  status: ('A' for Active; 'I' for Inactive)
REMARK    1  A    between atoms: C2_2  and  O1_3 
REMARK    2  A    between atoms: C2_2  and  C8_10 
REMARK    3  A    between atoms: O1_3  and  C3_4 
REMARK    4  A    between atoms: C3_4  and  C4_5 
REMARK    5  A    between atoms: C11_13  and  N1_14 
REMARK    6  A    between atoms: N1_14  and  C12_16 
ROOT
HETATM    1  C8  UNL     1      27.453   1.703   3.277  1.00  0.00     0.028 C 
HETATM    2  C9  UNL     1      27.737   3.183   3.553  1.00  0.00     0.010 C 
HETATM    3  C10 UNL     1      28.848   3.255   4.549  1.00  0.00     0.027 C 
HETATM    4  C11 UNL     1      28.693   1.913   5.216  1.00  0.00     0.111 C 
HETATM    5  C16 UNL     1      28.492   1.025   4.008  1.00  0.00     0.018 C 
HETATM    6  C17 UNL     1      29.782   1.004   3.149  1.00  0.00     0.023 C 
HETATM    7  C18 UNL     1      29.403  -0.007   2.078  1.00  0.00     0.010 C 
HETATM    8  C19 UNL     1      28.727  -1.049   2.905  1.00  0.00     0.033 C 
HETATM    9  C20 UNL     1      28.544  -0.414   4.257  1.00  0.00     0.133 C 
HETATM   10  O3  UNL     1      29.838  -0.498   4.860  1.00  0.00    -0.385 OA
HETATM   11  C21 UNL     1      30.698   0.197   4.042  1.00  0.00     0.173 C 
ENDROOT
BRANCH   4  12
HETATM   12  N1  UNL     1      29.677   1.559   6.128  1.00  0.00    -0.221 N 
ATOM     13  H1  UNL     1      30.628   1.492   5.765  1.00  0.00     0.178 HD
BRANCH  12  14
HETATM   14  C12 UNL     1      29.524   1.306   7.379  1.00  0.00     0.678 A 
HETATM   15  N2  UNL     1      28.772   2.105   8.177  1.00  0.00    -0.201 N 
HETATM   16  C13 UNL     1      28.573   1.896   9.485  1.00  0.00     0.126 A 
ATOM     17  H2  UNL     1      28.329   2.920   7.752  1.00  0.00     0.183 HD
HETATM   18  C14 UNL     1      29.177   0.790  10.049  1.00  0.00     0.042 A 
HETATM   19 BR1  UNL     1      28.942   0.421  11.910  1.00  0.00    -0.048 Br
HETATM   20  C15 UNL     1      29.940  -0.018   9.233  1.00  0.00     0.126 A 
HETATM   21  N3  UNL     1      30.117   0.228   7.913  1.00  0.00    -0.201 N 
ATOM     22  H3  UNL     1      30.688  -0.393   7.339  1.00  0.00     0.183 HD
ENDBRANCH  12  14
ENDBRANCH   4  12
BRANCH   1  23
HETATM   23  C2  UNL     1      26.010   1.423   3.387  1.00  0.00     0.122 C 
HETATM   24  C1  UNL     1      25.227   1.303   2.097  1.00  0.00     0.040 C 
BRANCH  23  25
HETATM   25  O1  UNL     1      25.291   2.275   4.150  1.00  0.00    -0.385 OA
BRANCH  25  26
HETATM   26  C3  UNL     1      24.058   2.690   3.921  1.00  0.00     0.174 C 
BRANCH  26  27
HETATM   27  C4  UNL     1      23.444   3.840   4.601  1.00  0.00     0.035 C 
HETATM   28  C5  UNL     1      22.711   4.876   3.846  1.00  0.00     0.035 C 
HETATM   29  C6  UNL     1      23.898   5.648   3.229  1.00  0.00     0.168 C 
HETATM   30  O2  UNL     1      24.736   5.767   4.307  1.00  0.00    -0.391 OA
HETATM   31  C7  UNL     1      24.600   4.699   5.156  1.00  0.00     0.174 C 
ENDBRANCH  26  27
ENDBRANCH  25  26
ENDBRANCH  23  25
ENDBRANCH   1  23
TORSDOF 6
ENDMDL
MODEL 4
REMARK VINA RESULT: -7.261386311      1.356      1.957
REMARK  6 active torsions:
REMARK  status: ('A' for Active; 'I' for Inactive)
REMARK    1  A    between atoms: C2_2  and  O1_3 
REMARK    2  A    between atoms: C2_2  and  C8_10 
REMARK    3  A    between atoms: O1_3  and  C3_4 
REMARK    4  A    between atoms: C3_4  and  C4_5 
REMARK    5  A    between atoms: C11_13  and  N1_14 
REMARK    6  A    between atoms: N1_14  and  C12_16 
ROOT
HETATM    1  C8  UNL     1      28.472   2.520   3.418  1.00  0.00     0.028 C 
HETATM    2  C9  UNL     1      29.144   3.603   4.268  1.00  0.00     0.010 C 
HETATM    3  C10 UNL     1      29.820   2.927   5.414  1.00  0.00     0.027 C 
HETATM    4  C11 UNL     1      29.002   1.665   5.499  1.00  0.00     0.111 C 
HETATM    5  C16 UNL     1      28.912   1.296   4.034  1.00  0.00     0.018 C 
HETATM    6  C17 UNL     1      30.321   0.937   3.496  1.00  0.00     0.023 C 
HETATM    7  C18 UNL     1      29.988   0.502   2.076  1.00  0.00     0.010 C 
HETATM    8  C19 UNL     1      28.762  -0.315   2.315  1.00  0.00     0.033 C 
HETATM    9  C20 UNL     1      28.380  -0.034   3.743  1.00  0.00     0.133 C 
HETATM   10  O3  UNL     1      29.291  -0.823   4.512  1.00  0.00    -0.385 OA
HETATM   11  C21 UNL     1      30.555  -0.387   4.189  1.00  0.00     0.173 C 
ENDROOT
BRANCH   4  12
HETATM   12  N1  UNL     1      29.448   0.699   6.389  1.00  0.00    -0.221 N 
ATOM     13  H1  UNL     1      29.932  -0.102   5.984  1.00  0.00     0.178 HD
BRANCH  12  14
HETATM   14  C12 UNL     1      29.318   0.701   7.668  1.00  0.00     0.678 A 
HETATM   15  N2  UNL     1      29.743  -0.341   8.425  1.00  0.00    -0.201 N 
HETATM   16  C13 UNL     1      29.638  -0.398   9.760  1.00  0.00     0.126 A 
ATOM     17  H2  UNL     1      30.172  -1.134   7.947  1.00  0.00     0.183 HD
HETATM   18  C14 UNL     1      29.058   0.680  10.397  1.00  0.00     0.042 A 
HETATM   19 BR1  UNL     1      28.871   0.675  12.300  1.00  0.00    -0.048 Br
HETATM   20  C15 UNL     1      28.628   1.735   9.622  1.00  0.00     0.126 A 
HETATM   21  N3  UNL     1      28.752   1.756   8.274  1.00  0.00    -0.201 N 
ATOM     22  H3  UNL     1      28.423   2.555   7.731  1.00  0.00     0.183 HD
ENDBRANCH  12  14
ENDBRANCH   4  12
BRANCH   1  23
HETATM   23  C2  UNL     1      27.070   2.877   3.136  1.00  0.00     0.122 C 
HETATM   24  C1  UNL     1      26.775   4.328   2.823  1.00  0.00     0.040 C 
BRANCH  23  25
HETATM   25  O1  UNL     1      26.164   2.536   4.078  1.00  0.00    -0.385 OA
BRANCH  25  26
HETATM   26  C3  UNL     1      24.908   2.182   3.874  1.00  0.00     0.174 C 
BRANCH  26  27
HETATM   27  C4  UNL     1      23.768   2.766   4.595  1.00  0.00     0.035 C 
HETATM   28  C5  UNL     1      22.722   3.532   3.885  1.00  0.00     0.035 C 
HETATM   29  C6  UNL     1      23.479   4.857   3.645  1.00  0.00     0.168 C 
HETATM   30  O2  UNL     1      24.051   5.071   4.872  1.00  0.00    -0.391 OA
HETATM   31  C7  UNL     1      24.335   3.882   5.496  1.00  0.00     0.174 C 
ENDBRANCH  26  27
ENDBRANCH  25  26
ENDBRANCH  23  25
ENDBRANCH   1  23
TORSDOF 6
ENDMDL
MODEL 5
REMARK VINA RESULT: -5.809441353      3.406      6.898
REMARK  6 active torsions:
REMARK  status: ('A' for Active; 'I' for Inactive)
REMARK    1  A    between atoms: C2_2  and  O1_3 
REMARK    2  A    between atoms: C2_2  and  C8_10 
REMARK    3  A    between atoms: O1_3  and  C3_4 
REMARK    4  A    between atoms: C3_4  and  C4_5 
REMARK    5  A    between atoms: C11_13  and  N1_14 
REMARK    6  A    between atoms: N1_14  and  C12_16 
ROOT
HETATM    1  C8  UNL     1      29.214   0.622   5.373  1.00  0.00     0.028 C 
HETATM    2  C9  UNL     1      28.868   1.736   6.366  1.00  0.00     0.010 C 
HETATM    3  C10 UNL     1      28.159   2.813   5.612  1.00  0.00     0.027 C 
HETATM    4  C11 UNL     1      28.687   2.558   4.225  1.00  0.00     0.111 C 
HETATM    5  C16 UNL     1      28.571   1.051   4.158  1.00  0.00     0.018 C 
HETATM    6  C17 UNL     1      27.078   0.636   4.203  1.00  0.00     0.023 C 
HETATM    7  C18 UNL     1      27.188  -0.870   4.016  1.00  0.00     0.010 C 
HETATM    8  C19 UNL     1      28.223  -0.943   2.943  1.00  0.00     0.033 C 
HETATM    9  C20 UNL     1      28.776   0.453   2.840  1.00  0.00     0.133 C 
HETATM   10  O3  UNL     1      27.782   1.170   2.103  1.00  0.00    -0.385 OA
HETATM   11  C21 UNL     1      26.621   1.095   2.836  1.00  0.00     0.173 C 
ENDROOT
BRANCH   4  12
HETATM   12  N1  UNL     1      28.119   3.301   3.201  1.00  0.00    -0.221 N 
ATOM     13  H1  UNL     1      28.416   3.070   2.253  1.00  0.00     0.178 HD
BRANCH  12  14
HETATM   14  C12 UNL     1      27.258   4.250   3.314  1.00  0.00     0.678 A 
HETATM   15  N2  UNL     1      25.942   3.994   3.515  1.00  0.00    -0.201 N 
HETATM   16  C13 UNL     1      24.999   4.937   3.642  1.00  0.00     0.126 A 
ATOM     17  H2  UNL     1      25.651   3.018   3.575  1.00  0.00     0.183 HD
HETATM   18  C14 UNL     1      25.404   6.254   3.561  1.00  0.00     0.042 A 
HETATM   19 BR1  UNL     1      24.119   7.659   3.732  1.00  0.00    -0.048 Br
HETATM   20  C15 UNL     1      26.743   6.508   3.356  1.00  0.00     0.126 A 
HETATM   21  N3  UNL     1      27.668   5.526   3.233  1.00  0.00    -0.201 N 
ATOM     22  H3  UNL     1      28.651   5.751   3.082  1.00  0.00     0.183 HD
ENDBRANCH  12  14
ENDBRANCH   4  12
BRANCH   1  23
HETATM   23  C2  UNL     1      30.632   0.237   5.498  1.00  0.00     0.122 C 
HETATM   24  C1  UNL     1      31.131  -0.869   4.594  1.00  0.00     0.040 C 
BRANCH  23  25
HETATM   25  O1  UNL     1      31.050  -0.111   6.734  1.00  0.00    -0.385 OA
BRANCH  25  26
HETATM   26  C3  UNL     1      30.317  -0.162   7.830  1.00  0.00     0.174 C 
BRANCH  26  27
HETATM   27  C4  UNL     1      30.611   0.606   9.048  1.00  0.00     0.035 C 
HETATM   28  C5  UNL     1      30.719  -0.054  10.366  1.00  0.00     0.035 C 
HETATM   29  C6  UNL     1      29.223  -0.296  10.665  1.00  0.00     0.168 C 
HETATM   30  O2  UNL     1      28.677   0.914  10.326  1.00  0.00    -0.391 OA
HETATM   31  C7  UNL     1      29.387   1.507   9.313  1.00  0.00     0.174 C 
ENDBRANCH  26  27
ENDBRANCH  25  26
ENDBRANCH  23  25
ENDBRANCH   1  23
TORSDOF 6
ENDMDL
