MODEL 1
REMARK VINA RESULT: -6.884871520      0.000      0.000
REMARK  9 active torsions:
REMARK  status: ('A' for Active; 'I' for Inactive)
REMARK    1  A    between atoms: C2_2  and  O1_3 
REMARK    2  A    between atoms: O1_3  and  C3_4 
REMARK    3  A    between atoms: C7_12  and  N3_13 
REMARK    4  A    between atoms: N4_16  and  C8_17 
REMARK    5  A    between atoms: C8_17  and  C9_18 
REMARK    6  A    between atoms: C9_18  and  O2_19 
REMARK    7  A    between atoms: O2_19  and  C10_20 
REMARK    8  A    between atoms: C10_20  and  C11_21 
REMARK    9  A    between atoms: C16_29  and  C17_31 
ROOT
HETATM    1  C3  UNL     1      28.630   2.408   4.886  1.00  0.00     0.194 C 
HETATM    2  C4  UNL     1      27.791   2.844   6.009  1.00  0.00     0.060 A 
HETATM    3  C5  UNL     1      26.411   3.030   6.180  1.00  0.00     0.117 A 
HETATM    4  N1  UNL     1      25.958   3.478   7.352  1.00  0.00    -0.338 N 
ATOM      5  H1  UNL     1      24.953   3.612   7.475  1.00  0.00     0.168 HD
HETATM    6  C6  UNL     1      26.783   3.758   8.375  1.00  0.00     0.183 A 
HETATM    7  N2  UNL     1      28.094   3.577   8.200  1.00  0.00    -0.338 N 
ATOM      8  H2  UNL     1      28.716   3.791   8.980  1.00  0.00     0.168 HD
HETATM    9  C7  UNL     1      28.655   3.122   7.034  1.00  0.00     0.112 A 
HETATM   10  N4  UNL     1      25.333   2.812   5.296  1.00  0.00    -0.365 N 
HETATM   11  C12 UNL     1      25.223   2.206   4.018  1.00  0.00     0.125 C 
HETATM   12  C13 UNL     1      25.899   0.927   3.796  1.00  0.00     0.026 C 
HETATM   13  C14 UNL     1      26.988   0.477   4.691  1.00  0.00     0.018 C 
HETATM   14  C15 UNL     1      26.939  -1.074   4.581  1.00  0.00     0.012 C 
HETATM   15  C16 UNL     1      28.344   1.001   4.351  1.00  0.00     0.168 C 
HETATM   16 CL1  UNL     1      28.481   1.142   2.545  1.00  0.00    -0.106 Cl
ENDROOT
BRANCH  10  17
HETATM   17  C8  UNL     1      24.060   3.335   5.847  1.00  0.00     0.150 C 
BRANCH  17  18
HETATM   18  C9  UNL     1      23.090   3.630   4.760  1.00  0.00     0.187 C 
BRANCH  18  19
HETATM   19  O2  UNL     1      22.933   4.986   4.586  1.00  0.00    -0.381 OA
BRANCH  19  20
HETATM   20  C10 UNL     1      23.773   5.540   3.650  1.00  0.00     0.285 C 
BRANCH  20  21
HETATM   21  C11 UNL     1      24.558   6.712   4.224  1.00  0.00     0.408 C 
HETATM   22  F1  UNL     1      25.163   7.458   3.244  1.00  0.00    -0.169 F 
HETATM   23  F2  UNL     1      23.752   7.559   4.960  1.00  0.00    -0.169 F 
HETATM   24  F3  UNL     1      25.499   6.191   5.092  1.00  0.00    -0.169 F 
ENDBRANCH  20  21
ENDBRANCH  19  20
ENDBRANCH  18  19
ENDBRANCH  17  18
ENDBRANCH  10  17
BRANCH   1  25
HETATM   25  O1  UNL     1      28.294   3.275   3.830  1.00  0.00    -0.379 OA
BRANCH  25  26
HETATM   26  C2  UNL     1      28.279   4.596   4.024  1.00  0.00     0.164 C 
HETATM   27  C1  UNL     1      27.773   5.497   2.948  1.00  0.00     0.033 C 
ENDBRANCH  25  26
ENDBRANCH   1  25
BRANCH   9  28
HETATM   28  N3  UNL     1      29.927   2.998   6.984  1.00  0.00    -0.385 N 
ATOM     29  H32 UNL     1      30.376   2.367   7.648  1.00  0.00     0.157 HD
ATOM     30  H31 UNL     1      30.543   3.487   6.334  1.00  0.00     0.157 HD
ENDBRANCH   9  28
BRANCH  15  31
HETATM   31  C17 UNL     1      29.476   0.101   4.691  1.00  0.00     0.411 C 
HETATM   32  F4  UNL     1      29.395  -0.180   6.059  1.00  0.00    -0.169 F 
HETATM   33  F5  UNL     1      30.705   0.814   4.682  1.00  0.00    -0.169 F 
HETATM   34  F6  UNL     1      29.605  -1.063   4.024  1.00  0.00    -0.169 F 
ENDBRANCH  15  31
TORSDOF 9
ENDMDL
MODEL 2
REMARK VINA RESULT: -5.733615899      3.174      6.703
REMARK  9 active torsions:
REMARK  status: ('A' for Active; 'I' for Inactive)
REMARK    1  A    between atoms: C2_2  and  O1_3 
REMARK    2  A    between atoms: O1_3  and  C3_4 
REMARK    3  A    between atoms: C7_12  and  N3_13 
REMARK    4  A    between atoms: N4_16  and  C8_17 
REMARK    5  A    between atoms: C8_17  and  C9_18 
REMARK    6  A    between atoms: C9_18  and  O2_19 
REMARK    7  A    between atoms: O2_19  and  C10_20 
REMARK    8  A    between atoms: C10_20  and  C11_21 
REMARK    9  A    between atoms: C16_29  and  C17_31 
ROOT
HETATM    1  C3  UNL     1      26.263   3.501   3.756  1.00  0.00     0.194 C 
HETATM    2  C4  UNL     1      26.983   2.241   3.974  1.00  0.00     0.060 A 
HETATM    3  C5  UNL     1      27.786   1.744   5.010  1.00  0.00     0.117 A 
HETATM    4  N1  UNL     1      28.333   0.533   4.883  1.00  0.00    -0.338 N 
ATOM      5  H1  UNL     1      28.917   0.172   5.639  1.00  0.00     0.168 HD
HETATM    6  C6  UNL     1      28.137  -0.225   3.791  1.00  0.00     0.183 A 
HETATM    7  N2  UNL     1      27.371   0.258   2.811  1.00  0.00    -0.338 N 
ATOM      8  H2  UNL     1      27.226  -0.322   1.985  1.00  0.00     0.168 HD
HETATM    9  C7  UNL     1      26.767   1.489   2.849  1.00  0.00     0.112 A 
HETATM   10  N4  UNL     1      28.148   2.310   6.252  1.00  0.00    -0.365 N 
HETATM   11  C12 UNL     1      27.733   3.469   6.955  1.00  0.00     0.125 C 
HETATM   12  C13 UNL     1      26.300   3.755   7.038  1.00  0.00     0.026 C 
HETATM   13  C14 UNL     1      25.344   3.130   6.097  1.00  0.00     0.018 C 
HETATM   14  C15 UNL     1      24.007   3.105   6.891  1.00  0.00     0.012 C 
HETATM   15  C16 UNL     1      25.186   3.838   4.793  1.00  0.00     0.168 C 
HETATM   16 CL1  UNL     1      25.340   5.626   5.075  1.00  0.00    -0.106 Cl
ENDROOT
BRANCH  10  17
HETATM   17  C8  UNL     1      29.179   1.498   6.942  1.00  0.00     0.150 C 
BRANCH  17  18
HETATM   18  C9  UNL     1      29.345   1.937   8.353  1.00  0.00     0.187 C 
BRANCH  18  19
HETATM   19  O2  UNL     1      30.383   1.272   8.963  1.00  0.00    -0.381 OA
BRANCH  19  20
HETATM   20  C10 UNL     1      30.285  -0.098   8.918  1.00  0.00     0.285 C 
BRANCH  20  21
HETATM   21  C11 UNL     1      29.887  -0.678  10.269  1.00  0.00     0.408 C 
HETATM   22  F1  UNL     1      30.786  -0.358  11.255  1.00  0.00    -0.169 F 
HETATM   23  F2  UNL     1      28.643  -0.230  10.673  1.00  0.00    -0.169 F 
HETATM   24  F3  UNL     1      29.795  -2.048  10.118  1.00  0.00    -0.169 F 
ENDBRANCH  20  21
ENDBRANCH  19  20
ENDBRANCH  18  19
ENDBRANCH  17  18
ENDBRANCH  10  17
BRANCH   1  25
HETATM   25  O1  UNL     1      27.240   4.502   3.906  1.00  0.00    -0.379 OA
BRANCH  25  26
HETATM   26  C2  UNL     1      27.637   5.218   2.852  1.00  0.00     0.164 C 
HETATM   27  C1  UNL     1      26.733   6.257   2.279  1.00  0.00     0.033 C 
ENDBRANCH  25  26
ENDBRANCH   1  25
BRANCH   9  28
HETATM   28  N3  UNL     1      26.062   1.847   1.843  1.00  0.00    -0.385 N 
ATOM     29  H32 UNL     1      26.305   2.718   1.371  1.00  0.00     0.157 HD
ATOM     30  H31 UNL     1      25.263   1.335   1.470  1.00  0.00     0.157 HD
ENDBRANCH   9  28
BRANCH  15  31
HETATM   31  C17 UNL     1      23.843   3.726   4.168  1.00  0.00     0.411 C 
HETATM   32  F4  UNL     1      23.744   4.727   3.196  1.00  0.00    -0.169 F 
HETATM   33  F5  UNL     1      22.834   4.180   5.059  1.00  0.00    -0.169 F 
HETATM   34  F6  UNL     1      23.481   2.554   3.610  1.00  0.00    -0.169 F 
ENDBRANCH  15  31
TORSDOF 9
ENDMDL
MODEL 3
REMARK VINA RESULT: -5.501568244      3.146      6.614
REMARK  9 active torsions:
REMARK  status: ('A' for Active; 'I' for Inactive)
REMARK    1  A    between atoms: C2_2  and  O1_3 
REMARK    2  A    between atoms: O1_3  and  C3_4 
REMARK    3  A    between atoms: C7_12  and  N3_13 
REMARK    4  A    between atoms: N4_16  and  C8_17 
REMARK    5  A    between atoms: C8_17  and  C9_18 
REMARK    6  A    between atoms: C9_18  and  O2_19 
REMARK    7  A    between atoms: O2_19  and  C10_20 
REMARK    8  A    between atoms: C10_20  and  C11_21 
REMARK    9  A    between atoms: C16_29  and  C17_31 
ROOT
HETATM    1  C3  UNL     1      26.669   3.419   3.852  1.00  0.00     0.194 C 
HETATM    2  C4  UNL     1      27.435   2.174   3.981  1.00  0.00     0.060 A 
HETATM    3  C5  UNL     1      28.421   1.724   4.872  1.00  0.00     0.117 A 
HETATM    4  N1  UNL     1      28.952   0.513   4.693  1.00  0.00    -0.338 N 
ATOM      5  H1  UNL     1      29.669   0.187   5.342  1.00  0.00     0.168 HD
HETATM    6  C6  UNL     1      28.572  -0.289   3.684  1.00  0.00     0.183 A 
HETATM    7  N2  UNL     1      27.633   0.150   2.843  1.00  0.00    -0.338 N 
ATOM      8  H2  UNL     1      27.348  -0.464   2.080  1.00  0.00     0.168 HD
HETATM    9  C7  UNL     1      27.029   1.377   2.944  1.00  0.00     0.112 A 
HETATM   10  N4  UNL     1      28.994   2.341   6.004  1.00  0.00    -0.365 N 
HETATM   11  C12 UNL     1      28.698   3.525   6.727  1.00  0.00     0.125 C 
HETATM   12  C13 UNL     1      27.300   3.803   7.060  1.00  0.00     0.026 C 
HETATM   13  C14 UNL     1      26.198   3.135   6.333  1.00  0.00     0.018 C 
HETATM   14  C15 UNL     1      25.029   3.132   7.359  1.00  0.00     0.012 C 
HETATM   15  C16 UNL     1      25.795   3.790   5.054  1.00  0.00     0.168 C 
HETATM   16 CL1  UNL     1      25.972   5.588   5.236  1.00  0.00    -0.106 Cl
ENDROOT
BRANCH  10  17
HETATM   17  C8  UNL     1      30.145   1.565   6.525  1.00  0.00     0.150 C 
BRANCH  17  18
HETATM   18  C9  UNL     1      30.200   1.626   8.009  1.00  0.00     0.187 C 
BRANCH  18  19
HETATM   19  O2  UNL     1      29.391   0.670   8.577  1.00  0.00    -0.381 OA
BRANCH  19  20
HETATM   20  C10 UNL     1      28.997   0.949   9.863  1.00  0.00     0.285 C 
BRANCH  20  21
HETATM   21  C11 UNL     1      29.449  -0.132  10.837  1.00  0.00     0.408 C 
HETATM   22  F1  UNL     1      28.767  -0.075  12.026  1.00  0.00    -0.169 F 
HETATM   23  F2  UNL     1      29.274  -1.399  10.313  1.00  0.00    -0.169 F 
HETATM   24  F3  UNL     1      30.804   0.039  11.043  1.00  0.00    -0.169 F 
ENDBRANCH  20  21
ENDBRANCH  19  20
ENDBRANCH  18  19
ENDBRANCH  17  18
ENDBRANCH  10  17
BRANCH   1  25
HETATM   25  O1  UNL     1      27.643   4.433   3.783  1.00  0.00    -0.379 OA
BRANCH  25  26
HETATM   26  C2  UNL     1      27.761   5.178   2.683  1.00  0.00     0.164 C 
HETATM   27  C1  UNL     1      26.682   6.142   2.321  1.00  0.00     0.033 C 
ENDBRANCH  25  26
ENDBRANCH   1  25
BRANCH   9  28
HETATM   28  N3  UNL     1      26.147   1.690   2.071  1.00  0.00    -0.385 N 
ATOM     29  H32 UNL     1      26.394   1.604   1.086  1.00  0.00     0.157 HD
ATOM     30  H31 UNL     1      25.208   2.029   2.277  1.00  0.00     0.157 HD
ENDBRANCH   9  28
BRANCH  15  31
HETATM   31  C17 UNL     1      24.362   3.643   4.690  1.00  0.00     0.411 C 
HETATM   32  F4  UNL     1      24.209   4.112   3.381  1.00  0.00    -0.169 F 
HETATM   33  F5  UNL     1      23.570   4.608   5.367  1.00  0.00    -0.169 F 
HETATM   34  F6  UNL     1      23.790   2.426   4.774  1.00  0.00    -0.169 F 
ENDBRANCH  15  31
TORSDOF 9
ENDMDL
MODEL 4
REMARK VINA RESULT: -5.399709368      3.288      6.048
REMARK  9 active torsions:
REMARK  status: ('A' for Active; 'I' for Inactive)
REMARK    1  A    between atoms: C2_2  and  O1_3 
REMARK    2  A    between atoms: O1_3  and  C3_4 
REMARK    3  A    between atoms: C7_12  and  N3_13 
REMARK    4  A    between atoms: N4_16  and  C8_17 
REMARK    5  A    between atoms: C8_17  and  C9_18 
REMARK    6  A    between atoms: C9_18  and  O2_19 
REMARK    7  A    between atoms: O2_19  and  C10_20 
REMARK    8  A    between atoms: C10_20  and  C11_21 
REMARK    9  A    between atoms: C16_29  and  C17_31 
ROOT
HETATM    1  C3  UNL     1      27.301   2.939   3.825  1.00  0.00     0.194 C 
HETATM    2  C4  UNL     1      28.163   2.153   4.716  1.00  0.00     0.060 A 
HETATM    3  C5  UNL     1      28.429   2.184   6.093  1.00  0.00     0.117 A 
HETATM    4  N1  UNL     1      29.313   1.324   6.602  1.00  0.00    -0.338 N 
ATOM      5  H1  UNL     1      29.505   1.348   7.604  1.00  0.00     0.168 HD
HETATM    6  C6  UNL     1      29.957   0.428   5.835  1.00  0.00     0.183 A 
HETATM    7  N2  UNL     1      29.696   0.407   4.527  1.00  0.00    -0.338 N 
ATOM      8  H2  UNL     1      30.187  -0.276   3.950  1.00  0.00     0.168 HD
HETATM    9  C7  UNL     1      28.805   1.249   3.911  1.00  0.00     0.112 A 
HETATM   10  N4  UNL     1      27.901   2.999   7.117  1.00  0.00    -0.365 N 
HETATM   11  C12 UNL     1      26.843   3.941   7.169  1.00  0.00     0.125 C 
HETATM   12  C13 UNL     1      25.566   3.586   6.547  1.00  0.00     0.026 C 
HETATM   13  C14 UNL     1      25.484   2.498   5.547  1.00  0.00     0.018 C 
HETATM   14  C15 UNL     1      24.017   1.995   5.669  1.00  0.00     0.012 C 
HETATM   15  C16 UNL     1      25.804   2.902   4.146  1.00  0.00     0.168 C 
HETATM   16 CL1  UNL     1      25.216   4.599   3.878  1.00  0.00    -0.106 Cl
ENDROOT
BRANCH  10  17
HETATM   17  C8  UNL     1      28.626   2.806   8.396  1.00  0.00     0.150 C 
BRANCH  17  18
HETATM   18  C9  UNL     1      27.675   2.616   9.523  1.00  0.00     0.187 C 
BRANCH  18  19
HETATM   19  O2  UNL     1      28.026   1.532  10.293  1.00  0.00    -0.381 OA
BRANCH  19  20
HETATM   20  C10 UNL     1      29.157   0.876   9.872  1.00  0.00     0.285 C 
BRANCH  20  21
HETATM   21  C11 UNL     1      29.535  -0.258  10.816  1.00  0.00     0.408 C 
HETATM   22  F1  UNL     1      29.302  -1.492  10.262  1.00  0.00    -0.169 F 
HETATM   23  F2  UNL     1      30.868  -0.203  11.175  1.00  0.00    -0.169 F 
HETATM   24  F3  UNL     1      28.796  -0.094  11.972  1.00  0.00    -0.169 F 
ENDBRANCH  20  21
ENDBRANCH  19  20
ENDBRANCH  18  19
ENDBRANCH  17  18
ENDBRANCH  10  17
BRANCH   1  25
HETATM   25  O1  UNL     1      27.687   4.275   4.041  1.00  0.00    -0.379 OA
BRANCH  25  26
HETATM   26  C2  UNL     1      28.366   4.939   3.104  1.00  0.00     0.164 C 
HETATM   27  C1  UNL     1      27.632   5.604   1.989  1.00  0.00     0.033 C 
ENDBRANCH  25  26
ENDBRANCH   1  25
BRANCH   9  28
HETATM   28  N3  UNL     1      28.645   1.140   2.647  1.00  0.00    -0.385 N 
ATOM     29  H32 UNL     1      27.866   1.636   2.215  1.00  0.00     0.157 HD
ATOM     30  H31 UNL     1      29.234   0.587   2.023  1.00  0.00     0.157 HD
ENDBRANCH   9  28
BRANCH  15  31
HETATM   31  C17 UNL     1      25.088   2.142   3.088  1.00  0.00     0.411 C 
HETATM   32  F4  UNL     1      25.298   0.781   3.332  1.00  0.00    -0.169 F 
HETATM   33  F5  UNL     1      25.765   2.253   1.845  1.00  0.00    -0.169 F 
HETATM   34  F6  UNL     1      23.766   2.346   2.922  1.00  0.00    -0.169 F 
ENDBRANCH  15  31
TORSDOF 9
ENDMDL
MODEL 5
REMARK VINA RESULT: -5.328596849      3.175      6.339
REMARK  9 active torsions:
REMARK  status: ('A' for Active; 'I' for Inactive)
REMARK    1  A    between atoms: C2_2  and  O1_3 
REMARK    2  A    between atoms: O1_3  and  C3_4 
REMARK    3  A    between atoms: C7_12  and  N3_13 
REMARK    4  A    between atoms: N4_16  and  C8_17 
REMARK    5  A    between atoms: C8_17  and  C9_18 
REMARK    6  A    between atoms: C9_18  and  O2_19 
REMARK    7  A    between atoms: O2_19  and  C10_20 
REMARK    8  A    between atoms: C10_20  and  C11_21 
REMARK    9  A    between atoms: C16_29  and  C17_31 
ROOT
HETATM    1  C3  UNL     1      27.130   3.297   4.274  1.00  0.00     0.194 C 
HETATM    2  C4  UNL     1      27.911   2.247   4.939  1.00  0.00     0.060 A 
HETATM    3  C5  UNL     1      28.330   2.033   6.259  1.00  0.00     0.117 A 
HETATM    4  N1  UNL     1      29.075   0.961   6.537  1.00  0.00    -0.338 N 
ATOM      5  H1  UNL     1      29.380   0.807   7.499  1.00  0.00     0.168 HD
HETATM    6  C6  UNL     1      29.437   0.080   5.589  1.00  0.00     0.183 A 
HETATM    7  N2  UNL     1      29.031   0.294   4.336  1.00  0.00    -0.338 N 
ATOM      8  H2  UNL     1      29.308  -0.379   3.621  1.00  0.00     0.168 HD
HETATM    9  C7  UNL     1      28.264   1.365   3.952  1.00  0.00     0.112 A 
HETATM   10  N4  UNL     1      28.095   2.776   7.436  1.00  0.00    -0.365 N 
HETATM   11  C12 UNL     1      27.260   3.880   7.744  1.00  0.00     0.125 C 
HETATM   12  C13 UNL     1      25.876   3.858   7.266  1.00  0.00     0.026 C 
HETATM   13  C14 UNL     1      25.467   2.958   6.166  1.00  0.00     0.018 C 
HETATM   14  C15 UNL     1      23.952   2.721   6.428  1.00  0.00     0.012 C 
HETATM   15  C16 UNL     1      25.701   3.490   4.791  1.00  0.00     0.168 C 
HETATM   16 CL1  UNL     1      25.440   5.287   4.808  1.00  0.00    -0.106 Cl
ENDROOT
BRANCH  10  17
HETATM   17  C8  UNL     1      28.906   2.273   8.571  1.00  0.00     0.150 C 
BRANCH  17  18
HETATM   18  C9  UNL     1      28.056   2.040   9.769  1.00  0.00     0.187 C 
BRANCH  18  19
HETATM   19  O2  UNL     1      28.642   1.139  10.627  1.00  0.00    -0.381 OA
BRANCH  19  20
HETATM   20  C10 UNL     1      28.750  -0.136  10.127  1.00  0.00     0.285 C 
BRANCH  20  21
HETATM   21  C11 UNL     1      30.191  -0.628  10.145  1.00  0.00     0.408 C 
HETATM   22  F1  UNL     1      30.916  -0.146   9.084  1.00  0.00    -0.169 F 
HETATM   23  F2  UNL     1      30.845  -0.256  11.304  1.00  0.00    -0.169 F 
HETATM   24  F3  UNL     1      30.155  -2.009  10.124  1.00  0.00    -0.169 F 
ENDBRANCH  20  21
ENDBRANCH  19  20
ENDBRANCH  18  19
ENDBRANCH  17  18
ENDBRANCH  10  17
BRANCH   1  25
HETATM   25  O1  UNL     1      27.798   4.494   4.591  1.00  0.00    -0.379 OA
BRANCH  25  26
HETATM   26  C2  UNL     1      28.347   5.234   3.625  1.00  0.00     0.164 C 
HETATM   27  C1  UNL     1      27.668   5.348   2.302  1.00  0.00     0.033 C 
ENDBRANCH  25  26
ENDBRANCH   1  25
BRANCH   9  28
HETATM   28  N3  UNL     1      27.945   1.467   2.718  1.00  0.00    -0.385 N 
ATOM     29  H32 UNL     1      27.751   0.612   2.198  1.00  0.00     0.157 HD
ATOM     30  H31 UNL     1      27.873   2.341   2.197  1.00  0.00     0.157 HD
ENDBRANCH   9  28
BRANCH  15  31
HETATM   31  C17 UNL     1      24.733   3.034   3.760  1.00  0.00     0.411 C 
HETATM   32  F4  UNL     1      25.392   3.052   2.526  1.00  0.00    -0.169 F 
HETATM   33  F5  UNL     1      23.759   4.036   3.506  1.00  0.00    -0.169 F 
HETATM   34  F6  UNL     1      24.142   1.833   3.909  1.00  0.00    -0.169 F 
ENDBRANCH  15  31
TORSDOF 9
ENDMDL
