MODEL 1
REMARK VINA RESULT: -9.267087269      0.000      0.000
REMARK  9 active torsions:
REMARK  status: ('A' for Active; 'I' for Inactive)
REMARK       I    between atoms: C1_4  and  N3_6 
REMARK    1  A    between atoms: N3_6  and  C2_8 
REMARK    2  A    between atoms: C2_8  and  C3_9 
REMARK    3  A    between atoms: C3_9  and  C4_10 
REMARK    4  A    between atoms: C4_10  and  C5_11 
REMARK    5  A    between atoms: C5_11  and  N4_12 
REMARK    6  A    between atoms: C5_11  and  C10_22 
REMARK       I    between atoms: N4_12  and  C6_14 
REMARK    7  A    between atoms: C6_14  and  C7_16 
REMARK       I    between atoms: C10_22  and  N6_24 
REMARK    8  A    between atoms: C13_27  and  C14_28 
REMARK    9  A    between atoms: C14_28  and  C15_29 
ROOT
HETATM    1  C5  UNL     1      35.857   7.423   2.393  1.00  0.00     0.176 C 
ENDROOT
BRANCH   1   2
HETATM    2  C4  UNL     1      37.161   7.811   2.950  1.00  0.00     0.036 C 
BRANCH   2   3
HETATM    3  C3  UNL     1      37.258   9.080   3.710  1.00  0.00     0.022 C 
BRANCH   3   4
HETATM    4  C2  UNL     1      36.230   9.275   4.760  1.00  0.00     0.122 C 
BRANCH   4   5
HETATM    5  N3  UNL     1      36.437  10.569   5.396  1.00  0.00    -0.365 N 
HETATM    6  C1  UNL     1      35.718  10.990   6.528  1.00  0.00     0.181 C 
HETATM    7  N1  UNL     1      35.047  10.225   7.305  1.00  0.00    -0.374 N 
HETATM    8  N2  UNL     1      35.727  12.388   6.855  1.00  0.00    -0.064 NA
ATOM      9  H12 UNL     1      34.526  10.530   8.127  1.00  0.00     0.158 HD
ATOM     10  H11 UNL     1      35.041   9.232   7.073  1.00  0.00     0.158 HD
ATOM     11  H3  UNL     1      37.135  11.199   5.001  1.00  0.00     0.162 HD
ENDBRANCH   4   5
ENDBRANCH   3   4
ENDBRANCH   2   3
ENDBRANCH   1   2
BRANCH   1  12
HETATM   12  N4  UNL     1      35.762   6.119   1.807  1.00  0.00    -0.346 N 
HETATM   13  C6  UNL     1      35.096   5.029   2.423  1.00  0.00     0.249 C 
HETATM   14  O1  UNL     1      34.558   5.197   3.534  1.00  0.00    -0.271 OA
ATOM     15  H4  UNL     1      36.199   5.965   0.898  1.00  0.00     0.163 HD
BRANCH  13  16
HETATM   16  C7  UNL     1      35.046   3.726   1.754  1.00  0.00     0.278 C 
HETATM   17  C8  UNL     1      33.880   3.537   0.805  1.00  0.00     0.070 C 
HETATM   18  C9  UNL     1      33.608   2.267   1.580  1.00  0.00     0.236 C 
HETATM   19  N5  UNL     1      34.470   2.719   2.633  1.00  0.00    -0.062 N 
ATOM     20  H52 UNL     1      35.080   2.053   3.106  1.00  0.00     0.278 HD
ATOM     21  H51 UNL     1      34.070   2.999   3.528  1.00  0.00     0.278 HD
ENDBRANCH  13  16
ENDBRANCH   1  12
BRANCH   1  22
HETATM   22  C10 UNL     1      35.397   8.388   1.326  1.00  0.00     0.242 C 
HETATM   23  O2  UNL     1      36.132   8.480   0.305  1.00  0.00    -0.271 OA
HETATM   24  N6  UNL     1      34.227   9.162   1.413  1.00  0.00    -0.350 N 
HETATM   25  C11 UNL     1      33.338   9.017   2.532  1.00  0.00     0.126 C 
HETATM   26  C22 UNL     1      33.959  10.106   0.361  1.00  0.00     0.126 C 
HETATM   27  C12 UNL     1      31.904   9.013   2.017  1.00  0.00     0.024 C 
HETATM   28  C13 UNL     1      31.623  10.303   1.277  1.00  0.00    -0.011 C 
HETATM   29  C21 UNL     1      32.519  10.371   0.086  1.00  0.00     0.024 C 
BRANCH  28  30
HETATM   30  C14 UNL     1      30.186  10.245   0.849  1.00  0.00     0.009 C 
BRANCH  30  31
HETATM   31  C15 UNL     1      29.806  11.052  -0.328  1.00  0.00    -0.014 C 
HETATM   32  C16 UNL     1      28.963  12.250  -0.048  1.00  0.00     0.005 C 
HETATM   33  C17 UNL     1      28.098  12.497  -1.270  1.00  0.00     0.000 C 
HETATM   34  C18 UNL     1      26.954  11.491  -1.188  1.00  0.00     0.000 C 
HETATM   35  C19 UNL     1      27.557  10.167  -0.800  1.00  0.00     0.000 C 
HETATM   36  C20 UNL     1      29.001  10.141  -1.264  1.00  0.00     0.005 C 
ENDBRANCH  30  31
ENDBRANCH  28  30
ENDBRANCH   1  22
TORSDOF 9
ENDMDL
MODEL 2
REMARK VINA RESULT: -9.219888011      2.375      5.955
REMARK  9 active torsions:
REMARK  status: ('A' for Active; 'I' for Inactive)
REMARK       I    between atoms: C1_4  and  N3_6 
REMARK    1  A    between atoms: N3_6  and  C2_8 
REMARK    2  A    between atoms: C2_8  and  C3_9 
REMARK    3  A    between atoms: C3_9  and  C4_10 
REMARK    4  A    between atoms: C4_10  and  C5_11 
REMARK    5  A    between atoms: C5_11  and  N4_12 
REMARK    6  A    between atoms: C5_11  and  C10_22 
REMARK       I    between atoms: N4_12  and  C6_14 
REMARK    7  A    between atoms: C6_14  and  C7_16 
REMARK       I    between atoms: C10_22  and  N6_24 
REMARK    8  A    between atoms: C13_27  and  C14_28 
REMARK    9  A    between atoms: C14_28  and  C15_29 
ROOT
HETATM    1  C5  UNL     1      35.488  10.006   3.381  1.00  0.00     0.176 C 
ENDROOT
BRANCH   1   2
HETATM    2  C4  UNL     1      36.228   8.787   3.738  1.00  0.00     0.036 C 
BRANCH   2   3
HETATM    3  C3  UNL     1      37.137   8.188   2.731  1.00  0.00     0.022 C 
BRANCH   3   4
HETATM    4  C2  UNL     1      36.470   7.473   1.617  1.00  0.00     0.122 C 
BRANCH   4   5
HETATM    5  N3  UNL     1      36.158   6.114   2.041  1.00  0.00    -0.365 N 
HETATM    6  C1  UNL     1      34.845   5.662   2.259  1.00  0.00     0.181 C 
HETATM    7  N1  UNL     1      33.784   6.242   1.839  1.00  0.00    -0.374 N 
HETATM    8  N2  UNL     1      34.662   4.452   3.010  1.00  0.00    -0.064 NA
ATOM      9  H12 UNL     1      32.831   5.914   1.998  1.00  0.00     0.158 HD
ATOM     10  H11 UNL     1      33.915   7.101   1.306  1.00  0.00     0.158 HD
ATOM     11  H3  UNL     1      36.929   5.461   2.186  1.00  0.00     0.162 HD
ENDBRANCH   4   5
ENDBRANCH   3   4
ENDBRANCH   2   3
ENDBRANCH   1   2
BRANCH   1  12
HETATM   12  N4  UNL     1      35.849  11.211   4.068  1.00  0.00    -0.346 N 
HETATM   13  C6  UNL     1      36.162  12.426   3.409  1.00  0.00     0.249 C 
HETATM   14  O1  UNL     1      36.126  12.467   2.165  1.00  0.00    -0.271 OA
ATOM     15  H4  UNL     1      35.884  11.192   5.088  1.00  0.00     0.163 HD
BRANCH  13  16
HETATM   16  C7  UNL     1      36.522  13.614   4.189  1.00  0.00     0.278 C 
HETATM   17  C8  UNL     1      35.349  14.426   4.698  1.00  0.00     0.070 C 
HETATM   18  C9  UNL     1      36.041  15.608   4.054  1.00  0.00     0.236 C 
HETATM   19  N5  UNL     1      36.881  14.717   3.310  1.00  0.00    -0.062 N 
ATOM     20  H52 UNL     1      37.864  14.950   3.169  1.00  0.00     0.278 HD
ATOM     21  H51 UNL     1      36.752  14.623   2.303  1.00  0.00     0.278 HD
ENDBRANCH  13  16
ENDBRANCH   1  12
BRANCH   1  22
HETATM   22  C10 UNL     1      34.003   9.840   3.594  1.00  0.00     0.242 C 
HETATM   23  O2  UNL     1      33.606   9.865   4.791  1.00  0.00    -0.271 OA
HETATM   24  N6  UNL     1      33.071   9.665   2.556  1.00  0.00    -0.350 N 
HETATM   25  C11 UNL     1      33.491   9.709   1.183  1.00  0.00     0.126 C 
HETATM   26  C22 UNL     1      31.696   9.430   2.911  1.00  0.00     0.126 C 
HETATM   27  C12 UNL     1      32.476  10.521   0.388  1.00  0.00     0.024 C 
HETATM   28  C13 UNL     1      31.108   9.884   0.506  1.00  0.00    -0.011 C 
HETATM   29  C21 UNL     1      30.686   9.929   1.937  1.00  0.00     0.024 C 
BRANCH  28  30
HETATM   30  C14 UNL     1      30.180  10.705  -0.340  1.00  0.00     0.009 C 
BRANCH  30  31
HETATM   31  C15 UNL     1      29.092   9.984  -1.031  1.00  0.00    -0.014 C 
HETATM   32  C16 UNL     1      29.292   9.754  -2.490  1.00  0.00     0.005 C 
HETATM   33  C17 UNL     1      27.921   9.719  -3.141  1.00  0.00     0.000 C 
HETATM   34  C18 UNL     1      27.483  11.174  -3.281  1.00  0.00     0.000 C 
HETATM   35  C19 UNL     1      27.815  11.862  -1.984  1.00  0.00     0.000 C 
HETATM   36  C20 UNL     1      27.818  10.826  -0.876  1.00  0.00     0.005 C 
ENDBRANCH  30  31
ENDBRANCH  28  30
ENDBRANCH   1  22
TORSDOF 9
ENDMDL
MODEL 3
REMARK VINA RESULT: -9.096279594      1.659      2.080
REMARK  9 active torsions:
REMARK  status: ('A' for Active; 'I' for Inactive)
REMARK       I    between atoms: C1_4  and  N3_6 
REMARK    1  A    between atoms: N3_6  and  C2_8 
REMARK    2  A    between atoms: C2_8  and  C3_9 
REMARK    3  A    between atoms: C3_9  and  C4_10 
REMARK    4  A    between atoms: C4_10  and  C5_11 
REMARK    5  A    between atoms: C5_11  and  N4_12 
REMARK    6  A    between atoms: C5_11  and  C10_22 
REMARK       I    between atoms: N4_12  and  C6_14 
REMARK    7  A    between atoms: C6_14  and  C7_16 
REMARK       I    between atoms: C10_22  and  N6_24 
REMARK    8  A    between atoms: C13_27  and  C14_28 
REMARK    9  A    between atoms: C14_28  and  C15_29 
ROOT
HETATM    1  C5  UNL     1      34.497   6.739   1.813  1.00  0.00     0.176 C 
ENDROOT
BRANCH   1   2
HETATM    2  C4  UNL     1      35.834   6.875   2.411  1.00  0.00     0.036 C 
BRANCH   2   3
HETATM    3  C3  UNL     1      36.061   7.955   3.401  1.00  0.00     0.022 C 
BRANCH   3   4
HETATM    4  C2  UNL     1      37.104   8.944   3.037  1.00  0.00     0.122 C 
BRANCH   4   5
HETATM    5  N3  UNL     1      36.507   9.981   2.204  1.00  0.00    -0.365 N 
HETATM    6  C1  UNL     1      35.926  11.147   2.732  1.00  0.00     0.181 C 
HETATM    7  N1  UNL     1      36.105  11.591   3.920  1.00  0.00    -0.374 N 
HETATM    8  N2  UNL     1      35.059  11.915   1.883  1.00  0.00    -0.064 NA
ATOM      9  H12 UNL     1      35.683  12.437   4.302  1.00  0.00     0.158 HD
ATOM     10  H11 UNL     1      36.720  11.045   4.522  1.00  0.00     0.158 HD
ATOM     11  H3  UNL     1      36.512   9.855   1.192  1.00  0.00     0.162 HD
ENDBRANCH   4   5
ENDBRANCH   3   4
ENDBRANCH   2   3
ENDBRANCH   1   2
BRANCH   1  12
HETATM   12  N4  UNL     1      34.139   5.446   1.310  1.00  0.00    -0.346 N 
HETATM   13  C6  UNL     1      34.245   4.253   2.069  1.00  0.00     0.249 C 
HETATM   14  O1  UNL     1      34.672   4.314   3.238  1.00  0.00    -0.271 OA
ATOM     15  H4  UNL     1      33.789   5.380   0.355  1.00  0.00     0.163 HD
BRANCH  13  16
HETATM   16  C7  UNL     1      33.856   2.969   1.478  1.00  0.00     0.278 C 
HETATM   17  C8  UNL     1      33.449   3.032   0.020  1.00  0.00     0.070 C 
HETATM   18  C9  UNL     1      32.194   2.313   0.462  1.00  0.00     0.236 C 
HETATM   19  N5  UNL     1      32.483   2.637   1.828  1.00  0.00    -0.062 N 
ATOM     20  H52 UNL     1      32.300   1.950   2.559  1.00  0.00     0.278 HD
ATOM     21  H51 UNL     1      31.906   3.322   2.317  1.00  0.00     0.278 HD
ENDBRANCH  13  16
ENDBRANCH   1  12
BRANCH   1  22
HETATM   22  C10 UNL     1      34.300   7.697   0.663  1.00  0.00     0.242 C 
HETATM   23  O2  UNL     1      34.941   7.440  -0.392  1.00  0.00    -0.271 OA
HETATM   24  N6  UNL     1      33.464   8.826   0.710  1.00  0.00    -0.350 N 
HETATM   25  C11 UNL     1      32.667   9.096   1.876  1.00  0.00     0.126 C 
HETATM   26  C22 UNL     1      33.441   9.701  -0.431  1.00  0.00     0.126 C 
HETATM   27  C12 UNL     1      31.277   9.528   1.426  1.00  0.00     0.024 C 
HETATM   28  C13 UNL     1      31.382  10.761   0.555  1.00  0.00    -0.011 C 
HETATM   29  C21 UNL     1      32.153  10.410  -0.673  1.00  0.00     0.024 C 
BRANCH  28  30
HETATM   30  C14 UNL     1      29.978  11.153   0.198  1.00  0.00     0.009 C 
BRANCH  30  31
HETATM   31  C15 UNL     1      29.135  10.117  -0.431  1.00  0.00    -0.014 C 
HETATM   32  C16 UNL     1      28.674  10.411  -1.818  1.00  0.00     0.005 C 
HETATM   33  C17 UNL     1      27.337   9.720  -2.013  1.00  0.00     0.000 C 
HETATM   34  C18 UNL     1      26.300  10.602  -1.324  1.00  0.00     0.000 C 
HETATM   35  C19 UNL     1      26.883  11.016   0.001  1.00  0.00     0.000 C 
HETATM   36  C20 UNL     1      27.880   9.960   0.439  1.00  0.00     0.005 C 
ENDBRANCH  30  31
ENDBRANCH  28  30
ENDBRANCH   1  22
TORSDOF 9
ENDMDL
MODEL 4
REMARK VINA RESULT: -9.086898804      2.804      7.386
REMARK  9 active torsions:
REMARK  status: ('A' for Active; 'I' for Inactive)
REMARK       I    between atoms: C1_4  and  N3_6 
REMARK    1  A    between atoms: N3_6  and  C2_8 
REMARK    2  A    between atoms: C2_8  and  C3_9 
REMARK    3  A    between atoms: C3_9  and  C4_10 
REMARK    4  A    between atoms: C4_10  and  C5_11 
REMARK    5  A    between atoms: C5_11  and  N4_12 
REMARK    6  A    between atoms: C5_11  and  C10_22 
REMARK       I    between atoms: N4_12  and  C6_14 
REMARK    7  A    between atoms: C6_14  and  C7_16 
REMARK       I    between atoms: C10_22  and  N6_24 
REMARK    8  A    between atoms: C13_27  and  C14_28 
REMARK    9  A    between atoms: C14_28  and  C15_29 
ROOT
HETATM    1  C5  UNL     1      34.367   7.096   1.441  1.00  0.00     0.176 C 
ENDROOT
BRANCH   1   2
HETATM    2  C4  UNL     1      34.564   5.664   1.172  1.00  0.00     0.036 C 
BRANCH   2   3
HETATM    3  C3  UNL     1      35.073   4.802   2.266  1.00  0.00     0.022 C 
BRANCH   3   4
HETATM    4  C2  UNL     1      34.665   3.378   2.197  1.00  0.00     0.122 C 
BRANCH   4   5
HETATM    5  N3  UNL     1      34.444   3.012   0.804  1.00  0.00    -0.365 N 
HETATM    6  C1  UNL     1      33.170   2.746   0.274  1.00  0.00     0.181 C 
HETATM    7  N1  UNL     1      32.059   3.073   0.820  1.00  0.00    -0.374 N 
HETATM    8  N2  UNL     1      33.089   2.053  -0.981  1.00  0.00    -0.064 NA
ATOM      9  H12 UNL     1      31.134   2.880   0.435  1.00  0.00     0.158 HD
ATOM     10  H11 UNL     1      32.116   3.566   1.711  1.00  0.00     0.158 HD
ATOM     11  H3  UNL     1      35.252   2.946   0.184  1.00  0.00     0.162 HD
ENDBRANCH   4   5
ENDBRANCH   3   4
ENDBRANCH   2   3
ENDBRANCH   1   2
BRANCH   1  12
HETATM   12  N4  UNL     1      33.881   7.899   0.358  1.00  0.00    -0.346 N 
HETATM   13  C6  UNL     1      32.762   8.765   0.464  1.00  0.00     0.249 C 
HETATM   14  O1  UNL     1      32.158   8.843   1.550  1.00  0.00    -0.271 OA
ATOM     15  H4  UNL     1      34.365   7.845  -0.538  1.00  0.00     0.163 HD
BRANCH  13  16
HETATM   16  C7  UNL     1      32.330   9.552  -0.694  1.00  0.00     0.278 C 
HETATM   17  C8  UNL     1      31.573   8.775  -1.752  1.00  0.00     0.070 C 
HETATM   18  C9  UNL     1      32.577   9.354  -2.725  1.00  0.00     0.236 C 
HETATM   19  N5  UNL     1      33.427   9.728  -1.634  1.00  0.00    -0.062 N 
ATOM     20  H52 UNL     1      33.928  10.616  -1.666  1.00  0.00     0.278 HD
ATOM     21  H51 UNL     1      34.306   9.231  -1.485  1.00  0.00     0.278 HD
ENDBRANCH  13  16
ENDBRANCH   1  12
BRANCH   1  22
HETATM   22  C10 UNL     1      35.643   7.758   1.903  1.00  0.00     0.242 C 
HETATM   23  O2  UNL     1      36.576   7.820   1.058  1.00  0.00    -0.271 OA
HETATM   24  N6  UNL     1      35.834   8.293   3.190  1.00  0.00    -0.350 N 
HETATM   25  C11 UNL     1      34.758   8.300   4.144  1.00  0.00     0.126 C 
HETATM   26  C22 UNL     1      37.132   8.815   3.521  1.00  0.00     0.126 C 
HETATM   27  C12 UNL     1      34.746   9.649   4.852  1.00  0.00     0.024 C 
HETATM   28  C13 UNL     1      36.073   9.876   5.543  1.00  0.00    -0.011 C 
HETATM   29  C21 UNL     1      37.144   9.933   4.506  1.00  0.00     0.024 C 
BRANCH  28  30
HETATM   30  C14 UNL     1      35.964  11.191   6.256  1.00  0.00     0.009 C 
BRANCH  30  31
HETATM   31  C15 UNL     1      35.046  12.192   5.676  1.00  0.00    -0.014 C 
HETATM   32  C16 UNL     1      35.677  13.215   4.793  1.00  0.00     0.005 C 
HETATM   33  C17 UNL     1      34.851  14.484   4.899  1.00  0.00     0.000 C 
HETATM   34  C18 UNL     1      35.263  15.147   6.210  1.00  0.00     0.000 C 
HETATM   35  C19 UNL     1      35.333  14.063   7.252  1.00  0.00     0.000 C 
HETATM   36  C20 UNL     1      34.394  12.943   6.845  1.00  0.00     0.005 C 
ENDBRANCH  30  31
ENDBRANCH  28  30
ENDBRANCH   1  22
TORSDOF 9
ENDMDL
MODEL 5
REMARK VINA RESULT: -9.046001550      2.606      6.025
REMARK  9 active torsions:
REMARK  status: ('A' for Active; 'I' for Inactive)
REMARK       I    between atoms: C1_4  and  N3_6 
REMARK    1  A    between atoms: N3_6  and  C2_8 
REMARK    2  A    between atoms: C2_8  and  C3_9 
REMARK    3  A    between atoms: C3_9  and  C4_10 
REMARK    4  A    between atoms: C4_10  and  C5_11 
REMARK    5  A    between atoms: C5_11  and  N4_12 
REMARK    6  A    between atoms: C5_11  and  C10_22 
REMARK       I    between atoms: N4_12  and  C6_14 
REMARK    7  A    between atoms: C6_14  and  C7_16 
REMARK       I    between atoms: C10_22  and  N6_24 
REMARK    8  A    between atoms: C13_27  and  C14_28 
REMARK    9  A    between atoms: C14_28  and  C15_29 
ROOT
HETATM    1  C5  UNL     1      35.530  10.204   3.639  1.00  0.00     0.176 C 
ENDROOT
BRANCH   1   2
HETATM    2  C4  UNL     1      36.125   8.894   3.940  1.00  0.00     0.036 C 
BRANCH   2   3
HETATM    3  C3  UNL     1      37.022   8.275   2.935  1.00  0.00     0.022 C 
BRANCH   3   4
HETATM    4  C2  UNL     1      36.347   7.482   1.879  1.00  0.00     0.122 C 
BRANCH   4   5
HETATM    5  N3  UNL     1      36.114   6.131   2.373  1.00  0.00    -0.365 N 
HETATM    6  C1  UNL     1      34.881   5.468   2.239  1.00  0.00     0.181 C 
HETATM    7  N1  UNL     1      33.943   5.808   1.437  1.00  0.00    -0.374 N 
HETATM    8  N2  UNL     1      34.640   4.315   3.059  1.00  0.00    -0.064 NA
ATOM      9  H12 UNL     1      33.049   5.327   1.340  1.00  0.00     0.158 HD
ATOM     10  H11 UNL     1      34.115   6.627   0.854  1.00  0.00     0.158 HD
ATOM     11  H3  UNL     1      36.880   5.644   2.838  1.00  0.00     0.162 HD
ENDBRANCH   4   5
ENDBRANCH   3   4
ENDBRANCH   2   3
ENDBRANCH   1   2
BRANCH   1  12
HETATM   12  N4  UNL     1      36.266  11.362   4.054  1.00  0.00    -0.346 N 
HETATM   13  C6  UNL     1      36.487  12.490   3.224  1.00  0.00     0.249 C 
HETATM   14  O1  UNL     1      36.023  12.491   2.068  1.00  0.00    -0.271 OA
ATOM     15  H4  UNL     1      36.653  11.375   4.998  1.00  0.00     0.163 HD
BRANCH  13  16
HETATM   16  C7  UNL     1      37.251  13.634   3.727  1.00  0.00     0.278 C 
HETATM   17  C8  UNL     1      36.468  14.597   4.597  1.00  0.00     0.070 C 
HETATM   18  C9  UNL     1      36.979  15.671   3.662  1.00  0.00     0.236 C 
HETATM   19  N5  UNL     1      37.358  14.670   2.710  1.00  0.00    -0.062 N 
ATOM     20  H52 UNL     1      38.227  14.775   2.185  1.00  0.00     0.278 HD
ATOM     21  H51 UNL     1      36.836  14.577   1.838  1.00  0.00     0.278 HD
ENDBRANCH  13  16
ENDBRANCH   1  12
BRANCH   1  22
HETATM   22  C10 UNL     1      34.158  10.348   4.251  1.00  0.00     0.242 C 
HETATM   23  O2  UNL     1      34.092  11.009   5.323  1.00  0.00    -0.271 OA
HETATM   24  N6  UNL     1      32.987   9.797   3.701  1.00  0.00    -0.350 N 
HETATM   25  C11 UNL     1      33.027   9.104   2.443  1.00  0.00     0.126 C 
HETATM   26  C22 UNL     1      31.760   9.938   4.439  1.00  0.00     0.126 C 
HETATM   27  C12 UNL     1      31.825   9.533   1.612  1.00  0.00     0.024 C 
HETATM   28  C13 UNL     1      30.547   9.210   2.357  1.00  0.00    -0.011 C 
HETATM   29  C21 UNL     1      30.519  10.008   3.617  1.00  0.00     0.024 C 
BRANCH  28  30
HETATM   30  C14 UNL     1      29.415   9.611   1.458  1.00  0.00     0.009 C 
BRANCH  30  31
HETATM   31  C15 UNL     1      29.671  10.716   0.513  1.00  0.00    -0.014 C 
HETATM   32  C16 UNL     1      28.833  11.935   0.699  1.00  0.00     0.005 C 
HETATM   33  C17 UNL     1      28.669  12.590  -0.660  1.00  0.00     0.000 C 
HETATM   34  C18 UNL     1      27.597  11.786  -1.390  1.00  0.00     0.000 C 
HETATM   35  C19 UNL     1      27.901  10.330  -1.155  1.00  0.00     0.000 C 
HETATM   36  C20 UNL     1      29.389  10.183  -0.898  1.00  0.00     0.005 C 
ENDBRANCH  30  31
ENDBRANCH  28  30
ENDBRANCH   1  22
TORSDOF 9
ENDMDL
