MODEL 1
REMARK VINA RESULT: -7.905323061      0.000      0.000
REMARK  9 active torsions:
REMARK  status: ('A' for Active; 'I' for Inactive)
REMARK    1  A    between atoms: N1_1  and  C1_4 
REMARK    2  A    between atoms: C3_11  and  N4_12 
REMARK    3  A    between atoms: N4_12  and  C4_14 
REMARK    4  A    between atoms: C4_14  and  C5_15 
REMARK    5  A    between atoms: C5_15  and  C6_16 
REMARK    6  A    between atoms: C6_16  and  C7_17 
REMARK    7  A    between atoms: C7_17  and  C8_18 
REMARK    8  A    between atoms: C8_18  and  C9_19 
REMARK    9  A    between atoms: C9_19  and  N5_20 
ROOT
HETATM    1  N4  UNL     1      35.160   6.805   0.447  1.00  0.00    -0.225 N 
ATOM      2  H4  UNL     1      35.344   6.908  -0.551  1.00  0.00     0.177 HD
ENDROOT
BRANCH   1   3
HETATM    3  C3  UNL     1      34.826   5.642   0.890  1.00  0.00     0.696 A 
HETATM    4  N3  UNL     1      35.574   5.001   1.801  1.00  0.00    -0.140 N 
HETATM    5  C2  UNL     1      35.226   3.779   2.272  1.00  0.00     0.352 A 
ATOM      6  H3  UNL     1      36.426   5.444   2.146  1.00  0.00     0.189 HD
HETATM    7  N2  UNL     1      34.107   3.162   1.839  1.00  0.00    -0.141 N 
HETATM    8  O1  UNL     1      35.949   3.202   3.126  1.00  0.00    -0.246 OA
HETATM    9  C1  UNL     1      33.353   3.802   0.925  1.00  0.00     0.694 A 
ATOM     10  H2  UNL     1      33.841   2.243   2.192  1.00  0.00     0.189 HD
HETATM   11  N6  UNL     1      33.713   5.013   0.467  1.00  0.00    -0.022 N 
ATOM     12  H6  UNL     1      33.122   5.473  -0.226  1.00  0.00     0.203 HD
BRANCH   9  13
HETATM   13  N1  UNL     1      32.280   3.220   0.502  1.00  0.00    -0.234 N 
ATOM     14  H12 UNL     1      32.307   2.273   0.123  1.00  0.00     0.174 HD
ATOM     15  H11 UNL     1      31.399   3.732   0.556  1.00  0.00     0.174 HD
ENDBRANCH   9  13
ENDBRANCH   1   3
BRANCH   1  16
HETATM   16  C4  UNL     1      35.286   7.971   1.293  1.00  0.00     0.138 C 
BRANCH  16  17
HETATM   17  C5  UNL     1      36.699   8.295   1.626  1.00  0.00     0.020 C 
BRANCH  17  18
HETATM   18  C6  UNL     1      36.955   8.134   3.092  1.00  0.00     0.002 C 
BRANCH  18  19
HETATM   19  C7  UNL     1      36.976   9.458   3.775  1.00  0.00     0.002 C 
BRANCH  19  20
HETATM   20  C8  UNL     1      36.209   9.427   5.089  1.00  0.00     0.019 C 
BRANCH  20  21
HETATM   21  C9  UNL     1      34.835   8.875   4.811  1.00  0.00     0.117 C 
BRANCH  21  22
HETATM   22  N5  UNL     1      33.991   9.913   4.332  1.00  0.00    -0.412 N 
HETATM   23  C10 UNL     1      33.701  10.981   5.212  1.00  0.00     0.117 C 
HETATM   24  C11 UNL     1      32.512  10.584   6.067  1.00  0.00     0.019 C 
HETATM   25  C12 UNL     1      31.328  10.552   5.133  1.00  0.00     0.003 C 
HETATM   26  C13 UNL     1      31.546   9.802   3.876  1.00  0.00     0.019 C 
HETATM   27  C14 UNL     1      32.932   9.493   3.480  1.00  0.00     0.117 C 
ENDBRANCH  21  22
ENDBRANCH  20  21
ENDBRANCH  19  20
ENDBRANCH  18  19
ENDBRANCH  17  18
ENDBRANCH  16  17
ENDBRANCH   1  16
TORSDOF 9
ENDMDL
MODEL 2
REMARK VINA RESULT: -7.793278678      1.328      1.950
REMARK  9 active torsions:
REMARK  status: ('A' for Active; 'I' for Inactive)
REMARK    1  A    between atoms: N1_1  and  C1_4 
REMARK    2  A    between atoms: C3_11  and  N4_12 
REMARK    3  A    between atoms: N4_12  and  C4_14 
REMARK    4  A    between atoms: C4_14  and  C5_15 
REMARK    5  A    between atoms: C5_15  and  C6_16 
REMARK    6  A    between atoms: C6_16  and  C7_17 
REMARK    7  A    between atoms: C7_17  and  C8_18 
REMARK    8  A    between atoms: C8_18  and  C9_19 
REMARK    9  A    between atoms: C9_19  and  N5_20 
ROOT
HETATM    1  N4  UNL     1      34.942   7.414   1.507  1.00  0.00    -0.225 N 
ATOM      2  H4  UNL     1      34.129   8.006   1.670  1.00  0.00     0.177 HD
ENDROOT
BRANCH   1   3
HETATM    3  C3  UNL     1      34.771   6.138   1.462  1.00  0.00     0.696 A 
HETATM    4  N3  UNL     1      33.704   5.598   0.853  1.00  0.00    -0.140 N 
HETATM    5  C2  UNL     1      33.521   4.255   0.801  1.00  0.00     0.352 A 
ATOM      6  H3  UNL     1      33.014   6.212   0.420  1.00  0.00     0.189 HD
HETATM    7  N2  UNL     1      34.412   3.412   1.362  1.00  0.00    -0.141 N 
HETATM    8  O1  UNL     1      32.509   3.779   0.224  1.00  0.00    -0.246 OA
HETATM    9  C1  UNL     1      35.485   3.950   1.974  1.00  0.00     0.694 A 
ATOM     10  H2  UNL     1      34.278   2.402   1.324  1.00  0.00     0.189 HD
HETATM   11  N6  UNL     1      35.651   5.283   2.018  1.00  0.00    -0.022 N 
ATOM     12  H6  UNL     1      36.472   5.661   2.489  1.00  0.00     0.203 HD
BRANCH   9  13
HETATM   13  N1  UNL     1      36.344   3.152   2.516  1.00  0.00    -0.234 N 
ATOM     14  H12 UNL     1      36.063   2.484   3.234  1.00  0.00     0.174 HD
ATOM     15  H11 UNL     1      37.315   3.205   2.207  1.00  0.00     0.174 HD
ENDBRANCH   9  13
ENDBRANCH   1   3
BRANCH   1  16
HETATM   16  C4  UNL     1      36.232   8.048   1.336  1.00  0.00     0.138 C 
BRANCH  16  17
HETATM   17  C5  UNL     1      36.460   9.162   2.296  1.00  0.00     0.020 C 
BRANCH  17  18
HETATM   18  C6  UNL     1      37.117   8.666   3.546  1.00  0.00     0.002 C 
BRANCH  18  19
HETATM   19  C7  UNL     1      36.522   9.313   4.749  1.00  0.00     0.002 C 
BRANCH  19  20
HETATM   20  C8  UNL     1      35.075   8.889   4.961  1.00  0.00     0.019 C 
BRANCH  20  21
HETATM   21  C9  UNL     1      34.326  10.067   5.529  1.00  0.00     0.117 C 
BRANCH  21  22
HETATM   22  N5  UNL     1      33.465  10.609   4.537  1.00  0.00    -0.412 N 
HETATM   23  C10 UNL     1      32.502  11.558   4.953  1.00  0.00     0.117 C 
HETATM   24  C11 UNL     1      31.271  10.810   5.430  1.00  0.00     0.019 C 
HETATM   25  C12 UNL     1      30.662  10.193   4.195  1.00  0.00     0.003 C 
HETATM   26  C13 UNL     1      31.615   9.460   3.331  1.00  0.00     0.019 C 
HETATM   27  C14 UNL     1      33.056   9.701   3.522  1.00  0.00     0.117 C 
ENDBRANCH  21  22
ENDBRANCH  20  21
ENDBRANCH  19  20
ENDBRANCH  18  19
ENDBRANCH  17  18
ENDBRANCH  16  17
ENDBRANCH   1  16
TORSDOF 9
ENDMDL
MODEL 3
REMARK VINA RESULT: -7.766193278      1.478      2.359
REMARK  9 active torsions:
REMARK  status: ('A' for Active; 'I' for Inactive)
REMARK    1  A    between atoms: N1_1  and  C1_4 
REMARK    2  A    between atoms: C3_11  and  N4_12 
REMARK    3  A    between atoms: N4_12  and  C4_14 
REMARK    4  A    between atoms: C4_14  and  C5_15 
REMARK    5  A    between atoms: C5_15  and  C6_16 
REMARK    6  A    between atoms: C6_16  and  C7_17 
REMARK    7  A    between atoms: C7_17  and  C8_18 
REMARK    8  A    between atoms: C8_18  and  C9_19 
REMARK    9  A    between atoms: C9_19  and  N5_20 
ROOT
HETATM    1  N4  UNL     1      37.369   7.598   1.991  1.00  0.00    -0.225 N 
ATOM      2  H4  UNL     1      38.062   7.662   1.245  1.00  0.00     0.177 HD
ENDROOT
BRANCH   1   3
HETATM    3  C3  UNL     1      36.244   7.028   1.733  1.00  0.00     0.696 A 
HETATM    4  N3  UNL     1      35.884   5.887   2.340  1.00  0.00    -0.140 N 
HETATM    5  C2  UNL     1      34.699   5.284   2.074  1.00  0.00     0.352 A 
ATOM      6  H3  UNL     1      36.517   5.463   3.019  1.00  0.00     0.189 HD
HETATM    7  N2  UNL     1      33.836   5.815   1.184  1.00  0.00    -0.141 N 
HETATM    8  O1  UNL     1      34.390   4.214   2.660  1.00  0.00    -0.246 OA
HETATM    9  C1  UNL     1      34.193   6.961   0.571  1.00  0.00     0.694 A 
ATOM     10  H2  UNL     1      32.944   5.365   0.981  1.00  0.00     0.189 HD
HETATM   11  N6  UNL     1      35.372   7.545   0.846  1.00  0.00    -0.022 N 
ATOM     12  H6  UNL     1      35.616   8.411   0.365  1.00  0.00     0.203 HD
BRANCH   9  13
HETATM   13  N1  UNL     1      33.375   7.477  -0.285  1.00  0.00    -0.234 N 
ATOM     14  H12 UNL     1      32.432   7.107  -0.403  1.00  0.00     0.174 HD
ATOM     15  H11 UNL     1      33.696   8.269  -0.842  1.00  0.00     0.174 HD
ENDBRANCH   9  13
ENDBRANCH   1   3
BRANCH   1  16
HETATM   16  C4  UNL     1      37.700   8.154   3.285  1.00  0.00     0.138 C 
BRANCH  16  17
HETATM   17  C5  UNL     1      36.949   9.401   3.590  1.00  0.00     0.020 C 
BRANCH  17  18
HETATM   18  C6  UNL     1      37.289   9.911   4.955  1.00  0.00     0.002 C 
BRANCH  18  19
HETATM   19  C7  UNL     1      36.055  10.264   5.711  1.00  0.00     0.002 C 
BRANCH  19  20
HETATM   20  C8  UNL     1      34.957   9.228   5.516  1.00  0.00     0.019 C 
BRANCH  20  21
HETATM   21  C9  UNL     1      33.631   9.917   5.708  1.00  0.00     0.117 C 
BRANCH  21  22
HETATM   22  N5  UNL     1      33.130  10.348   4.450  1.00  0.00    -0.412 N 
HETATM   23  C10 UNL     1      32.008  11.210   4.451  1.00  0.00     0.117 C 
HETATM   24  C11 UNL     1      30.754  10.359   4.514  1.00  0.00     0.019 C 
HETATM   25  C12 UNL     1      30.669   9.655   3.182  1.00  0.00     0.003 C 
HETATM   26  C13 UNL     1      31.921   8.997   2.745  1.00  0.00     0.019 C 
HETATM   27  C14 UNL     1      33.179   9.380   3.409  1.00  0.00     0.117 C 
ENDBRANCH  21  22
ENDBRANCH  20  21
ENDBRANCH  19  20
ENDBRANCH  18  19
ENDBRANCH  17  18
ENDBRANCH  16  17
ENDBRANCH   1  16
TORSDOF 9
ENDMDL
MODEL 4
REMARK VINA RESULT: -7.747401692      0.878      1.211
REMARK  9 active torsions:
REMARK  status: ('A' for Active; 'I' for Inactive)
REMARK    1  A    between atoms: N1_1  and  C1_4 
REMARK    2  A    between atoms: C3_11  and  N4_12 
REMARK    3  A    between atoms: N4_12  and  C4_14 
REMARK    4  A    between atoms: C4_14  and  C5_15 
REMARK    5  A    between atoms: C5_15  and  C6_16 
REMARK    6  A    between atoms: C6_16  and  C7_17 
REMARK    7  A    between atoms: C7_17  and  C8_18 
REMARK    8  A    between atoms: C8_18  and  C9_19 
REMARK    9  A    between atoms: C9_19  and  N5_20 
ROOT
HETATM    1  N4  UNL     1      34.800   6.997   0.479  1.00  0.00    -0.225 N 
ATOM      2  H4  UNL     1      35.117   7.131  -0.481  1.00  0.00     0.177 HD
ENDROOT
BRANCH   1   3
HETATM    3  C3  UNL     1      34.585   5.796   0.891  1.00  0.00     0.696 A 
HETATM    4  N3  UNL     1      35.400   5.205   1.778  1.00  0.00    -0.140 N 
HETATM    5  C2  UNL     1      35.176   3.942   2.216  1.00  0.00     0.352 A 
ATOM      6  H3  UNL     1      36.208   5.719   2.130  1.00  0.00     0.189 HD
HETATM    7  N2  UNL     1      34.118   3.233   1.773  1.00  0.00    -0.141 N 
HETATM    8  O1  UNL     1      35.960   3.415   3.048  1.00  0.00    -0.246 OA
HETATM    9  C1  UNL     1      33.296   3.822   0.882  1.00  0.00     0.694 A 
ATOM     10  H2  UNL     1      33.945   2.283   2.101  1.00  0.00     0.189 HD
HETATM   11  N6  UNL     1      33.534   5.074   0.457  1.00  0.00    -0.022 N 
ATOM     12  H6  UNL     1      32.895   5.494  -0.218  1.00  0.00     0.203 HD
BRANCH   9  13
HETATM   13  N1  UNL     1      32.281   3.151   0.450  1.00  0.00    -0.234 N 
ATOM     14  H12 UNL     1      31.520   2.885   1.075  1.00  0.00     0.174 HD
ATOM     15  H11 UNL     1      32.257   2.893  -0.537  1.00  0.00     0.174 HD
ENDBRANCH   9  13
ENDBRANCH   1   3
BRANCH   1  16
HETATM   16  C4  UNL     1      34.616   8.167   1.310  1.00  0.00     0.138 C 
BRANCH  16  17
HETATM   17  C5  UNL     1      35.765   9.110   1.246  1.00  0.00     0.020 C 
BRANCH  17  18
HETATM   18  C6  UNL     1      37.031   8.443   1.684  1.00  0.00     0.002 C 
BRANCH  18  19
HETATM   19  C7  UNL     1      37.044   8.251   3.161  1.00  0.00     0.002 C 
BRANCH  19  20
HETATM   20  C8  UNL     1      37.138   9.577   3.902  1.00  0.00     0.019 C 
BRANCH  20  21
HETATM   21  C9  UNL     1      36.278   9.479   5.136  1.00  0.00     0.117 C 
BRANCH  21  22
HETATM   22  N5  UNL     1      35.300  10.510   5.120  1.00  0.00    -0.412 N 
HETATM   23  C10 UNL     1      35.097  11.241   6.313  1.00  0.00     0.117 C 
HETATM   24  C11 UNL     1      34.099  10.484   7.171  1.00  0.00     0.019 C 
HETATM   25  C12 UNL     1      32.777  10.589   6.452  1.00  0.00     0.003 C 
HETATM   26  C13 UNL     1      32.825  10.261   5.009  1.00  0.00     0.019 C 
HETATM   27  C14 UNL     1      34.139  10.236   4.343  1.00  0.00     0.117 C 
ENDBRANCH  21  22
ENDBRANCH  20  21
ENDBRANCH  19  20
ENDBRANCH  18  19
ENDBRANCH  17  18
ENDBRANCH  16  17
ENDBRANCH   1  16
TORSDOF 9
ENDMDL
MODEL 5
REMARK VINA RESULT: -7.718577975      1.140      2.864
REMARK  9 active torsions:
REMARK  status: ('A' for Active; 'I' for Inactive)
REMARK    1  A    between atoms: N1_1  and  C1_4 
REMARK    2  A    between atoms: C3_11  and  N4_12 
REMARK    3  A    between atoms: N4_12  and  C4_14 
REMARK    4  A    between atoms: C4_14  and  C5_15 
REMARK    5  A    between atoms: C5_15  and  C6_16 
REMARK    6  A    between atoms: C6_16  and  C7_17 
REMARK    7  A    between atoms: C7_17  and  C8_18 
REMARK    8  A    between atoms: C8_18  and  C9_19 
REMARK    9  A    between atoms: C9_19  and  N5_20 
ROOT
HETATM    1  N4  UNL     1      34.904   6.735   0.179  1.00  0.00    -0.225 N 
ATOM      2  H4  UNL     1      35.855   6.905  -0.147  1.00  0.00     0.177 HD
ENDROOT
BRANCH   1   3
HETATM    3  C3  UNL     1      34.636   5.595   0.716  1.00  0.00     0.696 A 
HETATM    4  N3  UNL     1      35.452   5.044   1.628  1.00  0.00    -0.140 N 
HETATM    5  C2  UNL     1      35.172   3.846   2.198  1.00  0.00     0.352 A 
ATOM      6  H3  UNL     1      36.302   5.539   1.899  1.00  0.00     0.189 HD
HETATM    7  N2  UNL     1      34.057   3.164   1.865  1.00  0.00    -0.141 N 
HETATM    8  O1  UNL     1      35.957   3.355   3.050  1.00  0.00    -0.246 OA
HETATM    9  C1  UNL     1      33.236   3.713   0.949  1.00  0.00     0.694 A 
ATOM     10  H2  UNL     1      33.844   2.263   2.292  1.00  0.00     0.189 HD
HETATM   11  N6  UNL     1      33.528   4.901   0.393  1.00  0.00    -0.022 N 
ATOM     12  H6  UNL     1      32.888   5.291  -0.298  1.00  0.00     0.203 HD
BRANCH   9  13
HETATM   13  N1  UNL     1      32.166   3.067   0.621  1.00  0.00    -0.234 N 
ATOM     14  H12 UNL     1      32.177   2.054   0.504  1.00  0.00     0.174 HD
ATOM     15  H11 UNL     1      31.305   3.597   0.483  1.00  0.00     0.174 HD
ENDBRANCH   9  13
ENDBRANCH   1   3
BRANCH   1  16
HETATM   16  C4  UNL     1      33.923   7.786   0.014  1.00  0.00     0.138 C 
BRANCH  16  17
HETATM   17  C5  UNL     1      34.428   9.120   0.436  1.00  0.00     0.020 C 
BRANCH  17  18
HETATM   18  C6  UNL     1      33.295  10.039   0.771  1.00  0.00     0.002 C 
BRANCH  18  19
HETATM   19  C7  UNL     1      33.364  10.467   2.197  1.00  0.00     0.002 C 
BRANCH  19  20
HETATM   20  C8  UNL     1      33.140   9.299   3.147  1.00  0.00     0.019 C 
BRANCH  20  21
HETATM   21  C9  UNL     1      33.655   9.702   4.505  1.00  0.00     0.117 C 
BRANCH  21  22
HETATM   22  N5  UNL     1      34.812   8.941   4.822  1.00  0.00    -0.412 N 
HETATM   23  C10 UNL     1      35.892   9.615   5.438  1.00  0.00     0.117 C 
HETATM   24  C11 UNL     1      36.752  10.230   4.349  1.00  0.00     0.019 C 
HETATM   25  C12 UNL     1      37.406   9.072   3.638  1.00  0.00     0.003 C 
HETATM   26  C13 UNL     1      36.484   7.981   3.247  1.00  0.00     0.019 C 
HETATM   27  C14 UNL     1      35.155   7.931   3.880  1.00  0.00     0.117 C 
ENDBRANCH  21  22
ENDBRANCH  20  21
ENDBRANCH  19  20
ENDBRANCH  18  19
ENDBRANCH  17  18
ENDBRANCH  16  17
ENDBRANCH   1  16
TORSDOF 9
ENDMDL
