MODEL 1
REMARK VINA RESULT: -7.051594432      0.000      0.000
REMARK  9 active torsions:
REMARK  status: ('A' for Active; 'I' for Inactive)
REMARK    1  A    between atoms: C2_2  and  N1_3 
REMARK    2  A    between atoms: N1_3  and  C3_5 
REMARK    3  A    between atoms: C6_13  and  N4_14 
REMARK    4  A    between atoms: N4_14  and  C7_16 
REMARK    5  A    between atoms: C7_16  and  C8_17 
REMARK    6  A    between atoms: C8_17  and  C9_18 
REMARK    7  A    between atoms: C9_18  and  C10_19 
REMARK    8  A    between atoms: C10_19  and  C11_20 
REMARK    9  A    between atoms: C11_20  and  O2_21 
ROOT
HETATM    1  C3  UNL     1      34.800   5.627   1.386  1.00  0.00     0.682 A 
HETATM    2  N2  UNL     1      36.010   6.205   1.346  1.00  0.00    -0.154 N 
ATOM      3  H2  UNL     1      36.842   5.651   1.140  1.00  0.00     0.187 HD
HETATM    4  C4  UNL     1      36.111   7.524   1.581  1.00  0.00     0.290 A 
HETATM    5  O1  UNL     1      37.235   8.070   1.546  1.00  0.00    -0.265 OA
HETATM    6  C5  UNL     1      34.964   8.242   1.857  1.00  0.00     0.162 A 
HETATM    7  N3  UNL     1      34.715   9.531   2.130  1.00  0.00    -0.182 N 
ATOM      8  H3  UNL     1      35.428  10.259   2.178  1.00  0.00     0.184 HD
HETATM    9  C6  UNL     1      33.411   9.736   2.329  1.00  0.00     0.680 A 
HETATM   10  N5  UNL     1      32.810   8.545   2.178  1.00  0.00    -0.174 N 
ATOM     11  H5  UNL     1      31.808   8.372   2.267  1.00  0.00     0.186 HD
HETATM   12  C13 UNL     1      33.734   7.619   1.891  1.00  0.00     0.169 A 
HETATM   13  N6  UNL     1      33.659   6.301   1.653  1.00  0.00    -0.174 N 
ATOM     14  H6  UNL     1      32.761   5.818   1.672  1.00  0.00     0.186 HD
ENDROOT
BRANCH   9  15
HETATM   15  N4  UNL     1      32.801  10.825   2.608  1.00  0.00    -0.226 N 
ATOM     16  H4  UNL     1      32.239  11.268   1.882  1.00  0.00     0.177 HD
BRANCH  15  17
HETATM   17  C7  UNL     1      32.872  11.460   3.913  1.00  0.00     0.138 C 
BRANCH  17  18
HETATM   18  C8  UNL     1      32.076  10.655   4.885  1.00  0.00     0.020 C 
BRANCH  18  19
HETATM   19  C9  UNL     1      32.779  10.468   6.231  1.00  0.00     0.004 C 
BRANCH  19  20
HETATM   20  C10 UNL     1      34.243  10.361   6.081  1.00  0.00     0.026 C 
BRANCH  20  21
HETATM   21  C11 UNL     1      34.834   9.052   5.745  1.00  0.00     0.167 C 
BRANCH  21  22
HETATM   22  O2  UNL     1      35.951   8.888   5.069  1.00  0.00    -0.396 OA
HETATM   23  C12 UNL     1      36.996   9.696   4.977  1.00  0.00     0.201 C 
ENDBRANCH  21  22
ENDBRANCH  20  21
ENDBRANCH  19  20
ENDBRANCH  18  19
ENDBRANCH  17  18
ENDBRANCH  15  17
ENDBRANCH   9  15
BRANCH   1  24
HETATM   24  N1  UNL     1      34.732   4.347   1.154  1.00  0.00    -0.226 N 
ATOM     25  H1  UNL     1      35.507   3.740   1.419  1.00  0.00     0.177 HD
BRANCH  24  26
HETATM   26  C2  UNL     1      33.559   3.785   0.522  1.00  0.00     0.133 C 
HETATM   27  C1  UNL     1      33.987   2.802  -0.539  1.00  0.00     0.027 C 
ENDBRANCH  24  26
ENDBRANCH   1  24
TORSDOF 9
ENDMDL
MODEL 2
REMARK VINA RESULT: -6.761630997      3.191      4.710
REMARK  9 active torsions:
REMARK  status: ('A' for Active; 'I' for Inactive)
REMARK    1  A    between atoms: C2_2  and  N1_3 
REMARK    2  A    between atoms: N1_3  and  C3_5 
REMARK    3  A    between atoms: C6_13  and  N4_14 
REMARK    4  A    between atoms: N4_14  and  C7_16 
REMARK    5  A    between atoms: C7_16  and  C8_17 
REMARK    6  A    between atoms: C8_17  and  C9_18 
REMARK    7  A    between atoms: C9_18  and  C10_19 
REMARK    8  A    between atoms: C10_19  and  C11_20 
REMARK    9  A    between atoms: C11_20  and  O2_21 
ROOT
HETATM    1  C3  UNL     1      35.327   5.732   1.871  1.00  0.00     0.682 A 
HETATM    2  N2  UNL     1      36.354   6.553   1.608  1.00  0.00    -0.154 N 
ATOM      3  H2  UNL     1      37.303   6.187   1.529  1.00  0.00     0.187 HD
HETATM    4  C4  UNL     1      36.115   7.866   1.449  1.00  0.00     0.290 A 
HETATM    5  O1  UNL     1      37.067   8.638   1.204  1.00  0.00    -0.265 OA
HETATM    6  C5  UNL     1      34.818   8.326   1.562  1.00  0.00     0.162 A 
HETATM    7  N3  UNL     1      34.247   9.536   1.464  1.00  0.00    -0.182 N 
ATOM      8  H3  UNL     1      34.754  10.399   1.267  1.00  0.00     0.184 HD
HETATM    9  C6  UNL     1      32.929   9.462   1.659  1.00  0.00     0.680 A 
HETATM   10  N5  UNL     1      32.649   8.168   1.886  1.00  0.00    -0.174 N 
ATOM     11  H5  UNL     1      31.721   7.787   2.069  1.00  0.00     0.186 HD
HETATM   12  C13 UNL     1      33.783   7.457   1.833  1.00  0.00     0.169 A 
HETATM   13  N6  UNL     1      34.046   6.151   1.987  1.00  0.00    -0.174 N 
ATOM     14  H6  UNL     1      33.297   5.488   2.188  1.00  0.00     0.186 HD
ENDROOT
BRANCH   9  15
HETATM   15  N4  UNL     1      32.059  10.399   1.643  1.00  0.00    -0.226 N 
ATOM     16  H4  UNL     1      31.748  10.789   2.532  1.00  0.00     0.177 HD
BRANCH  15  17
HETATM   17  C7  UNL     1      31.494  10.935   0.416  1.00  0.00     0.138 C 
BRANCH  17  18
HETATM   18  C8  UNL     1      30.377  10.049  -0.027  1.00  0.00     0.020 C 
BRANCH  18  19
HETATM   19  C9  UNL     1      29.569  10.634  -1.187  1.00  0.00     0.004 C 
BRANCH  19  20
HETATM   20  C10 UNL     1      29.428   9.676  -2.301  1.00  0.00     0.026 C 
BRANCH  20  21
HETATM   21  C11 UNL     1      30.600   8.882  -2.714  1.00  0.00     0.167 C 
BRANCH  21  22
HETATM   22  O2  UNL     1      31.699   9.387  -3.234  1.00  0.00    -0.396 OA
HETATM   23  C12 UNL     1      32.918   9.439  -2.720  1.00  0.00     0.201 C 
ENDBRANCH  21  22
ENDBRANCH  20  21
ENDBRANCH  19  20
ENDBRANCH  18  19
ENDBRANCH  17  18
ENDBRANCH  15  17
ENDBRANCH   9  15
BRANCH   1  24
HETATM   24  N1  UNL     1      35.586   4.464   2.020  1.00  0.00    -0.226 N 
ATOM     25  H1  UNL     1      36.553   4.147   2.080  1.00  0.00     0.177 HD
BRANCH  24  26
HETATM   26  C2  UNL     1      34.507   3.506   2.100  1.00  0.00     0.133 C 
HETATM   27  C1  UNL     1      34.392   2.773   0.787  1.00  0.00     0.027 C 
ENDBRANCH  24  26
ENDBRANCH   1  24
TORSDOF 9
ENDMDL
MODEL 3
REMARK VINA RESULT: -6.757838641      1.841      2.777
REMARK  9 active torsions:
REMARK  status: ('A' for Active; 'I' for Inactive)
REMARK    1  A    between atoms: C2_2  and  N1_3 
REMARK    2  A    between atoms: N1_3  and  C3_5 
REMARK    3  A    between atoms: C6_13  and  N4_14 
REMARK    4  A    between atoms: N4_14  and  C7_16 
REMARK    5  A    between atoms: C7_16  and  C8_17 
REMARK    6  A    between atoms: C8_17  and  C9_18 
REMARK    7  A    between atoms: C9_18  and  C10_19 
REMARK    8  A    between atoms: C10_19  and  C11_20 
REMARK    9  A    between atoms: C11_20  and  O2_21 
ROOT
HETATM    1  C3  UNL     1      34.751   6.322   1.739  1.00  0.00     0.682 A 
HETATM    2  N2  UNL     1      35.925   6.649   1.178  1.00  0.00    -0.154 N 
ATOM      3  H2  UNL     1      36.210   6.231   0.292  1.00  0.00     0.187 HD
HETATM    4  C4  UNL     1      36.721   7.535   1.800  1.00  0.00     0.290 A 
HETATM    5  O1  UNL     1      37.817   7.845   1.284  1.00  0.00    -0.265 OA
HETATM    6  C5  UNL     1      36.303   8.081   2.998  1.00  0.00     0.162 A 
HETATM    7  N3  UNL     1      36.835   8.965   3.854  1.00  0.00    -0.182 N 
ATOM      8  H3  UNL     1      37.739   9.420   3.727  1.00  0.00     0.184 HD
HETATM    9  C6  UNL     1      36.025   9.173   4.895  1.00  0.00     0.680 A 
HETATM   10  N5  UNL     1      34.945   8.400   4.697  1.00  0.00    -0.174 N 
ATOM     11  H5  UNL     1      34.141   8.337   5.321  1.00  0.00     0.186 HD
HETATM   12  C13 UNL     1      35.091   7.724   3.550  1.00  0.00     0.169 A 
HETATM   13  N6  UNL     1      34.314   6.838   2.910  1.00  0.00    -0.174 N 
ATOM     14  H6  UNL     1      33.413   6.559   3.298  1.00  0.00     0.186 HD
ENDROOT
BRANCH   9  15
HETATM   15  N4  UNL     1      36.192   9.941   5.904  1.00  0.00    -0.226 N 
ATOM     16  H4  UNL     1      36.959   9.741   6.545  1.00  0.00     0.177 HD
BRANCH  15  17
HETATM   17  C7  UNL     1      35.339  11.085   6.177  1.00  0.00     0.138 C 
BRANCH  17  18
HETATM   18  C8  UNL     1      34.465  10.767   7.344  1.00  0.00     0.020 C 
BRANCH  18  19
HETATM   19  C9  UNL     1      33.060  10.316   6.938  1.00  0.00     0.004 C 
BRANCH  19  20
HETATM   20  C10 UNL     1      32.519  11.121   5.827  1.00  0.00     0.026 C 
BRANCH  20  21
HETATM   21  C11 UNL     1      31.691  10.458   4.801  1.00  0.00     0.167 C 
BRANCH  21  22
HETATM   22  O2  UNL     1      32.150   9.614   3.903  1.00  0.00    -0.396 OA
HETATM   23  C12 UNL     1      31.544   9.124   2.832  1.00  0.00     0.201 C 
ENDBRANCH  21  22
ENDBRANCH  20  21
ENDBRANCH  19  20
ENDBRANCH  18  19
ENDBRANCH  17  18
ENDBRANCH  15  17
ENDBRANCH   9  15
BRANCH   1  24
HETATM   24  N1  UNL     1      34.000   5.461   1.115  1.00  0.00    -0.226 N 
ATOM     25  H1  UNL     1      33.224   5.786   0.540  1.00  0.00     0.177 HD
BRANCH  24  26
HETATM   26  C2  UNL     1      34.264   4.045   1.235  1.00  0.00     0.133 C 
HETATM   27  C1  UNL     1      33.702   3.329   0.032  1.00  0.00     0.027 C 
ENDBRANCH  24  26
ENDBRANCH   1  24
TORSDOF 9
ENDMDL
MODEL 4
REMARK VINA RESULT: -6.745841642      2.818      4.203
REMARK  9 active torsions:
REMARK  status: ('A' for Active; 'I' for Inactive)
REMARK    1  A    between atoms: C2_2  and  N1_3 
REMARK    2  A    between atoms: N1_3  and  C3_5 
REMARK    3  A    between atoms: C6_13  and  N4_14 
REMARK    4  A    between atoms: N4_14  and  C7_16 
REMARK    5  A    between atoms: C7_16  and  C8_17 
REMARK    6  A    between atoms: C8_17  and  C9_18 
REMARK    7  A    between atoms: C9_18  and  C10_19 
REMARK    8  A    between atoms: C10_19  and  C11_20 
REMARK    9  A    between atoms: C11_20  and  O2_21 
ROOT
HETATM    1  C3  UNL     1      34.860   5.452   1.451  1.00  0.00     0.682 A 
HETATM    2  N2  UNL     1      36.082   5.999   1.536  1.00  0.00    -0.154 N 
ATOM      3  H2  UNL     1      36.902   5.411   1.686  1.00  0.00     0.187 HD
HETATM    4  C4  UNL     1      36.210   7.331   1.422  1.00  0.00     0.290 A 
HETATM    5  O1  UNL     1      37.346   7.848   1.500  1.00  0.00    -0.265 OA
HETATM    6  C5  UNL     1      35.078   8.095   1.219  1.00  0.00     0.162 A 
HETATM    7  N3  UNL     1      34.856   9.409   1.067  1.00  0.00    -0.182 N 
ATOM      8  H3  UNL     1      35.584  10.123   1.079  1.00  0.00     0.184 HD
HETATM    9  C6  UNL     1      33.556   9.659   0.895  1.00  0.00     0.680 A 
HETATM   10  N5  UNL     1      32.930   8.472   0.939  1.00  0.00    -0.174 N 
ATOM     11  H5  UNL     1      31.925   8.329   0.837  1.00  0.00     0.186 HD
HETATM   12  C13 UNL     1      33.835   7.504   1.136  1.00  0.00     0.169 A 
HETATM   13  N6  UNL     1      33.732   6.172   1.253  1.00  0.00    -0.174 N 
ATOM     14  H6  UNL     1      32.824   5.712   1.195  1.00  0.00     0.186 HD
ENDROOT
BRANCH   9  15
HETATM   15  N4  UNL     1      32.969  10.782   0.720  1.00  0.00    -0.226 N 
ATOM     16  H4  UNL     1      33.202  11.328  -0.108  1.00  0.00     0.177 HD
BRANCH  15  17
HETATM   17  C7  UNL     1      31.984  11.314   1.647  1.00  0.00     0.138 C 
BRANCH  17  18
HETATM   18  C8  UNL     1      30.778  11.737   0.877  1.00  0.00     0.020 C 
BRANCH  18  19
HETATM   19  C9  UNL     1      29.913  10.562   0.417  1.00  0.00     0.004 C 
BRANCH  19  20
HETATM   20  C10 UNL     1      29.669  10.589  -1.038  1.00  0.00     0.026 C 
BRANCH  20  21
HETATM   21  C11 UNL     1      30.386   9.630  -1.900  1.00  0.00     0.167 C 
BRANCH  21  22
HETATM   22  O2  UNL     1      31.655   9.309  -1.766  1.00  0.00    -0.396 OA
HETATM   23  C12 UNL     1      32.611   9.286  -2.682  1.00  0.00     0.201 C 
ENDBRANCH  21  22
ENDBRANCH  20  21
ENDBRANCH  19  20
ENDBRANCH  18  19
ENDBRANCH  17  18
ENDBRANCH  15  17
ENDBRANCH   9  15
BRANCH   1  24
HETATM   24  N1  UNL     1      34.764   4.158   1.566  1.00  0.00    -0.226 N 
ATOM     25  H1  UNL     1      35.473   3.641   2.085  1.00  0.00     0.177 HD
BRANCH  24  26
HETATM   26  C2  UNL     1      33.657   3.455   0.959  1.00  0.00     0.133 C 
HETATM   27  C1  UNL     1      34.070   2.955  -0.403  1.00  0.00     0.027 C 
ENDBRANCH  24  26
ENDBRANCH   1  24
TORSDOF 9
ENDMDL
MODEL 5
REMARK VINA RESULT: -6.724368936      2.791      3.763
REMARK  9 active torsions:
REMARK  status: ('A' for Active; 'I' for Inactive)
REMARK    1  A    between atoms: C2_2  and  N1_3 
REMARK    2  A    between atoms: N1_3  and  C3_5 
REMARK    3  A    between atoms: C6_13  and  N4_14 
REMARK    4  A    between atoms: N4_14  and  C7_16 
REMARK    5  A    between atoms: C7_16  and  C8_17 
REMARK    6  A    between atoms: C8_17  and  C9_18 
REMARK    7  A    between atoms: C9_18  and  C10_19 
REMARK    8  A    between atoms: C10_19  and  C11_20 
REMARK    9  A    between atoms: C11_20  and  O2_21 
ROOT
HETATM    1  C3  UNL     1      35.338   5.836   1.631  1.00  0.00     0.682 A 
HETATM    2  N2  UNL     1      36.309   6.743   1.818  1.00  0.00    -0.154 N 
ATOM      3  H2  UNL     1      37.190   6.475   2.256  1.00  0.00     0.187 HD
HETATM    4  C4  UNL     1      36.103   8.009   1.419  1.00  0.00     0.290 A 
HETATM    5  O1  UNL     1      37.003   8.861   1.590  1.00  0.00    -0.265 OA
HETATM    6  C5  UNL     1      34.898   8.336   0.829  1.00  0.00     0.162 A 
HETATM    7  N3  UNL     1      34.381   9.469   0.331  1.00  0.00    -0.182 N 
ATOM      8  H3  UNL     1      34.866  10.366   0.315  1.00  0.00     0.184 HD
HETATM    9  C6  UNL     1      33.149   9.268  -0.140  1.00  0.00     0.680 A 
HETATM   10  N5  UNL     1      32.871   7.969   0.061  1.00  0.00    -0.174 N 
ATOM     11  H5  UNL     1      31.999   7.505  -0.195  1.00  0.00     0.186 HD
HETATM   12  C13 UNL     1      33.920   7.381   0.651  1.00  0.00     0.169 A 
HETATM   13  N6  UNL     1      34.148   6.123   1.056  1.00  0.00    -0.174 N 
ATOM     14  H6  UNL     1      33.440   5.399   0.935  1.00  0.00     0.186 HD
ENDROOT
BRANCH   9  15
HETATM   15  N4  UNL     1      32.349  10.104  -0.684  1.00  0.00    -0.226 N 
ATOM     16  H4  UNL     1      32.588  11.095  -0.654  1.00  0.00     0.177 HD
BRANCH  15  17
HETATM   17  C7  UNL     1      31.116   9.708  -1.343  1.00  0.00     0.138 C 
BRANCH  17  18
HETATM   18  C8  UNL     1      30.030  10.648  -0.941  1.00  0.00     0.020 C 
BRANCH  18  19
HETATM   19  C9  UNL     1      30.004  10.930   0.563  1.00  0.00     0.004 C 
BRANCH  19  20
HETATM   20  C10 UNL     1      29.143   9.978   1.290  1.00  0.00     0.026 C 
BRANCH  20  21
HETATM   21  C11 UNL     1      29.730   9.169   2.375  1.00  0.00     0.167 C 
BRANCH  21  22
HETATM   22  O2  UNL     1      31.005   8.857   2.468  1.00  0.00    -0.396 OA
HETATM   23  C12 UNL     1      31.921   9.330   3.299  1.00  0.00     0.201 C 
ENDBRANCH  21  22
ENDBRANCH  20  21
ENDBRANCH  19  20
ENDBRANCH  18  19
ENDBRANCH  17  18
ENDBRANCH  15  17
ENDBRANCH   9  15
BRANCH   1  24
HETATM   24  N1  UNL     1      35.564   4.616   2.026  1.00  0.00    -0.226 N 
ATOM     25  H1  UNL     1      36.513   4.324   2.258  1.00  0.00     0.177 HD
BRANCH  24  26
HETATM   26  C2  UNL     1      34.473   3.674   2.137  1.00  0.00     0.133 C 
HETATM   27  C1  UNL     1      34.524   2.713   0.976  1.00  0.00     0.027 C 
ENDBRANCH  24  26
ENDBRANCH   1  24
TORSDOF 9
ENDMDL
