MODEL 1
REMARK VINA RESULT: -7.355989933      0.000      0.000
REMARK  9 active torsions:
REMARK  status: ('A' for Active; 'I' for Inactive)
REMARK    1  A    between atoms: C2_7  and  N3_8 
REMARK    2  A    between atoms: N3_8  and  C3_10 
REMARK    3  A    between atoms: N4_13  and  C6_14 
REMARK    4  A    between atoms: C6_14  and  C7_15 
REMARK    5  A    between atoms: C7_15  and  C8_16 
REMARK    6  A    between atoms: C8_16  and  C9_17 
REMARK    7  A    between atoms: C9_17  and  C10_18 
REMARK    8  A    between atoms: C10_18  and  C11_19 
REMARK    9  A    between atoms: C11_19  and  O2_20 
ROOT
HETATM    1  C3  UNL     1      36.018   7.900   2.025  1.00  0.00     0.102 C 
HETATM    2  C4  UNL     1      34.697   8.030   2.743  1.00  0.00     0.045 C 
HETATM    3  C5  UNL     1      34.930   8.260   4.244  1.00  0.00     0.119 C 
HETATM    4  N4  UNL     1      35.814   9.367   4.364  1.00  0.00    -0.412 N 
HETATM    5  C12 UNL     1      37.129   9.192   3.856  1.00  0.00     0.119 C 
HETATM    6  C13 UNL     1      37.173   7.946   2.994  1.00  0.00     0.045 C 
ENDROOT
BRANCH   1   7
HETATM    7  N3  UNL     1      36.139   6.695   1.254  1.00  0.00    -0.220 N 
ATOM      8  H3  UNL     1      36.939   6.628   0.624  1.00  0.00     0.178 HD
BRANCH   7   9
HETATM    9  C2  UNL     1      35.337   5.696   1.284  1.00  0.00     0.697 A 
HETATM   10  N2  UNL     1      35.486   4.675   2.146  1.00  0.00    -0.128 N 
HETATM   11  N1  UNL     1      34.487   3.811   1.911  1.00  0.00    -0.237 N 
ATOM     12  H2  UNL     1      36.220   4.576   2.848  1.00  0.00     0.205 HD
HETATM   13  C1  UNL     1      33.731   4.287   0.918  1.00  0.00     0.353 A 
ATOM     14  H1  UNL     1      34.330   2.935   2.409  1.00  0.00     0.192 HD
HETATM   15  O1  UNL     1      32.696   3.736   0.425  1.00  0.00    -0.245 OA
HETATM   16  N5  UNL     1      34.265   5.465   0.527  1.00  0.00    -0.139 N 
ATOM     17  H5  UNL     1      33.910   6.070  -0.215  1.00  0.00     0.189 HD
ENDBRANCH   7   9
ENDBRANCH   1   7
BRANCH   4  18
HETATM   18  C6  UNL     1      35.764  10.026   5.675  1.00  0.00     0.117 C 
BRANCH  18  19
HETATM   19  C7  UNL     1      34.598   9.583   6.467  1.00  0.00     0.019 C 
BRANCH  19  20
HETATM   20  C8  UNL     1      33.456  10.493   6.611  1.00  0.00     0.002 C 
BRANCH  20  21
HETATM   21  C9  UNL     1      32.709  11.029   5.479  1.00  0.00     0.002 C 
BRANCH  21  22
HETATM   22  C10 UNL     1      31.300  10.672   5.234  1.00  0.00     0.026 C 
BRANCH  22  23
HETATM   23  C11 UNL     1      31.287   9.887   3.879  1.00  0.00     0.164 C 
BRANCH  23  24
HETATM   24  O2  UNL     1      30.019   9.912   3.324  1.00  0.00    -0.401 OA
ATOM     25  H2  UNL     1      29.757  10.807   3.145  1.00  0.00     0.209 HD
ENDBRANCH  23  24
ENDBRANCH  22  23
ENDBRANCH  21  22
ENDBRANCH  20  21
ENDBRANCH  19  20
ENDBRANCH  18  19
ENDBRANCH   4  18
TORSDOF 9
ENDMDL
MODEL 2
REMARK VINA RESULT: -7.336506510      2.552      3.523
REMARK  9 active torsions:
REMARK  status: ('A' for Active; 'I' for Inactive)
REMARK    1  A    between atoms: C2_7  and  N3_8 
REMARK    2  A    between atoms: N3_8  and  C3_10 
REMARK    3  A    between atoms: N4_13  and  C6_14 
REMARK    4  A    between atoms: C6_14  and  C7_15 
REMARK    5  A    between atoms: C7_15  and  C8_16 
REMARK    6  A    between atoms: C8_16  and  C9_17 
REMARK    7  A    between atoms: C9_17  and  C10_18 
REMARK    8  A    between atoms: C10_18  and  C11_19 
REMARK    9  A    between atoms: C11_19  and  O2_20 
ROOT
HETATM    1  C3  UNL     1      33.104   9.299   1.137  1.00  0.00     0.102 C 
HETATM    2  C4  UNL     1      31.878   9.053   1.982  1.00  0.00     0.045 C 
HETATM    3  C5  UNL     1      32.130   9.511   3.427  1.00  0.00     0.119 C 
HETATM    4  N4  UNL     1      32.582  10.857   3.365  1.00  0.00    -0.412 N 
HETATM    5  C12 UNL     1      33.833  11.082   2.732  1.00  0.00     0.119 C 
HETATM    6  C13 UNL     1      34.241   9.838   1.968  1.00  0.00     0.045 C 
ENDROOT
BRANCH   1   7
HETATM    7  N3  UNL     1      33.577   8.129   0.452  1.00  0.00    -0.220 N 
ATOM      8  H3  UNL     1      33.374   8.064  -0.546  1.00  0.00     0.178 HD
BRANCH   7   9
HETATM    9  C2  UNL     1      34.229   7.160   0.977  1.00  0.00     0.697 A 
HETATM   10  N2  UNL     1      35.480   6.840   0.597  1.00  0.00    -0.128 N 
HETATM   11  N1  UNL     1      35.862   5.790   1.340  1.00  0.00    -0.237 N 
ATOM     12  H2  UNL     1      36.033   7.308  -0.121  1.00  0.00     0.205 HD
HETATM   13  C1  UNL     1      34.865   5.462   2.166  1.00  0.00     0.353 A 
ATOM     14  H1  UNL     1      36.765   5.320   1.283  1.00  0.00     0.192 HD
HETATM   15  O1  UNL     1      34.869   4.516   3.016  1.00  0.00    -0.245 OA
HETATM   16  N5  UNL     1      33.845   6.319   1.938  1.00  0.00    -0.139 N 
ATOM     17  H5  UNL     1      32.944   6.322   2.415  1.00  0.00     0.189 HD
ENDBRANCH   7   9
ENDBRANCH   1   7
BRANCH   4  18
HETATM   18  C6  UNL     1      32.405  11.600   4.619  1.00  0.00     0.117 C 
BRANCH  18  19
HETATM   19  C7  UNL     1      32.178  10.695   5.764  1.00  0.00     0.019 C 
BRANCH  19  20
HETATM   20  C8  UNL     1      33.272  10.475   6.718  1.00  0.00     0.002 C 
BRANCH  20  21
HETATM   21  C9  UNL     1      34.654  10.242   6.314  1.00  0.00     0.002 C 
BRANCH  21  22
HETATM   22  C10 UNL     1      35.053   9.048   5.548  1.00  0.00     0.026 C 
BRANCH  22  23
HETATM   23  C11 UNL     1      36.432   9.398   4.895  1.00  0.00     0.164 C 
BRANCH  23  24
HETATM   24  O2  UNL     1      37.194  10.158   5.766  1.00  0.00    -0.401 OA
ATOM     25  H2  UNL     1      37.323  11.030   5.412  1.00  0.00     0.209 HD
ENDBRANCH  23  24
ENDBRANCH  22  23
ENDBRANCH  21  22
ENDBRANCH  20  21
ENDBRANCH  19  20
ENDBRANCH  18  19
ENDBRANCH   4  18
TORSDOF 9
ENDMDL
MODEL 3
REMARK VINA RESULT: -7.311229565      3.039      4.199
REMARK  9 active torsions:
REMARK  status: ('A' for Active; 'I' for Inactive)
REMARK    1  A    between atoms: C2_7  and  N3_8 
REMARK    2  A    between atoms: N3_8  and  C3_10 
REMARK    3  A    between atoms: N4_13  and  C6_14 
REMARK    4  A    between atoms: C6_14  and  C7_15 
REMARK    5  A    between atoms: C7_15  and  C8_16 
REMARK    6  A    between atoms: C8_16  and  C9_17 
REMARK    7  A    between atoms: C9_17  and  C10_18 
REMARK    8  A    between atoms: C10_18  and  C11_19 
REMARK    9  A    between atoms: C11_19  and  O2_20 
ROOT
HETATM    1  C3  UNL     1      35.495   7.085   2.308  1.00  0.00     0.102 C 
HETATM    2  C4  UNL     1      36.273   8.096   1.503  1.00  0.00     0.045 C 
HETATM    3  C5  UNL     1      35.315   9.094   0.836  1.00  0.00     0.119 C 
HETATM    4  N4  UNL     1      34.485   9.623   1.863  1.00  0.00    -0.412 N 
HETATM    5  C12 UNL     1      33.607   8.712   2.506  1.00  0.00     0.119 C 
HETATM    6  C13 UNL     1      34.009   7.293   2.157  1.00  0.00     0.045 C 
ENDROOT
BRANCH   1   7
HETATM    7  N3  UNL     1      35.786   5.723   1.959  1.00  0.00    -0.220 N 
ATOM      8  H3  UNL     1      36.768   5.446   1.956  1.00  0.00     0.178 HD
BRANCH   7   9
HETATM    9  C2  UNL     1      34.927   4.824   1.651  1.00  0.00     0.697 A 
HETATM   10  N2  UNL     1      34.428   3.960   2.554  1.00  0.00    -0.128 N 
HETATM   11  N1  UNL     1      33.565   3.164   1.906  1.00  0.00    -0.237 N 
ATOM     12  H2  UNL     1      34.663   3.919   3.547  1.00  0.00     0.205 HD
HETATM   13  C1  UNL     1      33.529   3.526   0.620  1.00  0.00     0.353 A 
ATOM     14  H1  UNL     1      33.025   2.407   2.325  1.00  0.00     0.192 HD
HETATM   15  O1  UNL     1      32.824   2.994  -0.294  1.00  0.00    -0.245 OA
HETATM   16  N5  UNL     1      34.382   4.563   0.463  1.00  0.00    -0.139 N 
ATOM     17  H5  UNL     1      34.573   5.058  -0.408  1.00  0.00     0.189 HD
ENDBRANCH   7   9
ENDBRANCH   1   7
BRANCH   4  18
HETATM   18  C6  UNL     1      33.864  10.909   1.519  1.00  0.00     0.117 C 
BRANCH  18  19
HETATM   19  C7  UNL     1      32.405  10.779   1.327  1.00  0.00     0.019 C 
BRANCH  19  20
HETATM   20  C8  UNL     1      31.880  10.666  -0.039  1.00  0.00     0.002 C 
BRANCH  20  21
HETATM   21  C9  UNL     1      31.515   9.395  -0.655  1.00  0.00     0.002 C 
BRANCH  21  22
HETATM   22  C10 UNL     1      32.469   8.619  -1.467  1.00  0.00     0.026 C 
BRANCH  22  23
HETATM   23  C11 UNL     1      33.015   9.610  -2.550  1.00  0.00     0.164 C 
BRANCH  23  24
HETATM   24  O2  UNL     1      32.328   9.444  -3.740  1.00  0.00    -0.401 OA
ATOM     25  H2  UNL     1      32.286  10.267  -4.211  1.00  0.00     0.209 HD
ENDBRANCH  23  24
ENDBRANCH  22  23
ENDBRANCH  21  22
ENDBRANCH  20  21
ENDBRANCH  19  20
ENDBRANCH  18  19
ENDBRANCH   4  18
TORSDOF 9
ENDMDL
MODEL 4
REMARK VINA RESULT: -7.294779998      1.011      1.215
REMARK  9 active torsions:
REMARK  status: ('A' for Active; 'I' for Inactive)
REMARK    1  A    between atoms: C2_7  and  N3_8 
REMARK    2  A    between atoms: N3_8  and  C3_10 
REMARK    3  A    between atoms: N4_13  and  C6_14 
REMARK    4  A    between atoms: C6_14  and  C7_15 
REMARK    5  A    between atoms: C7_15  and  C8_16 
REMARK    6  A    between atoms: C8_16  and  C9_17 
REMARK    7  A    between atoms: C9_17  and  C10_18 
REMARK    8  A    between atoms: C10_18  and  C11_19 
REMARK    9  A    between atoms: C11_19  and  O2_20 
ROOT
HETATM    1  C3  UNL     1      35.651   8.019   1.785  1.00  0.00     0.102 C 
HETATM    2  C4  UNL     1      34.431   8.190   2.657  1.00  0.00     0.045 C 
HETATM    3  C5  UNL     1      34.848   8.333   4.129  1.00  0.00     0.119 C 
HETATM    4  N4  UNL     1      35.806   9.382   4.190  1.00  0.00    -0.412 N 
HETATM    5  C12 UNL     1      37.041   9.158   3.526  1.00  0.00     0.119 C 
HETATM    6  C13 UNL     1      36.910   7.954   2.613  1.00  0.00     0.045 C 
ENDROOT
BRANCH   1   7
HETATM    7  N3  UNL     1      35.609   6.848   0.957  1.00  0.00    -0.220 N 
ATOM      8  H3  UNL     1      36.001   6.931   0.018  1.00  0.00     0.178 HD
BRANCH   7   9
HETATM    9  C2  UNL     1      35.126   5.708   1.285  1.00  0.00     0.697 A 
HETATM   10  N2  UNL     1      33.956   5.252   0.802  1.00  0.00    -0.128 N 
HETATM   11  N1  UNL     1      33.750   4.041   1.343  1.00  0.00    -0.237 N 
ATOM     12  H2  UNL     1      33.341   5.735   0.147  1.00  0.00     0.205 HD
HETATM   13  C1  UNL     1      34.774   3.751   2.150  1.00  0.00     0.353 A 
ATOM     14  H1  UNL     1      32.944   3.442   1.167  1.00  0.00     0.192 HD
HETATM   15  O1  UNL     1      34.920   2.688   2.832  1.00  0.00    -0.245 OA
HETATM   16  N5  UNL     1      35.633   4.794   2.113  1.00  0.00    -0.139 N 
ATOM     17  H5  UNL     1      36.511   4.869   2.626  1.00  0.00     0.189 HD
ENDBRANCH   7   9
ENDBRANCH   1   7
BRANCH   4  18
HETATM   18  C6  UNL     1      35.946   9.979   5.524  1.00  0.00     0.117 C 
BRANCH  18  19
HETATM   19  C7  UNL     1      34.829   9.603   6.413  1.00  0.00     0.019 C 
BRANCH  19  20
HETATM   20  C8  UNL     1      33.787  10.597   6.699  1.00  0.00     0.002 C 
BRANCH  20  21
HETATM   21  C9  UNL     1      32.469  10.579   6.074  1.00  0.00     0.002 C 
BRANCH  21  22
HETATM   22  C10 UNL     1      32.277  10.893   4.647  1.00  0.00     0.026 C 
BRANCH  22  23
HETATM   23  C11 UNL     1      30.986  10.123   4.209  1.00  0.00     0.164 C 
BRANCH  23  24
HETATM   24  O2  UNL     1      30.308  10.840   3.239  1.00  0.00    -0.401 OA
ATOM     25  H2  UNL     1      29.547  10.354   2.944  1.00  0.00     0.209 HD
ENDBRANCH  23  24
ENDBRANCH  22  23
ENDBRANCH  21  22
ENDBRANCH  20  21
ENDBRANCH  19  20
ENDBRANCH  18  19
ENDBRANCH   4  18
TORSDOF 9
ENDMDL
MODEL 5
REMARK VINA RESULT: -7.280277383      2.548      3.433
REMARK  9 active torsions:
REMARK  status: ('A' for Active; 'I' for Inactive)
REMARK    1  A    between atoms: C2_7  and  N3_8 
REMARK    2  A    between atoms: N3_8  and  C3_10 
REMARK    3  A    between atoms: N4_13  and  C6_14 
REMARK    4  A    between atoms: C6_14  and  C7_15 
REMARK    5  A    between atoms: C7_15  and  C8_16 
REMARK    6  A    between atoms: C8_16  and  C9_17 
REMARK    7  A    between atoms: C9_17  and  C10_18 
REMARK    8  A    between atoms: C10_18  and  C11_19 
REMARK    9  A    between atoms: C11_19  and  O2_20 
ROOT
HETATM    1  C3  UNL     1      34.220   8.230   0.844  1.00  0.00     0.102 C 
HETATM    2  C4  UNL     1      33.182   9.023   0.090  1.00  0.00     0.045 C 
HETATM    3  C5  UNL     1      32.055   9.458   1.040  1.00  0.00     0.119 C 
HETATM    4  N4  UNL     1      32.669  10.123   2.137  1.00  0.00    -0.412 N 
HETATM    5  C12 UNL     1      33.508   9.338   2.970  1.00  0.00     0.119 C 
HETATM    6  C13 UNL     1      33.813   8.022   2.281  1.00  0.00     0.045 C 
ENDROOT
BRANCH   1   7
HETATM    7  N3  UNL     1      34.488   6.940   0.273  1.00  0.00    -0.220 N 
ATOM      8  H3  UNL     1      34.640   6.904  -0.736  1.00  0.00     0.178 HD
BRANCH   7   9
HETATM    9  C2  UNL     1      34.554   5.831   0.910  1.00  0.00     0.697 A 
HETATM   10  N2  UNL     1      33.598   4.889   0.824  1.00  0.00    -0.128 N 
HETATM   11  N1  UNL     1      33.977   3.868   1.607  1.00  0.00    -0.237 N 
ATOM     12  H2  UNL     1      32.744   4.942   0.267  1.00  0.00     0.205 HD
HETATM   13  C1  UNL     1      35.149   4.171   2.172  1.00  0.00     0.353 A 
ATOM     14  H1  UNL     1      33.456   3.003   1.748  1.00  0.00     0.192 HD
HETATM   15  O1  UNL     1      35.811   3.442   2.975  1.00  0.00    -0.245 OA
HETATM   16  N5  UNL     1      35.508   5.399   1.736  1.00  0.00    -0.139 N 
ATOM     17  H5  UNL     1      36.357   5.904   1.991  1.00  0.00     0.189 HD
ENDBRANCH   7   9
ENDBRANCH   1   7
BRANCH   4  18
HETATM   18  C6  UNL     1      31.762  11.013   2.873  1.00  0.00     0.117 C 
BRANCH  18  19
HETATM   19  C7  UNL     1      31.029  10.293   3.933  1.00  0.00     0.019 C 
BRANCH  19  20
HETATM   20  C8  UNL     1      31.105  10.795   5.311  1.00  0.00     0.002 C 
BRANCH  20  21
HETATM   21  C9  UNL     1      32.355  11.181   5.955  1.00  0.00     0.002 C 
BRANCH  21  22
HETATM   22  C10 UNL     1      33.238  10.194   6.601  1.00  0.00     0.026 C 
BRANCH  22  23
HETATM   23  C11 UNL     1      34.643  10.877   6.702  1.00  0.00     0.164 C 
BRANCH  23  24
HETATM   24  O2  UNL     1      34.995  11.054   8.029  1.00  0.00    -0.401 OA
ATOM     25  H2  UNL     1      35.752  10.521   8.241  1.00  0.00     0.209 HD
ENDBRANCH  23  24
ENDBRANCH  22  23
ENDBRANCH  21  22
ENDBRANCH  20  21
ENDBRANCH  19  20
ENDBRANCH  18  19
ENDBRANCH   4  18
TORSDOF 9
ENDMDL
