MODEL 1
REMARK VINA RESULT: -6.281358794      0.000      0.000
REMARK  9 active torsions:
REMARK  status: ('A' for Active; 'I' for Inactive)
REMARK    1  A    between atoms: N1_2  and  C2_3 
REMARK    2  A    between atoms: N1_2  and  C5_10 
REMARK    3  A    between atoms: C2_3  and  C3_4 
REMARK    4  A    between atoms: C3_4  and  C4_5 
REMARK    5  A    between atoms: C4_5  and  N2_6 
REMARK    6  A    between atoms: C5_10  and  C6_11 
REMARK    7  A    between atoms: C6_11  and  N3_12 
REMARK    8  A    between atoms: N3_12  and  C7_14 
REMARK    9  A    between atoms: C8_19  and  N6_20 
ROOT
HETATM    1  N3  UNL     1       2.316  15.957  22.191  1.00  0.00    -0.223 N 
ATOM      2  H3  UNL     1       1.845  15.435  22.930  1.00  0.00     0.177 HD
ENDROOT
BRANCH   1   3
HETATM    3  C6  UNL     1       3.677  15.599  21.890  1.00  0.00     0.168 C 
BRANCH   3   4
HETATM    4  C5  UNL     1       3.668  14.369  21.052  1.00  0.00     0.291 C 
BRANCH   4   5
HETATM    5  N1  UNL     1       4.755  14.331  20.065  1.00  0.00     0.085 N 
HETATM    6  C1  UNL     1       4.472  13.356  19.028  1.00  0.00     0.309 C 
BRANCH   5   7
HETATM    7  C2  UNL     1       4.817  15.659  19.535  1.00  0.00     0.273 C 
BRANCH   7   8
HETATM    8  C3  UNL     1       4.564  15.763  18.071  1.00  0.00     0.057 C 
BRANCH   8   9
HETATM    9  C4  UNL     1       4.056  17.134  17.665  1.00  0.00     0.231 C 
BRANCH   9  10
HETATM   10  N2  UNL     1       2.933  17.078  16.786  1.00  0.00    -0.079 N 
ATOM     11  H23 UNL     1       2.449  17.975  16.757  1.00  0.00     0.274 HD
ATOM     12  H22 UNL     1       3.236  17.019  15.814  1.00  0.00     0.274 HD
ATOM     13  H21 UNL     1       2.286  16.323  17.011  1.00  0.00     0.274 HD
ENDBRANCH   9  10
ENDBRANCH   8   9
ENDBRANCH   7   8
ENDBRANCH   5   7
ENDBRANCH   4   5
ENDBRANCH   3   4
ENDBRANCH   1   3
BRANCH   1  14
HETATM   14  C7  UNL     1       1.650  16.877  21.605  1.00  0.00     0.707 A 
HETATM   15  N4  UNL     1       0.748  16.695  20.631  1.00  0.00    -0.117 N 
HETATM   16  N5  UNL     1       0.307  17.897  20.319  1.00  0.00    -0.118 N 
ATOM     17  H4  UNL     1       0.462  15.808  20.216  1.00  0.00     0.206 HD
HETATM   18  C8  UNL     1       0.923  18.831  21.087  1.00  0.00     0.705 A 
ATOM     19  H5  UNL     1      -0.394  18.096  19.605  1.00  0.00     0.206 HD
HETATM   20  N7  UNL     1       1.764  18.184  21.891  1.00  0.00    -0.020 N 
ATOM     21  H7  UNL     1       2.378  18.601  22.591  1.00  0.00     0.203 HD
BRANCH  18  22
HETATM   22  N6  UNL     1       0.722  20.102  21.039  1.00  0.00    -0.233 N 
ATOM     23  H62 UNL     1       0.815  20.706  20.223  1.00  0.00     0.174 HD
ATOM     24  H61 UNL     1       0.440  20.694  21.820  1.00  0.00     0.174 HD
ENDBRANCH  18  22
ENDBRANCH   1  14
TORSDOF 9
ENDMDL
MODEL 2
REMARK VINA RESULT: -6.154034295      1.541      2.199
REMARK  9 active torsions:
REMARK  status: ('A' for Active; 'I' for Inactive)
REMARK    1  A    between atoms: N1_2  and  C2_3 
REMARK    2  A    between atoms: N1_2  and  C5_10 
REMARK    3  A    between atoms: C2_3  and  C3_4 
REMARK    4  A    between atoms: C3_4  and  C4_5 
REMARK    5  A    between atoms: C4_5  and  N2_6 
REMARK    6  A    between atoms: C5_10  and  C6_11 
REMARK    7  A    between atoms: C6_11  and  N3_12 
REMARK    8  A    between atoms: N3_12  and  C7_14 
REMARK    9  A    between atoms: C8_19  and  N6_20 
ROOT
HETATM    1  N3  UNL     1       2.312  16.651  20.330  1.00  0.00    -0.223 N 
ATOM      2  H3  UNL     1       1.867  16.108  19.589  1.00  0.00     0.177 HD
ENDROOT
BRANCH   1   3
HETATM    3  C6  UNL     1       3.585  16.187  20.817  1.00  0.00     0.168 C 
BRANCH   3   4
HETATM    4  C5  UNL     1       4.483  15.961  19.651  1.00  0.00     0.291 C 
BRANCH   4   5
HETATM    5  N1  UNL     1       5.069  14.615  19.623  1.00  0.00     0.085 N 
HETATM    6  C1  UNL     1       4.381  13.737  20.552  1.00  0.00     0.309 C 
BRANCH   5   7
HETATM    7  C2  UNL     1       4.913  14.174  18.271  1.00  0.00     0.273 C 
BRANCH   7   8
HETATM    8  C3  UNL     1       4.620  12.722  18.113  1.00  0.00     0.057 C 
BRANCH   8   9
HETATM    9  C4  UNL     1       3.597  12.449  17.027  1.00  0.00     0.231 C 
BRANCH   9  10
HETATM   10  N2  UNL     1       3.397  13.560  16.154  1.00  0.00    -0.079 N 
ATOM     11  H23 UNL     1       3.685  14.431  16.602  1.00  0.00     0.274 HD
ATOM     12  H22 UNL     1       4.064  13.540  15.383  1.00  0.00     0.274 HD
ATOM     13  H21 UNL     1       2.442  13.629  15.806  1.00  0.00     0.274 HD
ENDBRANCH   9  10
ENDBRANCH   8   9
ENDBRANCH   7   8
ENDBRANCH   5   7
ENDBRANCH   4   5
ENDBRANCH   3   4
ENDBRANCH   1   3
BRANCH   1  14
HETATM   14  C7  UNL     1       1.695  17.687  20.752  1.00  0.00     0.707 A 
HETATM   15  N4  UNL     1       0.502  18.119  20.323  1.00  0.00    -0.117 N 
HETATM   16  N5  UNL     1       0.242  19.208  21.018  1.00  0.00    -0.118 N 
ATOM     17  H4  UNL     1      -0.085  17.693  19.606  1.00  0.00     0.206 HD
HETATM   18  C8  UNL     1       1.260  19.464  21.878  1.00  0.00     0.705 A 
ATOM     19  H5  UNL     1      -0.600  19.776  20.923  1.00  0.00     0.206 HD
HETATM   20  N7  UNL     1       2.168  18.505  21.706  1.00  0.00    -0.020 N 
ATOM     21  H7  UNL     1       3.053  18.411  22.203  1.00  0.00     0.203 HD
BRANCH  18  22
HETATM   22  N6  UNL     1       1.324  20.450  22.703  1.00  0.00    -0.233 N 
ATOM     23  H62 UNL     1       0.748  21.291  22.698  1.00  0.00     0.174 HD
ATOM     24  H61 UNL     1       1.968  20.533  23.490  1.00  0.00     0.174 HD
ENDBRANCH  18  22
ENDBRANCH   1  14
TORSDOF 9
ENDMDL
MODEL 3
REMARK VINA RESULT: -6.119325314      1.996      4.704
REMARK  9 active torsions:
REMARK  status: ('A' for Active; 'I' for Inactive)
REMARK    1  A    between atoms: N1_2  and  C2_3 
REMARK    2  A    between atoms: N1_2  and  C5_10 
REMARK    3  A    between atoms: C2_3  and  C3_4 
REMARK    4  A    between atoms: C3_4  and  C4_5 
REMARK    5  A    between atoms: C4_5  and  N2_6 
REMARK    6  A    between atoms: C5_10  and  C6_11 
REMARK    7  A    between atoms: C6_11  and  N3_12 
REMARK    8  A    between atoms: N3_12  and  C7_14 
REMARK    9  A    between atoms: C8_19  and  N6_20 
ROOT
HETATM    1  N3  UNL     1       4.210  15.442  21.249  1.00  0.00    -0.223 N 
ATOM      2  H3  UNL     1       4.930  14.725  21.161  1.00  0.00     0.177 HD
ENDROOT
BRANCH   1   3
HETATM    3  C6  UNL     1       3.576  15.590  22.533  1.00  0.00     0.168 C 
BRANCH   3   4
HETATM    4  C5  UNL     1       4.205  16.740  23.240  1.00  0.00     0.291 C 
BRANCH   4   5
HETATM    5  N1  UNL     1       3.251  17.524  24.035  1.00  0.00     0.085 N 
HETATM    6  C1  UNL     1       3.833  18.795  24.426  1.00  0.00     0.309 C 
BRANCH   5   7
HETATM    7  C2  UNL     1       2.120  17.706  23.177  1.00  0.00     0.273 C 
BRANCH   7   8
HETATM    8  C3  UNL     1       1.533  19.075  23.194  1.00  0.00     0.057 C 
BRANCH   8   9
HETATM    9  C4  UNL     1       1.424  19.679  21.806  1.00  0.00     0.231 C 
BRANCH   9  10
HETATM   10  N2  UNL     1       0.428  19.052  20.999  1.00  0.00    -0.079 N 
ATOM     11  H23 UNL     1       0.523  18.037  21.028  1.00  0.00     0.274 HD
ATOM     12  H22 UNL     1      -0.495  19.146  21.423  1.00  0.00     0.274 HD
ATOM     13  H21 UNL     1       0.422  19.389  20.038  1.00  0.00     0.274 HD
ENDBRANCH   9  10
ENDBRANCH   8   9
ENDBRANCH   7   8
ENDBRANCH   5   7
ENDBRANCH   4   5
ENDBRANCH   3   4
ENDBRANCH   1   3
BRANCH   1  14
HETATM   14  C7  UNL     1       3.942  16.137  20.211  1.00  0.00     0.707 A 
HETATM   15  N4  UNL     1       2.765  16.718  19.938  1.00  0.00    -0.117 N 
HETATM   16  N5  UNL     1       2.925  17.327  18.780  1.00  0.00    -0.118 N 
ATOM     17  H4  UNL     1       1.920  16.693  20.508  1.00  0.00     0.206 HD
HETATM   18  C8  UNL     1       4.189  17.135  18.324  1.00  0.00     0.705 A 
ATOM     19  H5  UNL     1       2.204  17.865  18.298  1.00  0.00     0.206 HD
HETATM   20  N7  UNL     1       4.820  16.387  19.227  1.00  0.00    -0.020 N 
ATOM     21  H7  UNL     1       5.787  16.066  19.180  1.00  0.00     0.203 HD
BRANCH  18  22
HETATM   22  N6  UNL     1       4.675  17.595  17.225  1.00  0.00    -0.233 N 
ATOM     23  H62 UNL     1       4.451  18.486  16.781  1.00  0.00     0.174 HD
ATOM     24  H61 UNL     1       5.361  17.129  16.631  1.00  0.00     0.174 HD
ENDBRANCH  18  22
ENDBRANCH   1  14
TORSDOF 9
ENDMDL
MODEL 4
REMARK VINA RESULT: -6.042393807      2.465      3.103
REMARK  9 active torsions:
REMARK  status: ('A' for Active; 'I' for Inactive)
REMARK    1  A    between atoms: N1_2  and  C2_3 
REMARK    2  A    between atoms: N1_2  and  C5_10 
REMARK    3  A    between atoms: C2_3  and  C3_4 
REMARK    4  A    between atoms: C3_4  and  C4_5 
REMARK    5  A    between atoms: C4_5  and  N2_6 
REMARK    6  A    between atoms: C5_10  and  C6_11 
REMARK    7  A    between atoms: C6_11  and  N3_12 
REMARK    8  A    between atoms: N3_12  and  C7_14 
REMARK    9  A    between atoms: C8_19  and  N6_20 
ROOT
HETATM    1  N3  UNL     1       4.277  16.073  20.196  1.00  0.00    -0.223 N 
ATOM      2  H3  UNL     1       4.932  16.845  20.318  1.00  0.00     0.177 HD
ENDROOT
BRANCH   1   3
HETATM    3  C6  UNL     1       4.817  14.805  19.781  1.00  0.00     0.168 C 
BRANCH   3   4
HETATM    4  C5  UNL     1       5.059  14.853  18.312  1.00  0.00     0.291 C 
BRANCH   4   5
HETATM    5  N1  UNL     1       5.089  13.526  17.686  1.00  0.00     0.085 N 
HETATM    6  C1  UNL     1       4.159  12.627  18.345  1.00  0.00     0.309 C 
BRANCH   5   7
HETATM    7  C2  UNL     1       4.721  13.754  16.322  1.00  0.00     0.273 C 
BRANCH   7   8
HETATM    8  C3  UNL     1       5.141  12.687  15.371  1.00  0.00     0.057 C 
BRANCH   8   9
HETATM    9  C4  UNL     1       3.994  12.193  14.509  1.00  0.00     0.231 C 
BRANCH   9  10
HETATM   10  N2  UNL     1       2.712  12.450  15.081  1.00  0.00    -0.079 N 
ATOM     11  H23 UNL     1       2.689  13.370  15.522  1.00  0.00     0.274 HD
ATOM     12  H22 UNL     1       2.012  12.595  14.354  1.00  0.00     0.274 HD
ATOM     13  H21 UNL     1       2.413  11.727  15.734  1.00  0.00     0.274 HD
ENDBRANCH   9  10
ENDBRANCH   8   9
ENDBRANCH   7   8
ENDBRANCH   5   7
ENDBRANCH   4   5
ENDBRANCH   3   4
ENDBRANCH   1   3
BRANCH   1  14
HETATM   14  C7  UNL     1       3.042  16.308  20.424  1.00  0.00     0.707 A 
HETATM   15  N4  UNL     1       2.190  15.488  21.054  1.00  0.00    -0.117 N 
HETATM   16  N5  UNL     1       1.031  16.117  21.071  1.00  0.00    -0.118 N 
ATOM     17  H4  UNL     1       2.395  14.567  21.441  1.00  0.00     0.206 HD
HETATM   18  C8  UNL     1       1.148  17.322  20.458  1.00  0.00     0.705 A 
ATOM     19  H5  UNL     1       0.173  15.751  21.485  1.00  0.00     0.206 HD
HETATM   20  N7  UNL     1       2.412  17.435  20.055  1.00  0.00    -0.020 N 
ATOM     21  H7  UNL     1       2.823  18.226  19.560  1.00  0.00     0.203 HD
BRANCH  18  22
HETATM   22  N6  UNL     1       0.206  18.186  20.304  1.00  0.00    -0.233 N 
ATOM     23  H62 UNL     1      -0.401  18.292  19.491  1.00  0.00     0.174 HD
ATOM     24  H61 UNL     1      -0.070  18.898  20.979  1.00  0.00     0.174 HD
ENDBRANCH  18  22
ENDBRANCH   1  14
TORSDOF 9
ENDMDL
MODEL 5
REMARK VINA RESULT: -6.032171458      9.419     12.318
REMARK  9 active torsions:
REMARK  status: ('A' for Active; 'I' for Inactive)
REMARK    1  A    between atoms: N1_2  and  C2_3 
REMARK    2  A    between atoms: N1_2  and  C5_10 
REMARK    3  A    between atoms: C2_3  and  C3_4 
REMARK    4  A    between atoms: C3_4  and  C4_5 
REMARK    5  A    between atoms: C4_5  and  N2_6 
REMARK    6  A    between atoms: C5_10  and  C6_11 
REMARK    7  A    between atoms: C6_11  and  N3_12 
REMARK    8  A    between atoms: N3_12  and  C7_14 
REMARK    9  A    between atoms: C8_19  and  N6_20 
ROOT
HETATM    1  N3  UNL     1       2.834  10.263   8.990  1.00  0.00    -0.223 N 
ATOM      2  H3  UNL     1       3.362   9.390   9.007  1.00  0.00     0.177 HD
ENDROOT
BRANCH   1   3
HETATM    3  C6  UNL     1       2.529  10.876  10.256  1.00  0.00     0.168 C 
BRANCH   3   4
HETATM    4  C5  UNL     1       3.449  10.319  11.285  1.00  0.00     0.291 C 
BRANCH   4   5
HETATM    5  N1  UNL     1       2.913  10.404  12.649  1.00  0.00     0.085 N 
HETATM    6  C1  UNL     1       3.007   9.119  13.318  1.00  0.00     0.309 C 
BRANCH   5   7
HETATM    7  C2  UNL     1       3.717  11.394  13.299  1.00  0.00     0.273 C 
BRANCH   7   8
HETATM    8  C3  UNL     1       3.674  11.360  14.788  1.00  0.00     0.057 C 
BRANCH   8   9
HETATM    9  C4  UNL     1       3.466  12.735  15.395  1.00  0.00     0.231 C 
BRANCH   9  10
HETATM   10  N2  UNL     1       3.106  12.690  16.775  1.00  0.00    -0.079 N 
ATOM     11  H23 UNL     1       2.368  12.004  16.936  1.00  0.00     0.274 HD
ATOM     12  H22 UNL     1       3.850  12.268  17.331  1.00  0.00     0.274 HD
ATOM     13  H21 UNL     1       2.844  13.600  17.150  1.00  0.00     0.274 HD
ENDBRANCH   9  10
ENDBRANCH   8   9
ENDBRANCH   7   8
ENDBRANCH   5   7
ENDBRANCH   4   5
ENDBRANCH   3   4
ENDBRANCH   1   3
BRANCH   1  14
HETATM   14  C7  UNL     1       2.497  10.725   7.848  1.00  0.00     0.707 A 
HETATM   15  N4  UNL     1       1.669  10.135   6.975  1.00  0.00    -0.117 N 
HETATM   16  N5  UNL     1       1.600  10.946   5.939  1.00  0.00    -0.118 N 
ATOM     17  H4  UNL     1       1.190   9.242   7.090  1.00  0.00     0.206 HD
HETATM   18  C8  UNL     1       2.377  12.038   6.152  1.00  0.00     0.705 A 
ATOM     19  H5  UNL     1       1.045  10.778   5.100  1.00  0.00     0.206 HD
HETATM   20  N7  UNL     1       2.936  11.893   7.351  1.00  0.00    -0.020 N 
ATOM     21  H7  UNL     1       3.577  12.543   7.805  1.00  0.00     0.203 HD
BRANCH  18  22
HETATM   22  N6  UNL     1       2.534  13.025   5.339  1.00  0.00    -0.233 N 
ATOM     23  H62 UNL     1       3.121  13.045   4.506  1.00  0.00     0.174 HD
ATOM     24  H61 UNL     1       2.088  13.939   5.414  1.00  0.00     0.174 HD
ENDBRANCH  18  22
ENDBRANCH   1  14
TORSDOF 9
ENDMDL
