MODEL 1
REMARK VINA RESULT: -6.432768423      0.000      0.000
REMARK  6 active torsions:
REMARK  status: ('A' for Active; 'I' for Inactive)
REMARK    1  A    between atoms: N1_1  and  S1_4 
REMARK    2  A    between atoms: S1_4  and  C1_6 
REMARK    3  A    between atoms: C1_6  and  C2_7 
REMARK    4  A    between atoms: C3_9  and  C4_10 
REMARK    5  A    between atoms: C4_10  and  O3_11 
REMARK    6  A    between atoms: C6_14  and  O4_15 
ROOT
HETATM    1  C2  UNL     1     -11.965  26.927  41.204  1.00  0.00     0.164 C 
HETATM    2  O2  UNL     1     -12.288  27.847  40.180  1.00  0.00    -0.375 OA
HETATM    3  C3  UNL     1     -13.110  27.029  39.392  1.00  0.00     0.148 C 
HETATM    4  C5  UNL     1     -12.289  25.772  39.188  1.00  0.00     0.068 C 
HETATM    5  C6  UNL     1     -11.359  25.809  40.407  1.00  0.00     0.150 C 
ENDROOT
BRANCH   1   6
HETATM    6  C1  UNL     1     -10.988  27.551  42.169  1.00  0.00     0.166 C 
BRANCH   6   7
HETATM    7  S1  UNL     1     -10.876  26.501  43.595  1.00  0.00     0.110 S 
HETATM    8  O1  UNL     1     -10.777  27.437  44.985  1.00  0.00    -0.236 OA
BRANCH   7   9
HETATM    9  N1  UNL     1      -9.529  25.432  43.452  1.00  0.00    -0.350 NA
ATOM     10  H12 UNL     1      -9.104  25.271  44.364  1.00  0.00     0.166 HD
ATOM     11  H11 UNL     1      -9.799  24.541  43.034  1.00  0.00     0.166 HD
ENDBRANCH   7   9
ENDBRANCH   6   7
ENDBRANCH   1   6
BRANCH   5  12
HETATM   12  O4  UNL     1     -11.444  24.623  41.134  1.00  0.00    -0.393 OA
ATOM     13  H4  UNL     1     -11.929  23.979  40.632  1.00  0.00     0.210 HD
ENDBRANCH   5  12
BRANCH   3  14
HETATM   14  C4  UNL     1     -13.450  27.689  38.077  1.00  0.00     0.196 C 
BRANCH  14  15
HETATM   15  O3  UNL     1     -13.675  29.047  38.351  1.00  0.00    -0.398 OA
ATOM     16  H3  UNL     1     -14.608  29.196  38.248  1.00  0.00     0.209 HD
ENDBRANCH  14  15
ENDBRANCH   3  14
TORSDOF 6
ENDMDL
MODEL 2
REMARK VINA RESULT: -6.167332811      1.359      1.378
REMARK  6 active torsions:
REMARK  status: ('A' for Active; 'I' for Inactive)
REMARK    1  A    between atoms: N1_1  and  S1_4 
REMARK    2  A    between atoms: S1_4  and  C1_6 
REMARK    3  A    between atoms: C1_6  and  C2_7 
REMARK    4  A    between atoms: C3_9  and  C4_10 
REMARK    5  A    between atoms: C4_10  and  O3_11 
REMARK    6  A    between atoms: C6_14  and  O4_15 
ROOT
HETATM    1  C2  UNL     1     -12.180  25.858  41.098  1.00  0.00     0.164 C 
HETATM    2  O2  UNL     1     -11.859  27.029  40.372  1.00  0.00    -0.375 OA
HETATM    3  C3  UNL     1     -12.905  27.010  39.439  1.00  0.00     0.148 C 
HETATM    4  C5  UNL     1     -12.861  25.608  38.867  1.00  0.00     0.068 C 
HETATM    5  C6  UNL     1     -12.183  24.832  40.004  1.00  0.00     0.150 C 
ENDROOT
BRANCH   1   6
HETATM    6  C1  UNL     1     -11.126  25.594  42.144  1.00  0.00     0.166 C 
BRANCH   6   7
HETATM    7  S1  UNL     1     -11.296  26.816  43.419  1.00  0.00     0.110 S 
HETATM    8  O1  UNL     1     -11.253  28.352  42.745  1.00  0.00    -0.236 OA
BRANCH   7   9
HETATM    9  N1  UNL     1     -10.069  26.612  44.616  1.00  0.00    -0.350 NA
ATOM     10  H12 UNL     1     -10.076  27.395  45.268  1.00  0.00     0.166 HD
ATOM     11  H11 UNL     1     -10.184  25.735  45.125  1.00  0.00     0.166 HD
ENDBRANCH   7   9
ENDBRANCH   6   7
ENDBRANCH   1   6
BRANCH   5  12
HETATM   12  O4  UNL     1     -12.958  23.742  40.393  1.00  0.00    -0.393 OA
ATOM     13  H4  UNL     1     -12.413  22.965  40.432  1.00  0.00     0.210 HD
ENDBRANCH   5  12
BRANCH   3  14
HETATM   14  C4  UNL     1     -12.706  28.054  38.365  1.00  0.00     0.196 C 
BRANCH  14  15
HETATM   15  O3  UNL     1     -13.981  28.388  37.884  1.00  0.00    -0.398 OA
ATOM     16  H3  UNL     1     -14.012  28.112  36.975  1.00  0.00     0.209 HD
ENDBRANCH  14  15
ENDBRANCH   3  14
TORSDOF 6
ENDMDL
MODEL 3
REMARK VINA RESULT: -6.156228945      1.735      2.239
REMARK  6 active torsions:
REMARK  status: ('A' for Active; 'I' for Inactive)
REMARK    1  A    between atoms: N1_1  and  S1_4 
REMARK    2  A    between atoms: S1_4  and  C1_6 
REMARK    3  A    between atoms: C1_6  and  C2_7 
REMARK    4  A    between atoms: C3_9  and  C4_10 
REMARK    5  A    between atoms: C4_10  and  O3_11 
REMARK    6  A    between atoms: C6_14  and  O4_15 
ROOT
HETATM    1  C2  UNL     1     -11.421  26.492  41.453  1.00  0.00     0.164 C 
HETATM    2  O2  UNL     1     -12.187  25.832  40.465  1.00  0.00    -0.375 OA
HETATM    3  C3  UNL     1     -12.273  26.863  39.519  1.00  0.00     0.148 C 
HETATM    4  C5  UNL     1     -12.753  28.056  40.321  1.00  0.00     0.068 C 
HETATM    5  C6  UNL     1     -12.281  27.689  41.733  1.00  0.00     0.150 C 
ENDROOT
BRANCH   1   6
HETATM    6  C1  UNL     1     -11.253  25.600  42.658  1.00  0.00     0.166 C 
BRANCH   6   7
HETATM    7  S1  UNL     1     -10.130  26.395  43.780  1.00  0.00     0.110 S 
HETATM    8  O1  UNL     1      -9.116  25.253  44.475  1.00  0.00    -0.236 OA
BRANCH   7   9
HETATM    9  N1  UNL     1     -11.002  27.282  44.976  1.00  0.00    -0.350 NA
ATOM     10  H12 UNL     1     -10.483  27.302  45.852  1.00  0.00     0.166 HD
ATOM     11  H11 UNL     1     -11.198  28.235  44.668  1.00  0.00     0.166 HD
ENDBRANCH   7   9
ENDBRANCH   6   7
ENDBRANCH   1   6
BRANCH   5  12
HETATM   12  O4  UNL     1     -11.498  28.705  42.276  1.00  0.00    -0.393 OA
ATOM     13  H4  UNL     1     -11.211  29.288  41.583  1.00  0.00     0.210 HD
ENDBRANCH   5  12
BRANCH   3  14
HETATM   14  C4  UNL     1     -13.238  26.516  38.409  1.00  0.00     0.196 C 
BRANCH  14  15
HETATM   15  O3  UNL     1     -13.707  27.730  37.886  1.00  0.00    -0.398 OA
ATOM     16  H3  UNL     1     -14.379  27.514  37.251  1.00  0.00     0.209 HD
ENDBRANCH  14  15
ENDBRANCH   3  14
TORSDOF 6
ENDMDL
MODEL 4
REMARK VINA RESULT: -6.097314890      3.133      5.018
REMARK  6 active torsions:
REMARK  status: ('A' for Active; 'I' for Inactive)
REMARK    1  A    between atoms: N1_1  and  S1_4 
REMARK    2  A    between atoms: S1_4  and  C1_6 
REMARK    3  A    between atoms: C1_6  and  C2_7 
REMARK    4  A    between atoms: C3_9  and  C4_10 
REMARK    5  A    between atoms: C4_10  and  O3_11 
REMARK    6  A    between atoms: C6_14  and  O4_15 
ROOT
HETATM    1  C2  UNL     1     -11.700  27.277  41.471  1.00  0.00     0.164 C 
HETATM    2  O2  UNL     1     -11.745  27.585  42.850  1.00  0.00    -0.375 OA
HETATM    3  C3  UNL     1     -10.651  26.825  43.288  1.00  0.00     0.148 C 
HETATM    4  C5  UNL     1     -10.905  25.449  42.708  1.00  0.00     0.068 C 
HETATM    5  C6  UNL     1     -11.799  25.780  41.507  1.00  0.00     0.150 C 
ENDROOT
BRANCH   1   6
HETATM    6  C1  UNL     1     -12.863  27.921  40.760  1.00  0.00     0.166 C 
BRANCH   6   7
HETATM    7  S1  UNL     1     -12.759  27.498  39.039  1.00  0.00     0.110 S 
HETATM    8  O1  UNL     1     -11.162  27.576  38.529  1.00  0.00    -0.236 OA
BRANCH   7   9
HETATM    9  N1  UNL     1     -13.776  28.531  38.103  1.00  0.00    -0.350 NA
ATOM     10  H12 UNL     1     -14.558  28.865  38.665  1.00  0.00     0.166 HD
ATOM     11  H11 UNL     1     -13.259  29.324  37.724  1.00  0.00     0.166 HD
ENDBRANCH   7   9
ENDBRANCH   6   7
ENDBRANCH   1   6
BRANCH   5  12
HETATM   12  O4  UNL     1     -11.268  25.253  40.331  1.00  0.00    -0.393 OA
ATOM     13  H4  UNL     1     -11.976  24.996  39.752  1.00  0.00     0.210 HD
ENDBRANCH   5  12
BRANCH   3  14
HETATM   14  C4  UNL     1     -10.572  26.786  44.796  1.00  0.00     0.196 C 
BRANCH  14  15
HETATM   15  O3  UNL     1      -9.529  25.908  45.125  1.00  0.00    -0.398 OA
ATOM     16  H3  UNL     1      -9.813  25.419  45.888  1.00  0.00     0.209 HD
ENDBRANCH  14  15
ENDBRANCH   3  14
TORSDOF 6
ENDMDL
MODEL 5
REMARK VINA RESULT: -5.915734835      2.795      5.040
REMARK  6 active torsions:
REMARK  status: ('A' for Active; 'I' for Inactive)
REMARK    1  A    between atoms: N1_1  and  S1_4 
REMARK    2  A    between atoms: S1_4  and  C1_6 
REMARK    3  A    between atoms: C1_6  and  C2_7 
REMARK    4  A    between atoms: C3_9  and  C4_10 
REMARK    5  A    between atoms: C4_10  and  O3_11 
REMARK    6  A    between atoms: C6_14  and  O4_15 
ROOT
HETATM    1  C2  UNL     1     -12.170  25.709  41.317  1.00  0.00     0.164 C 
HETATM    2  O2  UNL     1     -11.243  25.319  42.311  1.00  0.00    -0.375 OA
HETATM    3  C3  UNL     1     -11.335  26.434  43.157  1.00  0.00     0.148 C 
HETATM    4  C5  UNL     1     -11.149  27.615  42.227  1.00  0.00     0.068 C 
HETATM    5  C6  UNL     1     -11.591  27.024  40.883  1.00  0.00     0.150 C 
ENDROOT
BRANCH   1   6
HETATM    6  C1  UNL     1     -12.198  24.688  40.208  1.00  0.00     0.166 C 
BRANCH   6   7
HETATM    7  S1  UNL     1     -12.163  25.556  38.660  1.00  0.00     0.110 S 
HETATM    8  O1  UNL     1     -13.722  25.700  38.053  1.00  0.00    -0.236 OA
BRANCH   7   9
HETATM    9  N1  UNL     1     -11.119  24.755  37.544  1.00  0.00    -0.350 NA
ATOM     10  H12 UNL     1     -10.865  25.382  36.781  1.00  0.00     0.166 HD
ATOM     11  H11 UNL     1     -10.276  24.407  38.002  1.00  0.00     0.166 HD
ENDBRANCH   7   9
ENDBRANCH   6   7
ENDBRANCH   1   6
BRANCH   5  12
HETATM   12  O4  UNL     1     -12.591  27.800  40.301  1.00  0.00    -0.393 OA
ATOM     13  H4  UNL     1     -12.228  28.638  40.039  1.00  0.00     0.210 HD
ENDBRANCH   5  12
BRANCH   3  14
HETATM   14  C4  UNL     1     -10.275  26.402  44.232  1.00  0.00     0.196 C 
BRANCH  14  15
HETATM   15  O3  UNL     1     -10.575  27.439  45.128  1.00  0.00    -0.398 OA
ATOM     16  H3  UNL     1      -9.959  27.366  45.848  1.00  0.00     0.209 HD
ENDBRANCH  14  15
ENDBRANCH   3  14
TORSDOF 6
ENDMDL
