MODEL 1
REMARK VINA RESULT: -6.706530713      0.000      0.000
REMARK  4 active torsions:
REMARK  status: ('A' for Active; 'I' for Inactive)
REMARK    1  A    between atoms: N3_4  and  O1_6 
REMARK    2  A    between atoms: O1_6  and  N4_7 
REMARK    3  A    between atoms: C2_9  and  C3_10 
REMARK    4  A    between atoms: N5_15  and  O2_16 
ROOT
HETATM    1  N4  UNL     1     -11.778  27.206  42.487  1.00  0.00    -0.251 N 
ATOM      2  H4  UNL     1     -12.452  26.453  42.626  1.00  0.00     0.196 HD
HETATM    3  C2  UNL     1     -11.477  27.548  41.286  1.00  0.00     0.148 C 
ENDROOT
BRANCH   3   4
HETATM    4  C3  UNL     1     -12.093  26.866  40.178  1.00  0.00     0.079 A 
HETATM    5  C4  UNL     1     -12.833  27.599  39.264  1.00  0.00     0.033 A 
HETATM    6  C5  UNL     1     -13.429  26.960  38.198  1.00  0.00     0.004 A 
HETATM    7  C6  UNL     1     -13.246  25.597  38.110  1.00  0.00     0.020 A 
HETATM    8  C7  UNL     1     -12.510  24.887  39.023  1.00  0.00     0.123 A 
HETATM    9  N5  UNL     1     -11.938  25.532  40.054  1.00  0.00    -0.235 N 
BRANCH   9  10
HETATM   10  O2  UNL     1     -11.193  24.834  40.984  1.00  0.00    -0.283 OA
ATOM     11  H2  UNL     1     -11.157  25.133  41.886  1.00  0.00     0.245 HD
ENDBRANCH   9  10
ENDBRANCH   3   4
BRANCH   1  12
HETATM   12  O1  UNL     1     -11.234  27.807  43.585  1.00  0.00    -0.155 OA
BRANCH  12  13
HETATM   13  N3  UNL     1     -10.841  27.124  44.708  1.00  0.00    -0.215 N 
HETATM   14  C1  UNL     1     -10.089  26.073  44.675  1.00  0.00     0.222 C 
HETATM   15  N1  UNL     1      -9.605  25.540  43.436  1.00  0.00    -0.065 NA
HETATM   16  N2  UNL     1      -9.762  25.467  45.919  1.00  0.00    -0.065 NA
ATOM     17  H3  UNL     1     -11.158  27.464  45.615  1.00  0.00     0.199 HD
ENDBRANCH  12  13
ENDBRANCH   1  12
TORSDOF 4
ENDMDL
MODEL 2
REMARK VINA RESULT: -6.275341454      1.493      2.066
REMARK  4 active torsions:
REMARK  status: ('A' for Active; 'I' for Inactive)
REMARK    1  A    between atoms: N3_4  and  O1_6 
REMARK    2  A    between atoms: O1_6  and  N4_7 
REMARK    3  A    between atoms: C2_9  and  C3_10 
REMARK    4  A    between atoms: N5_15  and  O2_16 
ROOT
HETATM    1  N4  UNL     1     -10.927  27.444  41.396  1.00  0.00    -0.251 N 
ATOM      2  H4  UNL     1     -10.760  28.063  40.603  1.00  0.00     0.196 HD
HETATM    3  C2  UNL     1     -11.634  26.388  41.214  1.00  0.00     0.148 C 
ENDROOT
BRANCH   3   4
HETATM    4  C3  UNL     1     -12.167  26.106  39.907  1.00  0.00     0.079 A 
HETATM    5  C4  UNL     1     -11.907  24.877  39.324  1.00  0.00     0.033 A 
HETATM    6  C5  UNL     1     -12.411  24.594  38.073  1.00  0.00     0.004 A 
HETATM    7  C6  UNL     1     -13.160  25.579  37.467  1.00  0.00     0.020 A 
HETATM    8  C7  UNL     1     -13.408  26.791  38.058  1.00  0.00     0.123 A 
HETATM    9  N5  UNL     1     -12.906  27.044  39.279  1.00  0.00    -0.235 N 
BRANCH   9  10
HETATM   10  O2  UNL     1     -13.145  28.260  39.891  1.00  0.00    -0.283 OA
ATOM     11  H2  UNL     1     -13.435  29.003  39.374  1.00  0.00     0.245 HD
ENDBRANCH   9  10
ENDBRANCH   3   4
BRANCH   1  12
HETATM   12  O1  UNL     1     -10.390  27.775  42.607  1.00  0.00    -0.155 OA
BRANCH  12  13
HETATM   13  N3  UNL     1      -9.840  26.861  43.469  1.00  0.00    -0.215 N 
HETATM   14  C1  UNL     1     -10.305  26.630  44.653  1.00  0.00     0.222 C 
HETATM   15  N1  UNL     1     -11.452  27.329  45.154  1.00  0.00    -0.065 NA
HETATM   16  N2  UNL     1      -9.632  25.654  45.439  1.00  0.00    -0.065 NA
ATOM     17  H3  UNL     1      -9.022  26.336  43.160  1.00  0.00     0.199 HD
ENDBRANCH  12  13
ENDBRANCH   1  12
TORSDOF 4
ENDMDL
MODEL 3
REMARK VINA RESULT: -6.108886181      1.427      1.787
REMARK  4 active torsions:
REMARK  status: ('A' for Active; 'I' for Inactive)
REMARK    1  A    between atoms: N3_4  and  O1_6 
REMARK    2  A    between atoms: O1_6  and  N4_7 
REMARK    3  A    between atoms: C2_9  and  C3_10 
REMARK    4  A    between atoms: N5_15  and  O2_16 
ROOT
HETATM    1  N4  UNL     1     -11.745  27.186  42.354  1.00  0.00    -0.251 N 
ATOM      2  H4  UNL     1     -12.408  26.426  42.508  1.00  0.00     0.196 HD
HETATM    3  C2  UNL     1     -11.423  27.487  41.148  1.00  0.00     0.148 C 
ENDROOT
BRANCH   3   4
HETATM    4  C3  UNL     1     -12.001  26.752  40.054  1.00  0.00     0.079 A 
HETATM    5  C4  UNL     1     -11.640  25.428  39.868  1.00  0.00     0.033 A 
HETATM    6  C5  UNL     1     -12.186  24.712  38.824  1.00  0.00     0.004 A 
HETATM    7  C6  UNL     1     -13.077  25.378  38.012  1.00  0.00     0.020 A 
HETATM    8  C7  UNL     1     -13.424  26.690  38.211  1.00  0.00     0.123 A 
HETATM    9  N5  UNL     1     -12.879  27.367  39.236  1.00  0.00    -0.235 N 
BRANCH   9  10
HETATM   10  O2  UNL     1     -13.216  28.690  39.452  1.00  0.00    -0.283 OA
ATOM     11  H2  UNL     1     -12.835  29.165  40.182  1.00  0.00     0.245 HD
ENDBRANCH   9  10
ENDBRANCH   3   4
BRANCH   1  12
HETATM   12  O1  UNL     1     -11.238  27.839  43.441  1.00  0.00    -0.155 OA
BRANCH  12  13
HETATM   13  N3  UNL     1     -10.884  27.211  44.607  1.00  0.00    -0.215 N 
HETATM   14  C1  UNL     1     -10.125  26.166  44.652  1.00  0.00     0.222 C 
HETATM   15  N1  UNL     1      -9.590  25.581  43.458  1.00  0.00    -0.065 NA
HETATM   16  N2  UNL     1      -9.842  25.619  45.934  1.00  0.00    -0.065 NA
ATOM     17  H3  UNL     1     -11.238  27.589  45.486  1.00  0.00     0.199 HD
ENDBRANCH  12  13
ENDBRANCH   1  12
TORSDOF 4
ENDMDL
MODEL 4
REMARK VINA RESULT: -6.059633324      1.399      2.241
REMARK  4 active torsions:
REMARK  status: ('A' for Active; 'I' for Inactive)
REMARK    1  A    between atoms: N3_4  and  O1_6 
REMARK    2  A    between atoms: O1_6  and  N4_7 
REMARK    3  A    between atoms: C2_9  and  C3_10 
REMARK    4  A    between atoms: N5_15  and  O2_16 
ROOT
HETATM    1  N4  UNL     1     -10.902  25.473  41.590  1.00  0.00    -0.251 N 
ATOM      2  H4  UNL     1     -10.346  26.204  41.147  1.00  0.00     0.196 HD
HETATM    3  C2  UNL     1     -12.073  25.225  41.124  1.00  0.00     0.148 C 
ENDROOT
BRANCH   3   4
HETATM    4  C3  UNL     1     -12.565  25.977  40.001  1.00  0.00     0.079 A 
HETATM    5  C4  UNL     1     -13.021  25.297  38.883  1.00  0.00     0.033 A 
HETATM    6  C5  UNL     1     -13.496  26.004  37.799  1.00  0.00     0.004 A 
HETATM    7  C6  UNL     1     -13.483  27.379  37.900  1.00  0.00     0.020 A 
HETATM    8  C7  UNL     1     -13.028  28.036  39.014  1.00  0.00     0.123 A 
HETATM    9  N5  UNL     1     -12.570  27.324  40.059  1.00  0.00    -0.235 N 
BRANCH   9  10
HETATM   10  O2  UNL     1     -12.107  27.969  41.190  1.00  0.00    -0.283 OA
ATOM     11  H2  UNL     1     -12.724  28.319  41.823  1.00  0.00     0.245 HD
ENDBRANCH   9  10
ENDBRANCH   3   4
BRANCH   1  12
HETATM   12  O1  UNL     1     -10.370  24.801  42.652  1.00  0.00    -0.155 OA
BRANCH  12  13
HETATM   13  N3  UNL     1      -9.758  25.419  43.712  1.00  0.00    -0.215 N 
HETATM   14  C1  UNL     1     -10.277  26.414  44.353  1.00  0.00     0.222 C 
HETATM   15  N1  UNL     1     -11.556  26.949  43.991  1.00  0.00    -0.065 NA
HETATM   16  N2  UNL     1      -9.527  26.956  45.433  1.00  0.00    -0.065 NA
ATOM     17  H3  UNL     1      -8.845  25.075  44.010  1.00  0.00     0.199 HD
ENDBRANCH  12  13
ENDBRANCH   1  12
TORSDOF 4
ENDMDL
MODEL 5
REMARK VINA RESULT: -5.660493248      1.956      5.376
REMARK  4 active torsions:
REMARK  status: ('A' for Active; 'I' for Inactive)
REMARK    1  A    between atoms: N3_4  and  O1_6 
REMARK    2  A    between atoms: O1_6  and  N4_7 
REMARK    3  A    between atoms: C2_9  and  C3_10 
REMARK    4  A    between atoms: N5_15  and  O2_16 
ROOT
HETATM    1  N4  UNL     1     -11.971  27.558  40.602  1.00  0.00    -0.251 N 
ATOM      2  H4  UNL     1     -10.960  27.678  40.538  1.00  0.00     0.196 HD
HETATM    3  C2  UNL     1     -12.460  27.018  41.660  1.00  0.00     0.148 C 
ENDROOT
BRANCH   3   4
HETATM    4  C3  UNL     1     -11.577  26.602  42.717  1.00  0.00     0.079 A 
HETATM    5  C4  UNL     1     -11.536  27.339  43.889  1.00  0.00     0.033 A 
HETATM    6  C5  UNL     1     -10.695  26.952  44.911  1.00  0.00     0.004 A 
HETATM    7  C6  UNL     1      -9.929  25.827  44.693  1.00  0.00     0.020 A 
HETATM    8  C7  UNL     1      -9.983  25.109  43.526  1.00  0.00     0.123 A 
HETATM    9  N5  UNL     1     -10.810  25.506  42.545  1.00  0.00    -0.235 N 
BRANCH   9  10
HETATM   10  O2  UNL     1     -10.878  24.795  41.362  1.00  0.00    -0.283 OA
ATOM     11  H2  UNL     1     -10.508  23.920  41.311  1.00  0.00     0.245 HD
ENDBRANCH   9  10
ENDBRANCH   3   4
BRANCH   1  12
HETATM   12  O1  UNL     1     -12.746  27.977  39.559  1.00  0.00    -0.155 OA
BRANCH  12  13
HETATM   13  N3  UNL     1     -13.472  27.129  38.764  1.00  0.00    -0.215 N 
HETATM   14  C1  UNL     1     -12.986  26.052  38.240  1.00  0.00     0.222 C 
HETATM   15  N1  UNL     1     -11.624  25.665  38.461  1.00  0.00    -0.065 NA
HETATM   16  N2  UNL     1     -13.856  25.268  37.435  1.00  0.00    -0.065 NA
ATOM     17  H3  UNL     1     -14.448  27.359  38.576  1.00  0.00     0.199 HD
ENDBRANCH  12  13
ENDBRANCH   1  12
TORSDOF 4
ENDMDL
