MODEL 1
REMARK VINA RESULT: -7.370162155      0.000      0.000
REMARK  6 active torsions:
REMARK  status: ('A' for Active; 'I' for Inactive)
REMARK    1  A    between atoms: C3_3  and  C4_4 
REMARK    2  A    between atoms: C4_4  and  S1_5 
REMARK    3  A    between atoms: S1_5  and  C5_6 
REMARK    4  A    between atoms: C6_8  and  C7_9 
REMARK    5  A    between atoms: C13_20  and  N2_21 
REMARK    6  A    between atoms: N2_21  and  O2_23 
ROOT
HETATM    1  C1  UNL     1     -12.486  34.654  -5.134  1.00  0.00     0.112 C 
HETATM    2  C2  UNL     1     -13.566  34.872  -6.101  1.00  0.00    -0.110 C 
HETATM    3  C3  UNL     1     -14.439  35.051  -6.913  1.00  0.00    -0.097 C 
ENDROOT
BRANCH   3   4
HETATM    4  C4  UNL     1     -15.481  35.264  -7.915  1.00  0.00     0.175 C 
BRANCH   4   5
HETATM    5  S1  UNL     1     -17.147  35.126  -7.191  1.00  0.00    -0.089 SA
BRANCH   5   6
HETATM    6  C5  UNL     1     -17.088  35.891  -5.576  1.00  0.00     0.161 A 
HETATM    7  O1  UNL     1     -17.258  35.296  -4.400  1.00  0.00    -0.282 OA
HETATM    8  C6  UNL     1     -17.151  36.144  -3.426  1.00  0.00     0.162 A 
HETATM    9  N1  UNL     1     -16.900  37.342  -3.987  1.00  0.00    -0.318 N 
HETATM   10  C13 UNL     1     -16.853  37.227  -5.328  1.00  0.00     0.168 A 
ATOM     11  H1  UNL     1     -16.765  38.212  -3.471  1.00  0.00     0.169 HD
BRANCH   8  12
HETATM   12  C7  UNL     1     -17.269  35.907  -1.989  1.00  0.00     0.039 A 
HETATM   13  C8  UNL     1     -18.345  36.371  -1.271  1.00  0.00     0.043 A 
HETATM   14  C9  UNL     1     -18.482  36.160   0.089  1.00  0.00     0.056 A 
HETATM   15 CL1  UNL     1     -19.868  36.767   0.973  1.00  0.00    -0.083 Cl
HETATM   16  C10 UNL     1     -17.494  35.448   0.769  1.00  0.00     0.057 A 
HETATM   17 CL2  UNL     1     -17.679  35.185   2.501  1.00  0.00    -0.082 Cl
HETATM   18  C11 UNL     1     -16.407  34.975   0.067  1.00  0.00     0.050 A 
HETATM   19  C12 UNL     1     -16.301  35.204  -1.300  1.00  0.00     0.050 A 
HETATM   20 CL3  UNL     1     -14.917  34.599  -2.187  1.00  0.00    -0.083 Cl
ENDBRANCH   8  12
BRANCH  10  21
HETATM   21  N2  UNL     1     -16.620  38.214  -6.326  1.00  0.00    -0.250 N 
ATOM     22  H2  UNL     1     -17.422  38.590  -6.832  1.00  0.00     0.196 HD
BRANCH  21  23
HETATM   23  O2  UNL     1     -15.482  38.643  -6.615  1.00  0.00    -0.288 OA
ATOM     24  H2  UNL     1     -15.064  39.364  -6.158  1.00  0.00     0.244 HD
ENDBRANCH  21  23
ENDBRANCH  10  21
ENDBRANCH   5   6
ENDBRANCH   4   5
ENDBRANCH   3   4
TORSDOF 6
ENDMDL
MODEL 2
REMARK VINA RESULT: -7.318601197      3.714      5.378
REMARK  6 active torsions:
REMARK  status: ('A' for Active; 'I' for Inactive)
REMARK    1  A    between atoms: C3_3  and  C4_4 
REMARK    2  A    between atoms: C4_4  and  S1_5 
REMARK    3  A    between atoms: S1_5  and  C5_6 
REMARK    4  A    between atoms: C6_8  and  C7_9 
REMARK    5  A    between atoms: C13_20  and  N2_21 
REMARK    6  A    between atoms: N2_21  and  O2_23 
ROOT
HETATM    1  C1  UNL     1     -21.833  40.215   0.254  1.00  0.00     0.112 C 
HETATM    2  C2  UNL     1     -22.018  40.282  -1.199  1.00  0.00    -0.110 C 
HETATM    3  C3  UNL     1     -22.154  40.324  -2.396  1.00  0.00    -0.097 C 
ENDROOT
BRANCH   3   4
HETATM    4  C4  UNL     1     -22.301  40.356  -3.850  1.00  0.00     0.175 C 
BRANCH   4   5
HETATM    5  S1  UNL     1     -21.640  38.844  -4.623  1.00  0.00    -0.089 SA
BRANCH   5   6
HETATM    6  C5  UNL     1     -20.186  38.367  -3.700  1.00  0.00     0.161 A 
HETATM    7  O1  UNL     1     -20.150  37.796  -2.499  1.00  0.00    -0.282 OA
HETATM    8  C6  UNL     1     -18.929  37.584  -2.119  1.00  0.00     0.162 A 
HETATM    9  N1  UNL     1     -18.135  38.033  -3.110  1.00  0.00    -0.318 N 
HETATM   10  C13 UNL     1     -18.881  38.530  -4.115  1.00  0.00     0.168 A 
ATOM     11  H1  UNL     1     -17.116  38.001  -3.100  1.00  0.00     0.169 HD
BRANCH   8  12
HETATM   12  C7  UNL     1     -18.450  36.982  -0.877  1.00  0.00     0.039 A 
HETATM   13  C8  UNL     1     -18.624  37.605   0.336  1.00  0.00     0.043 A 
HETATM   14  C9  UNL     1     -18.182  37.058   1.527  1.00  0.00     0.056 A 
HETATM   15 CL1  UNL     1     -18.420  37.881   3.055  1.00  0.00    -0.083 Cl
HETATM   16  C10 UNL     1     -17.532  35.824   1.507  1.00  0.00     0.057 A 
HETATM   17 CL2  UNL     1     -16.973  35.137   3.030  1.00  0.00    -0.082 Cl
HETATM   18  C11 UNL     1     -17.348  35.184   0.301  1.00  0.00     0.050 A 
HETATM   19  C12 UNL     1     -17.806  35.762  -0.877  1.00  0.00     0.050 A 
HETATM   20 CL3  UNL     1     -17.569  34.942  -2.406  1.00  0.00    -0.083 Cl
ENDBRANCH   8  12
BRANCH  10  21
HETATM   21  N2  UNL     1     -18.485  39.107  -5.353  1.00  0.00    -0.250 N 
ATOM     22  H2  UNL     1     -18.477  40.125  -5.432  1.00  0.00     0.196 HD
BRANCH  21  23
HETATM   23  O2  UNL     1     -18.146  38.432  -6.349  1.00  0.00    -0.288 OA
ATOM     24  H2  UNL     1     -17.255  38.135  -6.499  1.00  0.00     0.244 HD
ENDBRANCH  21  23
ENDBRANCH  10  21
ENDBRANCH   5   6
ENDBRANCH   4   5
ENDBRANCH   3   4
TORSDOF 6
ENDMDL
MODEL 3
REMARK VINA RESULT: -7.194549762      1.477      1.715
REMARK  6 active torsions:
REMARK  status: ('A' for Active; 'I' for Inactive)
REMARK    1  A    between atoms: C3_3  and  C4_4 
REMARK    2  A    between atoms: C4_4  and  S1_5 
REMARK    3  A    between atoms: S1_5  and  C5_6 
REMARK    4  A    between atoms: C6_8  and  C7_9 
REMARK    5  A    between atoms: C13_20  and  N2_21 
REMARK    6  A    between atoms: N2_21  and  O2_23 
ROOT
HETATM    1  C1  UNL     1     -12.698  34.296  -4.998  1.00  0.00     0.112 C 
HETATM    2  C2  UNL     1     -13.613  35.040  -5.868  1.00  0.00    -0.110 C 
HETATM    3  C3  UNL     1     -14.356  35.645  -6.601  1.00  0.00    -0.097 C 
ENDROOT
BRANCH   3   4
HETATM    4  C4  UNL     1     -15.245  36.365  -7.509  1.00  0.00     0.175 C 
BRANCH   4   5
HETATM    5  S1  UNL     1     -16.328  37.522  -6.610  1.00  0.00    -0.089 SA
BRANCH   5   6
HETATM    6  C5  UNL     1     -17.035  36.626  -5.234  1.00  0.00     0.161 A 
HETATM    7  O1  UNL     1     -16.723  36.753  -3.948  1.00  0.00    -0.282 OA
HETATM    8  C6  UNL     1     -17.427  35.950  -3.214  1.00  0.00     0.162 A 
HETATM    9  N1  UNL     1     -18.234  35.272  -4.052  1.00  0.00    -0.318 N 
HETATM   10  C13 UNL     1     -18.020  35.664  -5.322  1.00  0.00     0.168 A 
ATOM     11  H1  UNL     1     -18.909  34.563  -3.766  1.00  0.00     0.169 HD
BRANCH   8  12
HETATM   12  C7  UNL     1     -17.396  35.774  -1.764  1.00  0.00     0.039 A 
HETATM   13  C8  UNL     1     -18.425  36.214  -0.966  1.00  0.00     0.043 A 
HETATM   14  C9  UNL     1     -18.422  36.060   0.409  1.00  0.00     0.056 A 
HETATM   15 CL1  UNL     1     -19.750  36.633   1.397  1.00  0.00    -0.083 Cl
HETATM   16  C10 UNL     1     -17.336  35.433   1.020  1.00  0.00     0.057 A 
HETATM   17 CL2  UNL     1     -17.342  35.241   2.771  1.00  0.00    -0.082 Cl
HETATM   18  C11 UNL     1     -16.295  34.984   0.236  1.00  0.00     0.050 A 
HETATM   19  C12 UNL     1     -16.331  35.155  -1.143  1.00  0.00     0.050 A 
HETATM   20 CL3  UNL     1     -15.004  34.583  -2.133  1.00  0.00    -0.083 Cl
ENDBRANCH   8  12
BRANCH  10  21
HETATM   21  N2  UNL     1     -18.631  35.231  -6.532  1.00  0.00    -0.250 N 
ATOM     22  H2  UNL     1     -18.225  34.433  -7.022  1.00  0.00     0.196 HD
BRANCH  21  23
HETATM   23  O2  UNL     1     -19.642  35.778  -7.025  1.00  0.00    -0.288 OA
ATOM     24  H2  UNL     1     -19.785  35.861  -7.961  1.00  0.00     0.244 HD
ENDBRANCH  21  23
ENDBRANCH  10  21
ENDBRANCH   5   6
ENDBRANCH   4   5
ENDBRANCH   3   4
TORSDOF 6
ENDMDL
MODEL 4
REMARK VINA RESULT: -7.175856898      1.309      1.341
REMARK  6 active torsions:
REMARK  status: ('A' for Active; 'I' for Inactive)
REMARK    1  A    between atoms: C3_3  and  C4_4 
REMARK    2  A    between atoms: C4_4  and  S1_5 
REMARK    3  A    between atoms: S1_5  and  C5_6 
REMARK    4  A    between atoms: C6_8  and  C7_9 
REMARK    5  A    between atoms: C13_20  and  N2_21 
REMARK    6  A    between atoms: N2_21  and  O2_23 
ROOT
HETATM    1  C1  UNL     1     -13.583  35.384  -5.123  1.00  0.00     0.112 C 
HETATM    2  C2  UNL     1     -14.799  35.390  -5.942  1.00  0.00    -0.110 C 
HETATM    3  C3  UNL     1     -15.786  35.400  -6.633  1.00  0.00    -0.097 C 
ENDROOT
BRANCH   3   4
HETATM    4  C4  UNL     1     -16.969  35.415  -7.492  1.00  0.00     0.175 C 
BRANCH   4   5
HETATM    5  S1  UNL     1     -18.505  35.284  -6.521  1.00  0.00    -0.089 SA
BRANCH   5   6
HETATM    6  C5  UNL     1     -18.190  36.032  -4.928  1.00  0.00     0.161 A 
HETATM    7  O1  UNL     1     -18.085  35.410  -3.757  1.00  0.00    -0.282 OA
HETATM    8  C6  UNL     1     -17.853  36.253  -2.799  1.00  0.00     0.162 A 
HETATM    9  N1  UNL     1     -17.803  37.473  -3.366  1.00  0.00    -0.318 N 
HETATM   10  C13 UNL     1     -18.009  37.379  -4.693  1.00  0.00     0.168 A 
ATOM     11  H1  UNL     1     -17.634  38.344  -2.862  1.00  0.00     0.169 HD
BRANCH   8  12
HETATM   12  C7  UNL     1     -17.673  35.989  -1.373  1.00  0.00     0.039 A 
HETATM   13  C8  UNL     1     -18.573  36.445  -0.441  1.00  0.00     0.043 A 
HETATM   14  C9  UNL     1     -18.427  36.209   0.915  1.00  0.00     0.056 A 
HETATM   15 CL1  UNL     1     -19.595  36.806   2.077  1.00  0.00    -0.083 Cl
HETATM   16  C10 UNL     1     -17.326  35.480   1.363  1.00  0.00     0.057 A 
HETATM   17 CL2  UNL     1     -17.150  35.186   3.091  1.00  0.00    -0.082 Cl
HETATM   18  C11 UNL     1     -16.412  35.014   0.443  1.00  0.00     0.050 A 
HETATM   19  C12 UNL     1     -16.590  35.269  -0.912  1.00  0.00     0.050 A 
HETATM   20 CL3  UNL     1     -15.425  34.673  -2.077  1.00  0.00    -0.083 Cl
ENDBRANCH   8  12
BRANCH  10  21
HETATM   21  N2  UNL     1     -18.045  38.392  -5.691  1.00  0.00    -0.250 N 
ATOM     22  H2  UNL     1     -17.223  38.521  -6.281  1.00  0.00     0.196 HD
BRANCH  21  23
HETATM   23  O2  UNL     1     -19.034  39.133  -5.881  1.00  0.00    -0.288 OA
ATOM     24  H2  UNL     1     -19.418  39.281  -6.738  1.00  0.00     0.244 HD
ENDBRANCH  21  23
ENDBRANCH  10  21
ENDBRANCH   5   6
ENDBRANCH   4   5
ENDBRANCH   3   4
TORSDOF 6
ENDMDL
MODEL 5
REMARK VINA RESULT: -7.165664658      4.207      7.557
REMARK  6 active torsions:
REMARK  status: ('A' for Active; 'I' for Inactive)
REMARK    1  A    between atoms: C3_3  and  C4_4 
REMARK    2  A    between atoms: C4_4  and  S1_5 
REMARK    3  A    between atoms: S1_5  and  C5_6 
REMARK    4  A    between atoms: C6_8  and  C7_9 
REMARK    5  A    between atoms: C13_20  and  N2_21 
REMARK    6  A    between atoms: N2_21  and  O2_23 
ROOT
HETATM    1  C1  UNL     1     -21.257  39.511  -1.226  1.00  0.00     0.112 C 
HETATM    2  C2  UNL     1     -20.677  39.042   0.035  1.00  0.00    -0.110 C 
HETATM    3  C3  UNL     1     -20.210  38.637   1.070  1.00  0.00    -0.097 C 
ENDROOT
BRANCH   3   4
HETATM    4  C4  UNL     1     -19.653  38.122   2.319  1.00  0.00     0.175 C 
BRANCH   4   5
HETATM    5  S1  UNL     1     -19.520  36.305   2.295  1.00  0.00    -0.089 SA
BRANCH   5   6
HETATM    6  C5  UNL     1     -18.127  35.889   1.255  1.00  0.00     0.161 A 
HETATM    7  O1  UNL     1     -18.068  35.957  -0.072  1.00  0.00    -0.282 OA
HETATM    8  C6  UNL     1     -16.907  35.582  -0.509  1.00  0.00     0.162 A 
HETATM    9  N1  UNL     1     -16.176  35.257   0.575  1.00  0.00    -0.318 N 
HETATM   10  C13 UNL     1     -16.901  35.435   1.695  1.00  0.00     0.168 A 
ATOM     11  H1  UNL     1     -15.212  34.924   0.550  1.00  0.00     0.169 HD
BRANCH   8  12
HETATM   12  C7  UNL     1     -16.429  35.507  -1.888  1.00  0.00     0.039 A 
HETATM   13  C8  UNL     1     -15.161  35.068  -2.184  1.00  0.00     0.043 A 
HETATM   14  C9  UNL     1     -14.683  34.986  -3.480  1.00  0.00     0.056 A 
HETATM   15 CL1  UNL     1     -13.060  34.422  -3.823  1.00  0.00    -0.083 Cl
HETATM   16  C10 UNL     1     -15.515  35.361  -4.535  1.00  0.00     0.057 A 
HETATM   17 CL2  UNL     1     -14.897  35.253  -6.181  1.00  0.00    -0.082 Cl
HETATM   18  C11 UNL     1     -16.790  35.804  -4.258  1.00  0.00     0.050 A 
HETATM   19  C12 UNL     1     -17.238  35.873  -2.944  1.00  0.00     0.050 A 
HETATM   20 CL3  UNL     1     -18.860  36.436  -2.598  1.00  0.00    -0.083 Cl
ENDBRANCH   8  12
BRANCH  10  21
HETATM   21  N2  UNL     1     -16.552  35.223   3.058  1.00  0.00    -0.250 N 
ATOM     22  H2  UNL     1     -16.844  34.353   3.504  1.00  0.00     0.196 HD
BRANCH  21  23
HETATM   23  O2  UNL     1     -15.904  36.049   3.738  1.00  0.00    -0.288 OA
ATOM     24  H2  UNL     1     -16.286  36.554   4.447  1.00  0.00     0.244 HD
ENDBRANCH  21  23
ENDBRANCH  10  21
ENDBRANCH   5   6
ENDBRANCH   4   5
ENDBRANCH   3   4
TORSDOF 6
ENDMDL
