MODEL 1
REMARK VINA RESULT: -7.590992594      0.000      0.000
REMARK  5 active torsions:
REMARK  status: ('A' for Active; 'I' for Inactive)
REMARK    1  A    between atoms: C2_2  and  N1_4 
REMARK    2  A    between atoms: C2_2  and  C4_8 
REMARK       I    between atoms: C4_8  and  N2_10 
REMARK    3  A    between atoms: C8_14  and  C9_15 
REMARK       I    between atoms: C9_15  and  N3_17 
REMARK    4  A    between atoms: N3_17  and  N4_19 
REMARK       I    between atoms: N4_19  and  C10_21 
REMARK       I    between atoms: C10_21  and  N6_25 
REMARK    5  A    between atoms: N6_25  and  O3_27 
ROOT
HETATM    1  C4  UNL     1      14.450  15.293  62.926  1.00  0.00     0.256 C 
HETATM    2  O1  UNL     1      13.500  16.162  62.862  1.00  0.00    -0.271 OA
HETATM    3  N2  UNL     1      14.364  14.111  62.183  1.00  0.00    -0.337 N 
HETATM    4  C5  UNL     1      15.273  13.010  62.136  1.00  0.00     0.127 C 
HETATM    5  C6  UNL     1      14.546  11.893  61.350  1.00  0.00     0.022 C 
HETATM    6  C7  UNL     1      13.076  12.336  61.495  1.00  0.00     0.037 C 
HETATM    7  C8  UNL     1      13.285  13.808  61.266  1.00  0.00     0.181 C 
ENDROOT
BRANCH   7   8
HETATM    8  C9  UNL     1      13.760  13.959  59.857  1.00  0.00     0.259 C 
HETATM    9  O2  UNL     1      14.464  14.907  59.464  1.00  0.00    -0.269 OA
HETATM   10  N3  UNL     1      13.369  12.944  58.941  1.00  0.00    -0.254 N 
ATOM     11  H3  UNL     1      12.793  12.169  59.270  1.00  0.00     0.190 HD
BRANCH  10  12
HETATM   12  N4  UNL     1      13.760  12.988  57.594  1.00  0.00    -0.128 N 
HETATM   13  C10 UNL     1      15.042  12.605  57.137  1.00  0.00     0.710 C 
HETATM   14  N5  UNL     1      15.687  11.699  57.770  1.00  0.00    -0.232 N 
HETATM   15  N6  UNL     1      15.628  13.201  55.995  1.00  0.00    -0.098 N 
ATOM     16  H52 UNL     1      15.265  11.269  58.593  1.00  0.00     0.174 HD
ATOM     17  H51 UNL     1      16.612  11.422  57.441  1.00  0.00     0.174 HD
ATOM     18  H6  UNL     1      16.047  14.130  56.030  1.00  0.00     0.213 HD
ATOM     19  H4  UNL     1      13.082  13.316  56.906  1.00  0.00     0.205 HD
BRANCH  15  20
HETATM   20  O3  UNL     1      15.601  12.465  54.846  1.00  0.00    -0.276 OA
ATOM     21  H3  UNL     1      15.501  12.952  54.037  1.00  0.00     0.245 HD
ENDBRANCH  15  20
ENDBRANCH  10  12
ENDBRANCH   7   8
BRANCH   1  22
HETATM   22  C2  UNL     1      15.580  15.613  63.792  1.00  0.00     0.196 C 
HETATM   23  C1  UNL     1      15.221  16.962  64.456  1.00  0.00     0.056 C 
HETATM   24  C3  UNL     1      15.715  14.619  64.940  1.00  0.00     0.056 C 
BRANCH  22  25
HETATM   25  N1  UNL     1      16.825  15.701  63.118  1.00  0.00    -0.062 N 
ATOM     26  H13 UNL     1      16.703  15.896  62.124  1.00  0.00     0.275 HD
ATOM     27  H12 UNL     1      17.336  16.544  63.378  1.00  0.00     0.275 HD
ATOM     28  H11 UNL     1      17.380  14.859  63.273  1.00  0.00     0.275 HD
ENDBRANCH  22  25
ENDBRANCH   1  22
TORSDOF 5
ENDMDL
MODEL 2
REMARK VINA RESULT: -7.395116618      2.783      6.350
REMARK  5 active torsions:
REMARK  status: ('A' for Active; 'I' for Inactive)
REMARK    1  A    between atoms: C2_2  and  N1_4 
REMARK    2  A    between atoms: C2_2  and  C4_8 
REMARK       I    between atoms: C4_8  and  N2_10 
REMARK    3  A    between atoms: C8_14  and  C9_15 
REMARK       I    between atoms: C9_15  and  N3_17 
REMARK    4  A    between atoms: N3_17  and  N4_19 
REMARK       I    between atoms: N4_19  and  C10_21 
REMARK       I    between atoms: C10_21  and  N6_25 
REMARK    5  A    between atoms: N6_25  and  O3_27 
ROOT
HETATM    1  C4  UNL     1      15.317  11.634  56.941  1.00  0.00     0.256 C 
HETATM    2  O1  UNL     1      16.208  12.224  56.222  1.00  0.00    -0.271 OA
HETATM    3  N2  UNL     1      15.467  11.582  58.331  1.00  0.00    -0.337 N 
HETATM    4  C5  UNL     1      14.630  10.955  59.304  1.00  0.00     0.127 C 
HETATM    5  C6  UNL     1      15.416  11.006  60.636  1.00  0.00     0.022 C 
HETATM    6  C7  UNL     1      16.856  11.208  60.125  1.00  0.00     0.037 C 
HETATM    7  C8  UNL     1      16.550  12.219  59.053  1.00  0.00     0.181 C 
ENDROOT
BRANCH   7   8
HETATM    8  C9  UNL     1      16.046  13.442  59.748  1.00  0.00     0.259 C 
HETATM    9  O2  UNL     1      16.564  13.915  60.775  1.00  0.00    -0.269 OA
HETATM   10  N3  UNL     1      14.908  14.074  59.176  1.00  0.00    -0.254 N 
ATOM     11  H3  UNL     1      14.488  13.682  58.333  1.00  0.00     0.190 HD
BRANCH  10  12
HETATM   12  N4  UNL     1      14.353  15.229  59.749  1.00  0.00    -0.128 N 
HETATM   13  C10 UNL     1      13.149  15.235  60.489  1.00  0.00     0.710 C 
HETATM   14  N5  UNL     1      12.815  14.192  61.152  1.00  0.00    -0.232 N 
HETATM   15  N6  UNL     1      12.303  16.370  60.515  1.00  0.00    -0.098 N 
ATOM     16  H52 UNL     1      13.425  13.375  61.133  1.00  0.00     0.174 HD
ATOM     17  H51 UNL     1      11.947  14.197  61.686  1.00  0.00     0.174 HD
ATOM     18  H6  UNL     1      11.687  16.598  59.734  1.00  0.00     0.213 HD
ATOM     19  H4  UNL     1      14.846  16.113  59.623  1.00  0.00     0.205 HD
BRANCH  15  20
HETATM   20  O3  UNL     1      12.356  17.141  61.639  1.00  0.00    -0.276 OA
ATOM     21  H3  UNL     1      11.565  17.616  61.863  1.00  0.00     0.245 HD
ENDBRANCH  15  20
ENDBRANCH  10  12
ENDBRANCH   7   8
BRANCH   1  22
HETATM   22  C2  UNL     1      14.181  11.047  56.237  1.00  0.00     0.196 C 
HETATM   23  C1  UNL     1      14.751  10.532  54.896  1.00  0.00     0.056 C 
HETATM   24  C3  UNL     1      13.647   9.811  56.953  1.00  0.00     0.056 C 
BRANCH  22  25
HETATM   25  N1  UNL     1      13.106  11.944  56.015  1.00  0.00    -0.062 N 
ATOM     26  H13 UNL     1      12.712  11.837  55.080  1.00  0.00     0.275 HD
ATOM     27  H12 UNL     1      12.282  11.689  56.558  1.00  0.00     0.275 HD
ATOM     28  H11 UNL     1      13.395  12.906  56.194  1.00  0.00     0.275 HD
ENDBRANCH  22  25
ENDBRANCH   1  22
TORSDOF 5
ENDMDL
MODEL 3
REMARK VINA RESULT: -7.286766741      2.031      6.716
REMARK  5 active torsions:
REMARK  status: ('A' for Active; 'I' for Inactive)
REMARK    1  A    between atoms: C2_2  and  N1_4 
REMARK    2  A    between atoms: C2_2  and  C4_8 
REMARK       I    between atoms: C4_8  and  N2_10 
REMARK    3  A    between atoms: C8_14  and  C9_15 
REMARK       I    between atoms: C9_15  and  N3_17 
REMARK    4  A    between atoms: N3_17  and  N4_19 
REMARK       I    between atoms: N4_19  and  C10_21 
REMARK       I    between atoms: C10_21  and  N6_25 
REMARK    5  A    between atoms: N6_25  and  O3_27 
ROOT
HETATM    1  C4  UNL     1      15.365  11.476  56.917  1.00  0.00     0.256 C 
HETATM    2  O1  UNL     1      16.310  12.004  56.219  1.00  0.00    -0.271 OA
HETATM    3  N2  UNL     1      15.439  11.489  58.314  1.00  0.00    -0.337 N 
HETATM    4  C5  UNL     1      14.534  10.934  59.269  1.00  0.00     0.127 C 
HETATM    5  C6  UNL     1      15.249  11.031  60.638  1.00  0.00     0.022 C 
HETATM    6  C7  UNL     1      16.720  11.168  60.196  1.00  0.00     0.037 C 
HETATM    7  C8  UNL     1      16.501  12.132  59.061  1.00  0.00     0.181 C 
ENDROOT
BRANCH   7   8
HETATM    8  C9  UNL     1      15.997  13.401  59.668  1.00  0.00     0.259 C 
HETATM    9  O2  UNL     1      15.192  14.163  59.104  1.00  0.00    -0.269 OA
HETATM   10  N3  UNL     1      16.485  13.724  60.964  1.00  0.00    -0.254 N 
ATOM     11  H3  UNL     1      17.144  13.094  61.422  1.00  0.00     0.190 HD
BRANCH  10  12
HETATM   12  N4  UNL     1      16.076  14.892  61.626  1.00  0.00    -0.128 N 
HETATM   13  C10 UNL     1      14.985  14.944  62.523  1.00  0.00     0.710 C 
HETATM   14  N5  UNL     1      14.686  13.905  63.207  1.00  0.00    -0.232 N 
HETATM   15  N6  UNL     1      14.214  16.121  62.681  1.00  0.00    -0.098 N 
ATOM     16  H52 UNL     1      15.242  13.057  63.093  1.00  0.00     0.174 HD
ATOM     17  H51 UNL     1      13.899  13.942  63.854  1.00  0.00     0.174 HD
ATOM     18  H6  UNL     1      13.512  16.400  61.995  1.00  0.00     0.213 HD
ATOM     19  H4  UNL     1      16.596  15.752  61.449  1.00  0.00     0.205 HD
BRANCH  15  20
HETATM   20  O3  UNL     1      14.461  16.861  63.800  1.00  0.00    -0.276 OA
ATOM     21  H3  UNL     1      14.974  17.651  63.678  1.00  0.00     0.245 HD
ENDBRANCH  15  20
ENDBRANCH  10  12
ENDBRANCH   7   8
BRANCH   1  22
HETATM   22  C2  UNL     1      14.251  10.885  56.182  1.00  0.00     0.196 C 
HETATM   23  C1  UNL     1      14.848  10.422  54.833  1.00  0.00     0.056 C 
HETATM   24  C3  UNL     1      13.736   9.617  56.854  1.00  0.00     0.056 C 
BRANCH  22  25
HETATM   25  N1  UNL     1      13.159  11.765  55.972  1.00  0.00    -0.062 N 
ATOM     26  H13 UNL     1      12.999  12.368  56.779  1.00  0.00     0.275 HD
ATOM     27  H12 UNL     1      13.381  12.485  55.284  1.00  0.00     0.275 HD
ATOM     28  H11 UNL     1      12.319  11.244  55.717  1.00  0.00     0.275 HD
ENDBRANCH  22  25
ENDBRANCH   1  22
TORSDOF 5
ENDMDL
MODEL 4
REMARK VINA RESULT: -7.208814114      1.888      6.604
REMARK  5 active torsions:
REMARK  status: ('A' for Active; 'I' for Inactive)
REMARK    1  A    between atoms: C2_2  and  N1_4 
REMARK    2  A    between atoms: C2_2  and  C4_8 
REMARK       I    between atoms: C4_8  and  N2_10 
REMARK    3  A    between atoms: C8_14  and  C9_15 
REMARK       I    between atoms: C9_15  and  N3_17 
REMARK    4  A    between atoms: N3_17  and  N4_19 
REMARK       I    between atoms: N4_19  and  C10_21 
REMARK       I    between atoms: C10_21  and  N6_25 
REMARK    5  A    between atoms: N6_25  and  O3_27 
ROOT
HETATM    1  C4  UNL     1      15.195  11.901  58.331  1.00  0.00     0.256 C 
HETATM    2  O1  UNL     1      16.482  11.842  58.336  1.00  0.00    -0.271 OA
HETATM    3  N2  UNL     1      14.507  12.204  59.511  1.00  0.00    -0.337 N 
HETATM    4  C5  UNL     1      13.099  12.283  59.737  1.00  0.00     0.127 C 
HETATM    5  C6  UNL     1      12.922  12.402  61.270  1.00  0.00     0.022 C 
HETATM    6  C7  UNL     1      14.271  11.848  61.770  1.00  0.00     0.037 C 
HETATM    7  C8  UNL     1      15.156  12.532  60.764  1.00  0.00     0.181 C 
ENDROOT
BRANCH   7   8
HETATM    8  C9  UNL     1      15.044  14.000  61.023  1.00  0.00     0.259 C 
HETATM    9  O2  UNL     1      15.032  14.860  60.125  1.00  0.00    -0.269 OA
HETATM   10  N3  UNL     1      14.946  14.400  62.384  1.00  0.00    -0.254 N 
ATOM     11  H3  UNL     1      14.955  13.690  63.117  1.00  0.00     0.190 HD
BRANCH  10  12
HETATM   12  N4  UNL     1      14.836  15.753  62.739  1.00  0.00    -0.128 N 
HETATM   13  C10 UNL     1      14.951  16.228  64.066  1.00  0.00     0.710 C 
HETATM   14  N5  UNL     1      15.696  15.598  64.894  1.00  0.00    -0.232 N 
HETATM   15  N6  UNL     1      14.258  17.383  64.499  1.00  0.00    -0.098 N 
ATOM     16  H52 UNL     1      16.195  14.765  64.582  1.00  0.00     0.174 HD
ATOM     17  H51 UNL     1      15.779  15.940  65.852  1.00  0.00     0.174 HD
ATOM     18  H6  UNL     1      13.262  17.363  64.717  1.00  0.00     0.213 HD
ATOM     19  H4  UNL     1      14.665  16.433  61.998  1.00  0.00     0.205 HD
BRANCH  15  20
HETATM   20  O3  UNL     1      14.996  18.526  64.610  1.00  0.00    -0.276 OA
ATOM     21  H3  UNL     1      14.532  19.343  64.471  1.00  0.00     0.245 HD
ENDBRANCH  15  20
ENDBRANCH  10  12
ENDBRANCH   7   8
BRANCH   1  22
HETATM   22  C2  UNL     1      14.526  11.642  57.060  1.00  0.00     0.196 C 
HETATM   23  C1  UNL     1      15.647  11.657  55.996  1.00  0.00     0.056 C 
HETATM   24  C3  UNL     1      13.934  10.238  57.007  1.00  0.00     0.056 C 
BRANCH  22  25
HETATM   25  N1  UNL     1      13.511  12.577  56.734  1.00  0.00    -0.062 N 
ATOM     26  H13 UNL     1      13.603  13.438  57.274  1.00  0.00     0.275 HD
ATOM     27  H12 UNL     1      13.641  12.966  55.801  1.00  0.00     0.275 HD
ATOM     28  H11 UNL     1      12.586  12.160  56.845  1.00  0.00     0.275 HD
ENDBRANCH  22  25
ENDBRANCH   1  22
TORSDOF 5
ENDMDL
MODEL 5
REMARK VINA RESULT: -7.149767460      2.966      3.888
REMARK  5 active torsions:
REMARK  status: ('A' for Active; 'I' for Inactive)
REMARK    1  A    between atoms: C2_2  and  N1_4 
REMARK    2  A    between atoms: C2_2  and  C4_8 
REMARK       I    between atoms: C4_8  and  N2_10 
REMARK    3  A    between atoms: C8_14  and  C9_15 
REMARK       I    between atoms: C9_15  and  N3_17 
REMARK    4  A    between atoms: N3_17  and  N4_19 
REMARK       I    between atoms: N4_19  and  C10_21 
REMARK       I    between atoms: C10_21  and  N6_25 
REMARK    5  A    between atoms: N6_25  and  O3_27 
ROOT
HETATM    1  C4  UNL     1      13.107  13.599  60.867  1.00  0.00     0.256 C 
HETATM    2  O1  UNL     1      12.448  12.898  61.724  1.00  0.00    -0.271 OA
HETATM    3  N2  UNL     1      14.405  13.219  60.506  1.00  0.00    -0.337 N 
HETATM    4  C5  UNL     1      15.317  13.863  59.616  1.00  0.00     0.127 C 
HETATM    5  C6  UNL     1      16.673  13.140  59.801  1.00  0.00     0.022 C 
HETATM    6  C7  UNL     1      16.477  12.489  61.185  1.00  0.00     0.037 C 
HETATM    7  C8  UNL     1      15.060  12.020  60.990  1.00  0.00     0.181 C 
ENDROOT
BRANCH   7   8
HETATM    8  C9  UNL     1      15.095  10.991  59.907  1.00  0.00     0.259 C 
HETATM    9  O2  UNL     1      15.950  10.090  59.839  1.00  0.00    -0.269 OA
HETATM   10  N3  UNL     1      14.079  11.075  58.916  1.00  0.00    -0.254 N 
ATOM     11  H3  UNL     1      13.380  11.815  58.978  1.00  0.00     0.190 HD
BRANCH  10  12
HETATM   12  N4  UNL     1      14.019  10.159  57.855  1.00  0.00    -0.128 N 
HETATM   13  C10 UNL     1      13.394  10.432  56.617  1.00  0.00     0.710 C 
HETATM   14  N5  UNL     1      13.365  11.636  56.182  1.00  0.00    -0.232 N 
HETATM   15  N6  UNL     1      12.798   9.405  55.847  1.00  0.00    -0.098 N 
ATOM     16  H52 UNL     1      13.794  12.376  56.737  1.00  0.00     0.174 HD
ATOM     17  H51 UNL     1      12.914  11.833  55.289  1.00  0.00     0.174 HD
ATOM     18  H6  UNL     1      11.887   9.013  56.087  1.00  0.00     0.213 HD
ATOM     19  H4  UNL     1      14.451   9.244  57.984  1.00  0.00     0.205 HD
BRANCH  15  20
HETATM   20  O3  UNL     1      13.508   8.967  54.767  1.00  0.00    -0.276 OA
ATOM     21  H3  UNL     1      13.555   8.026  54.647  1.00  0.00     0.245 HD
ENDBRANCH  15  20
ENDBRANCH  10  12
ENDBRANCH   7   8
BRANCH   1  22
HETATM   22  C2  UNL     1      12.436  14.772  60.315  1.00  0.00     0.196 C 
HETATM   23  C1  UNL     1      11.239  14.219  59.509  1.00  0.00     0.056 C 
HETATM   24  C3  UNL     1      11.823  15.641  61.408  1.00  0.00     0.056 C 
BRANCH  22  25
HETATM   25  N1  UNL     1      13.261  15.585  59.497  1.00  0.00    -0.062 N 
ATOM     26  H13 UNL     1      13.363  16.525  59.879  1.00  0.00     0.275 HD
ATOM     27  H12 UNL     1      14.238  15.295  59.539  1.00  0.00     0.275 HD
ATOM     28  H11 UNL     1      12.913  15.603  58.538  1.00  0.00     0.275 HD
ENDBRANCH  22  25
ENDBRANCH   1  22
TORSDOF 5
ENDMDL
