MODEL 1
REMARK VINA RESULT: -8.880661237      0.000      0.000
REMARK  6 active torsions:
REMARK  status: ('A' for Active; 'I' for Inactive)
REMARK    1  A    between atoms: C2_2  and  C19_21 
REMARK    2  A    between atoms: C3_3  and  C4_4 
REMARK    3  A    between atoms: C4_4  and  C6_6 
REMARK    4  A    between atoms: C7_7  and  C8_8 
REMARK    5  A    between atoms: C8_8  and  N1_9 
REMARK    6  A    between atoms: N1_9  and  C9_11 
ROOT
HETATM    1  C8  UNL     1     -20.154  35.868  -3.920  1.00  0.00     0.209 C 
ENDROOT
BRANCH   1   2
HETATM    2  C7  UNL     1     -18.991  35.711  -3.044  1.00  0.00    -0.087 C 
HETATM    3  C6  UNL     1     -18.032  35.604  -2.325  1.00  0.00    -0.097 C 
BRANCH   3   4
HETATM    4  C4  UNL     1     -16.839  35.499  -1.425  1.00  0.00     0.083 C 
HETATM    5  C5  UNL     1     -15.928  34.448  -1.914  1.00  0.00     0.027 C 
BRANCH   4   6
HETATM    6  C3  UNL     1     -17.355  35.459  -0.076  1.00  0.00    -0.007 C 
HETATM    7  C2  UNL     1     -18.026  36.279   0.671  1.00  0.00    -0.079 C 
HETATM    8  C1  UNL     1     -18.459  37.617   0.218  1.00  0.00     0.044 C 
BRANCH   7   9
HETATM    9  C19 UNL     1     -18.434  35.935   2.085  1.00  0.00    -0.029 C 
HETATM   10  C20 UNL     1     -17.234  35.391   2.852  1.00  0.00     0.019 C 
HETATM   11  C21 UNL     1     -18.848  37.242   2.724  1.00  0.00     0.019 C 
HETATM   12  C22 UNL     1     -19.542  34.939   2.144  1.00  0.00     0.019 C 
ENDBRANCH   7   9
ENDBRANCH   4   6
ENDBRANCH   3   4
ENDBRANCH   1   2
BRANCH   1  13
HETATM   13  N1  UNL     1     -19.924  37.000  -4.761  1.00  0.00    -0.403 N 
ATOM     14  H1  UNL     1     -19.447  36.924  -5.660  1.00  0.00     0.154 HD
BRANCH  13  15
HETATM   15  C9  UNL     1     -20.407  38.247  -4.258  1.00  0.00     0.027 C 
HETATM   16  C10 UNL     1     -19.267  39.273  -4.192  1.00  0.00     0.035 C 
HETATM   17  C11 UNL     1     -19.795  40.623  -3.830  1.00  0.00    -0.012 C 
HETATM   18  C12 UNL     1     -20.791  41.105  -4.851  1.00  0.00     0.009 C 
HETATM   19  C16 UNL     1     -20.485  40.530  -2.494  1.00  0.00     0.009 C 
HETATM   20  C13 UNL     1     -21.934  40.126  -4.902  1.00  0.00    -0.012 C 
HETATM   21  C14 UNL     1     -22.632  39.975  -3.583  1.00  0.00     0.009 C 
HETATM   22  C18 UNL     1     -21.384  38.782  -5.297  1.00  0.00     0.035 C 
HETATM   23  C15 UNL     1     -21.624  39.525  -2.557  1.00  0.00    -0.012 C 
HETATM   24  C17 UNL     1     -21.013  38.185  -2.897  1.00  0.00     0.035 C 
ENDBRANCH  13  15
ENDBRANCH   1  13
TORSDOF 6
ENDMDL
MODEL 2
REMARK VINA RESULT: -8.842543867      0.151      1.531
REMARK  6 active torsions:
REMARK  status: ('A' for Active; 'I' for Inactive)
REMARK    1  A    between atoms: C2_2  and  C19_21 
REMARK    2  A    between atoms: C3_3  and  C4_4 
REMARK    3  A    between atoms: C4_4  and  C6_6 
REMARK    4  A    between atoms: C7_7  and  C8_8 
REMARK    5  A    between atoms: C8_8  and  N1_9 
REMARK    6  A    between atoms: N1_9  and  C9_11 
ROOT
HETATM    1  C8  UNL     1     -20.239  36.039  -3.861  1.00  0.00     0.209 C 
ENDROOT
BRANCH   1   2
HETATM    2  C7  UNL     1     -19.073  35.841  -2.999  1.00  0.00    -0.087 C 
HETATM    3  C6  UNL     1     -18.109  35.700  -2.292  1.00  0.00    -0.097 C 
BRANCH   3   4
HETATM    4  C4  UNL     1     -16.910  35.553  -1.407  1.00  0.00     0.083 C 
HETATM    5  C5  UNL     1     -16.029  34.489  -1.923  1.00  0.00     0.027 C 
BRANCH   4   6
HETATM    6  C3  UNL     1     -17.412  35.503  -0.053  1.00  0.00    -0.007 C 
HETATM    7  C2  UNL     1     -18.049  36.329   0.717  1.00  0.00    -0.079 C 
HETATM    8  C1  UNL     1     -18.443  37.688   0.295  1.00  0.00     0.044 C 
BRANCH   7   9
HETATM    9  C19 UNL     1     -18.452  35.970   2.128  1.00  0.00    -0.029 C 
HETATM   10  C20 UNL     1     -17.249  35.423   2.888  1.00  0.00     0.019 C 
HETATM   11  C21 UNL     1     -18.870  37.269   2.780  1.00  0.00     0.019 C 
HETATM   12  C22 UNL     1     -19.557  34.969   2.181  1.00  0.00     0.019 C 
ENDBRANCH   7   9
ENDBRANCH   4   6
ENDBRANCH   3   4
ENDBRANCH   1   2
BRANCH   1  13
HETATM   13  N1  UNL     1     -19.959  37.130  -4.742  1.00  0.00    -0.403 N 
ATOM     14  H1  UNL     1     -19.369  37.025  -5.567  1.00  0.00     0.154 HD
BRANCH  13  15
HETATM   15  C9  UNL     1     -20.560  38.375  -4.386  1.00  0.00     0.027 C 
HETATM   16  C10 UNL     1     -21.169  38.291  -2.979  1.00  0.00     0.035 C 
HETATM   17  C11 UNL     1     -21.648  39.634  -2.531  1.00  0.00    -0.012 C 
HETATM   18  C12 UNL     1     -20.515  40.624  -2.485  1.00  0.00     0.009 C 
HETATM   19  C16 UNL     1     -22.678  40.130  -3.512  1.00  0.00     0.009 C 
HETATM   20  C13 UNL     1     -19.929  40.744  -3.868  1.00  0.00    -0.012 C 
HETATM   21  C14 UNL     1     -20.928  41.205  -4.886  1.00  0.00     0.009 C 
HETATM   22  C18 UNL     1     -19.427  39.388  -4.285  1.00  0.00     0.035 C 
HETATM   23  C15 UNL     1     -22.077  40.229  -4.905  1.00  0.00    -0.012 C 
HETATM   24  C17 UNL     1     -21.645  38.836  -5.300  1.00  0.00     0.035 C 
ENDBRANCH  13  15
ENDBRANCH   1  13
TORSDOF 6
ENDMDL
MODEL 3
REMARK VINA RESULT: -8.839731396      2.022      4.515
REMARK  6 active torsions:
REMARK  status: ('A' for Active; 'I' for Inactive)
REMARK    1  A    between atoms: C2_2  and  C19_21 
REMARK    2  A    between atoms: C3_3  and  C4_4 
REMARK    3  A    between atoms: C4_4  and  C6_6 
REMARK    4  A    between atoms: C7_7  and  C8_8 
REMARK    5  A    between atoms: C8_8  and  N1_9 
REMARK    6  A    between atoms: N1_9  and  C9_11 
ROOT
HETATM    1  C8  UNL     1     -19.317  37.606   0.177  1.00  0.00     0.209 C 
ENDROOT
BRANCH   1   2
HETATM    2  C7  UNL     1     -18.499  36.565  -0.448  1.00  0.00    -0.087 C 
HETATM    3  C6  UNL     1     -17.829  35.720  -0.982  1.00  0.00    -0.097 C 
BRANCH   3   4
HETATM    4  C4  UNL     1     -16.991  34.686  -1.669  1.00  0.00     0.083 C 
HETATM    5  C5  UNL     1     -15.909  34.237  -0.775  1.00  0.00     0.027 C 
BRANCH   4   6
HETATM    6  C3  UNL     1     -16.694  35.215  -2.980  1.00  0.00    -0.007 C 
HETATM    7  C2  UNL     1     -17.356  35.342  -4.087  1.00  0.00    -0.079 C 
HETATM    8  C1  UNL     1     -18.757  34.902  -4.247  1.00  0.00     0.044 C 
BRANCH   7   9
HETATM    9  C19 UNL     1     -16.750  35.961  -5.325  1.00  0.00    -0.029 C 
HETATM   10  C20 UNL     1     -17.781  35.989  -6.448  1.00  0.00     0.019 C 
HETATM   11  C21 UNL     1     -16.422  37.390  -4.952  1.00  0.00     0.019 C 
HETATM   12  C22 UNL     1     -15.533  35.243  -5.799  1.00  0.00     0.019 C 
ENDBRANCH   7   9
ENDBRANCH   4   6
ENDBRANCH   3   4
ENDBRANCH   1   2
BRANCH   1  13
HETATM   13  N1  UNL     1     -20.554  37.685  -0.534  1.00  0.00    -0.403 N 
ATOM     14  H1  UNL     1     -21.417  37.278  -0.173  1.00  0.00     0.154 HD
BRANCH  13  15
HETATM   15  C9  UNL     1     -20.499  38.371  -1.786  1.00  0.00     0.027 C 
HETATM   16  C10 UNL     1     -20.930  37.436  -2.925  1.00  0.00     0.035 C 
HETATM   17  C11 UNL     1     -21.040  38.190  -4.210  1.00  0.00    -0.012 C 
HETATM   18  C12 UNL     1     -22.061  39.291  -4.106  1.00  0.00     0.009 C 
HETATM   19  C16 UNL     1     -19.701  38.807  -4.524  1.00  0.00     0.009 C 
HETATM   20  C13 UNL     1     -21.634  40.237  -3.013  1.00  0.00    -0.012 C 
HETATM   21  C14 UNL     1     -20.290  40.851  -3.268  1.00  0.00     0.009 C 
HETATM   22  C18 UNL     1     -21.559  39.463  -1.725  1.00  0.00     0.035 C 
HETATM   23  C15 UNL     1     -19.276  39.744  -3.405  1.00  0.00    -0.012 C 
HETATM   24  C17 UNL     1     -19.158  38.910  -2.151  1.00  0.00     0.035 C 
ENDBRANCH  13  15
ENDBRANCH   1  13
TORSDOF 6
ENDMDL
MODEL 4
REMARK VINA RESULT: -8.762240350      2.028      4.378
REMARK  6 active torsions:
REMARK  status: ('A' for Active; 'I' for Inactive)
REMARK    1  A    between atoms: C2_2  and  C19_21 
REMARK    2  A    between atoms: C3_3  and  C4_4 
REMARK    3  A    between atoms: C4_4  and  C6_6 
REMARK    4  A    between atoms: C7_7  and  C8_8 
REMARK    5  A    between atoms: C8_8  and  N1_9 
REMARK    6  A    between atoms: N1_9  and  C9_11 
ROOT
HETATM    1  C8  UNL     1     -19.319  37.627   0.096  1.00  0.00     0.209 C 
ENDROOT
BRANCH   1   2
HETATM    2  C7  UNL     1     -18.495  36.581  -0.513  1.00  0.00    -0.087 C 
HETATM    3  C6  UNL     1     -17.823  35.730  -1.035  1.00  0.00    -0.097 C 
BRANCH   3   4
HETATM    4  C4  UNL     1     -16.986  34.686  -1.708  1.00  0.00     0.083 C 
HETATM    5  C5  UNL     1     -15.901  34.251  -0.810  1.00  0.00     0.027 C 
BRANCH   4   6
HETATM    6  C3  UNL     1     -16.692  35.197  -3.028  1.00  0.00    -0.007 C 
HETATM    7  C2  UNL     1     -17.364  35.331  -4.127  1.00  0.00    -0.079 C 
HETATM    8  C1  UNL     1     -18.778  34.926  -4.266  1.00  0.00     0.044 C 
BRANCH   7   9
HETATM    9  C19 UNL     1     -16.758  35.924  -5.378  1.00  0.00    -0.029 C 
HETATM   10  C20 UNL     1     -17.801  35.968  -6.489  1.00  0.00     0.019 C 
HETATM   11  C21 UNL     1     -16.389  37.347  -5.022  1.00  0.00     0.019 C 
HETATM   12  C22 UNL     1     -15.565  35.170  -5.861  1.00  0.00     0.019 C 
ENDBRANCH   7   9
ENDBRANCH   4   6
ENDBRANCH   3   4
ENDBRANCH   1   2
BRANCH   1  13
HETATM   13  N1  UNL     1     -20.579  37.647  -0.578  1.00  0.00    -0.403 N 
ATOM     14  H1  UNL     1     -21.387  37.124  -0.240  1.00  0.00     0.154 HD
BRANCH  13  15
HETATM   15  C9  UNL     1     -20.629  38.449  -1.759  1.00  0.00     0.027 C 
HETATM   16  C10 UNL     1     -19.229  38.974  -2.106  1.00  0.00     0.035 C 
HETATM   17  C11 UNL     1     -19.241  39.670  -3.429  1.00  0.00    -0.012 C 
HETATM   18  C12 UNL     1     -19.669  38.734  -4.528  1.00  0.00     0.009 C 
HETATM   19  C16 UNL     1     -20.221  40.813  -3.364  1.00  0.00     0.009 C 
HETATM   20  C13 UNL     1     -21.057  38.237  -4.219  1.00  0.00    -0.012 C 
HETATM   21  C14 UNL     1     -22.062  39.344  -4.112  1.00  0.00     0.009 C 
HETATM   22  C18 UNL     1     -21.014  37.515  -2.899  1.00  0.00     0.035 C 
HETATM   23  C15 UNL     1     -21.613  40.297  -3.034  1.00  0.00    -0.012 C 
HETATM   24  C17 UNL     1     -21.528  39.636  -1.678  1.00  0.00     0.035 C 
ENDBRANCH  13  15
ENDBRANCH   1  13
TORSDOF 6
ENDMDL
MODEL 5
REMARK VINA RESULT: -8.716201222      0.207      1.549
REMARK  6 active torsions:
REMARK  status: ('A' for Active; 'I' for Inactive)
REMARK    1  A    between atoms: C2_2  and  C19_21 
REMARK    2  A    between atoms: C3_3  and  C4_4 
REMARK    3  A    between atoms: C4_4  and  C6_6 
REMARK    4  A    between atoms: C7_7  and  C8_8 
REMARK    5  A    between atoms: C8_8  and  N1_9 
REMARK    6  A    between atoms: N1_9  and  C9_11 
ROOT
HETATM    1  C8  UNL     1     -20.371  36.107  -3.836  1.00  0.00     0.209 C 
ENDROOT
BRANCH   1   2
HETATM    2  C7  UNL     1     -19.190  35.896  -2.998  1.00  0.00    -0.087 C 
HETATM    3  C6  UNL     1     -18.211  35.744  -2.314  1.00  0.00    -0.097 C 
BRANCH   3   4
HETATM    4  C4  UNL     1     -16.990  35.584  -1.461  1.00  0.00     0.083 C 
HETATM    5  C5  UNL     1     -16.139  34.505  -1.994  1.00  0.00     0.027 C 
BRANCH   4   6
HETATM    6  C3  UNL     1     -17.456  35.549  -0.093  1.00  0.00    -0.007 C 
HETATM    7  C2  UNL     1     -18.088  36.377   0.679  1.00  0.00    -0.079 C 
HETATM    8  C1  UNL     1     -18.520  37.721   0.244  1.00  0.00     0.044 C 
BRANCH   7   9
HETATM    9  C19 UNL     1     -18.448  36.036   2.106  1.00  0.00    -0.029 C 
HETATM   10  C20 UNL     1     -17.207  35.562   2.854  1.00  0.00     0.019 C 
HETATM   11  C21 UNL     1     -18.910  37.331   2.736  1.00  0.00     0.019 C 
HETATM   12  C22 UNL     1     -19.506  34.989   2.206  1.00  0.00     0.019 C 
ENDBRANCH   7   9
ENDBRANCH   4   6
ENDBRANCH   3   4
ENDBRANCH   1   2
BRANCH   1  13
HETATM   13  N1  UNL     1     -20.058  37.116  -4.798  1.00  0.00    -0.403 N 
ATOM     14  H1  UNL     1     -19.583  36.903  -5.675  1.00  0.00     0.154 HD
BRANCH  13  15
HETATM   15  C9  UNL     1     -20.455  38.442  -4.447  1.00  0.00     0.027 C 
HETATM   16  C10 UNL     1     -21.493  38.970  -5.449  1.00  0.00     0.035 C 
HETATM   17  C11 UNL     1     -22.039  40.285  -4.995  1.00  0.00    -0.012 C 
HETATM   18  C12 UNL     1     -22.715  40.157  -3.656  1.00  0.00     0.009 C 
HETATM   19  C16 UNL     1     -20.900  41.263  -4.866  1.00  0.00     0.009 C 
HETATM   20  C13 UNL     1     -21.699  39.672  -2.654  1.00  0.00    -0.012 C 
HETATM   21  C14 UNL     1     -20.529  40.599  -2.515  1.00  0.00     0.009 C 
HETATM   22  C18 UNL     1     -21.186  38.335  -3.115  1.00  0.00     0.035 C 
HETATM   23  C15 UNL     1     -19.876  40.751  -3.865  1.00  0.00    -0.012 C 
HETATM   24  C17 UNL     1     -19.349  39.441  -4.403  1.00  0.00     0.035 C 
ENDBRANCH  13  15
ENDBRANCH   1  13
TORSDOF 6
ENDMDL
