MODEL 1
REMARK VINA RESULT: -8.677775619      0.000      0.000
REMARK  13 active torsions:
REMARK  status: ('A' for Active; 'I' for Inactive)
REMARK    1  A    between atoms: C2_2  and  C3_3 
REMARK    2  A    between atoms: C3_3  and  S1_4 
REMARK    3  A    between atoms: S1_4  and  C4_5 
REMARK       I    between atoms: N1_15  and  C14_16 
REMARK    4  A    between atoms: C14_16  and  C15_18 
REMARK    5  A    between atoms: C15_18  and  N2_19 
REMARK    6  A    between atoms: C15_18  and  C16_23 
REMARK    7  A    between atoms: C16_23  and  C17_24 
REMARK    8  A    between atoms: C16_23  and  N6_35 
REMARK    9  A    between atoms: C17_24  and  C18_25 
REMARK   10  A    between atoms: C18_25  and  C19_26 
REMARK   11  A    between atoms: C19_26  and  C20_27 
REMARK   12  A    between atoms: C20_27  and  N3_28 
REMARK       I    between atoms: N3_28  and  C21_30 
REMARK   13  A    between atoms: N6_35  and  C22_37 
ROOT
HETATM    1  C15 UNL     1      46.027  47.318  40.450  1.00  0.00     0.297 C 
ENDROOT
BRANCH   1   2
HETATM    2  C14 UNL     1      45.604  48.005  39.207  1.00  0.00     0.257 C 
HETATM    3  N1  UNL     1      44.246  48.329  38.899  1.00  0.00    -0.309 N 
HETATM    4  C4  UNL     1      44.126  49.066  37.648  1.00  0.00     0.082 C 
HETATM    5  C13 UNL     1      43.323  47.816  39.883  1.00  0.00     0.137 C 
HETATM    6  C5  UNL     1      42.912  48.791  36.901  1.00  0.00    -0.016 A 
HETATM    7  C6  UNL     1      42.921  48.611  35.576  1.00  0.00     0.010 A 
HETATM    8  C9  UNL     1      41.487  48.632  37.294  1.00  0.00     0.048 A 
HETATM    9  C7  UNL     1      41.609  48.350  35.068  1.00  0.00    -0.003 A 
HETATM   10  C8  UNL     1      40.752  48.358  36.070  1.00  0.00    -0.017 A 
HETATM   11  C10 UNL     1      41.497  47.546  38.323  1.00  0.00     0.004 A 
HETATM   12  C11 UNL     1      40.744  47.502  39.544  1.00  0.00     0.012 A 
HETATM   13  C12 UNL     1      41.963  48.308  39.591  1.00  0.00     0.009 A 
HETATM   14  O1  UNL     1      46.503  48.318  38.366  1.00  0.00    -0.271 OA
BRANCH   4  15
HETATM   15  S1  UNL     1      44.635  50.764  37.801  1.00  0.00    -0.108 SA
BRANCH  15  16
HETATM   16  C3  UNL     1      43.725  51.845  38.831  1.00  0.00     0.107 C 
BRANCH  16  17
HETATM   17  C2  UNL     1      44.523  52.887  39.513  1.00  0.00    -0.026 C 
HETATM   18  C1  UNL     1      44.070  53.853  40.270  1.00  0.00     0.007 C 
ENDBRANCH  16  17
ENDBRANCH  15  16
ENDBRANCH   4  15
ENDBRANCH   1   2
BRANCH   1  19
HETATM   19  N2  UNL     1      46.908  46.187  40.141  1.00  0.00    -0.064 N 
ATOM     20  H23 UNL     1      46.981  46.027  39.136  1.00  0.00     0.275 HD
ATOM     21  H22 UNL     1      47.886  46.406  40.332  1.00  0.00     0.275 HD
ATOM     22  H21 UNL     1      46.605  45.349  40.637  1.00  0.00     0.275 HD
ENDBRANCH   1  19
BRANCH   1  23
HETATM   23  C16 UNL     1      46.707  48.248  41.418  1.00  0.00     0.116 C 
BRANCH  23  24
HETATM   24  C17 UNL     1      46.689  47.890  42.851  1.00  0.00     0.027 C 
BRANCH  24  25
HETATM   25  C18 UNL     1      45.565  47.103  43.394  1.00  0.00     0.004 C 
BRANCH  25  26
HETATM   26  C19 UNL     1      45.081  47.611  44.739  1.00  0.00     0.020 C 
BRANCH  26  27
HETATM   27  C20 UNL     1      45.608  46.898  45.922  1.00  0.00     0.122 C 
BRANCH  27  28
HETATM   28  N3  UNL     1      44.643  46.289  46.789  1.00  0.00    -0.365 N 
HETATM   29  C21 UNL     1      44.926  45.170  47.610  1.00  0.00     0.181 C 
HETATM   30  N4  UNL     1      44.767  45.156  48.885  1.00  0.00    -0.374 N 
HETATM   31  N5  UNL     1      45.414  43.999  46.979  1.00  0.00    -0.064 NA
ATOM     32  H42 UNL     1      44.415  45.999  49.339  1.00  0.00     0.158 HD
ATOM     33  H41 UNL     1      44.970  44.350  49.477  1.00  0.00     0.158 HD
ATOM     34  H3  UNL     1      43.702  46.683  46.817  1.00  0.00     0.162 HD
ENDBRANCH  27  28
ENDBRANCH  26  27
ENDBRANCH  25  26
ENDBRANCH  24  25
ENDBRANCH  23  24
BRANCH  23  35
HETATM   35  N6  UNL     1      46.286  49.617  41.185  1.00  0.00    -0.410 N 
ATOM     36  H6  UNL     1      46.162  49.988  40.242  1.00  0.00     0.154 HD
BRANCH  35  37
HETATM   37  C22 UNL     1      46.058  50.414  42.334  1.00  0.00     0.077 C 
HETATM   38  C23 UNL     1      44.595  50.768  42.531  1.00  0.00     0.024 C 
HETATM   39  C24 UNL     1      44.668  51.807  43.625  1.00  0.00     0.002 C 
HETATM   40  C25 UNL     1      46.048  52.452  43.469  1.00  0.00     0.002 C 
HETATM   41  C26 UNL     1      46.669  51.796  42.235  1.00  0.00     0.024 C 
ENDBRANCH  35  37
ENDBRANCH  23  35
ENDBRANCH   1  23
TORSDOF 13
ENDMDL
MODEL 2
REMARK VINA RESULT: -8.334841199      2.910      7.345
REMARK  13 active torsions:
REMARK  status: ('A' for Active; 'I' for Inactive)
REMARK    1  A    between atoms: C2_2  and  C3_3 
REMARK    2  A    between atoms: C3_3  and  S1_4 
REMARK    3  A    between atoms: S1_4  and  C4_5 
REMARK       I    between atoms: N1_15  and  C14_16 
REMARK    4  A    between atoms: C14_16  and  C15_18 
REMARK    5  A    between atoms: C15_18  and  N2_19 
REMARK    6  A    between atoms: C15_18  and  C16_23 
REMARK    7  A    between atoms: C16_23  and  C17_24 
REMARK    8  A    between atoms: C16_23  and  N6_35 
REMARK    9  A    between atoms: C17_24  and  C18_25 
REMARK   10  A    between atoms: C18_25  and  C19_26 
REMARK   11  A    between atoms: C19_26  and  C20_27 
REMARK   12  A    between atoms: C20_27  and  N3_28 
REMARK       I    between atoms: N3_28  and  C21_30 
REMARK   13  A    between atoms: N6_35  and  C22_37 
ROOT
HETATM    1  C15 UNL     1      43.757  51.570  38.013  1.00  0.00     0.297 C 
ENDROOT
BRANCH   1   2
HETATM    2  C14 UNL     1      44.882  51.221  38.912  1.00  0.00     0.257 C 
HETATM    3  N1  UNL     1      45.105  51.834  40.184  1.00  0.00    -0.309 N 
HETATM    4  C4  UNL     1      46.239  51.249  40.887  1.00  0.00     0.082 C 
HETATM    5  C13 UNL     1      44.175  52.907  40.446  1.00  0.00     0.137 C 
HETATM    6  C5  UNL     1      46.982  52.183  41.713  1.00  0.00    -0.016 A 
HETATM    7  C6  UNL     1      48.319  52.198  41.738  1.00  0.00     0.010 A 
HETATM    8  C9  UNL     1      46.575  53.263  42.649  1.00  0.00     0.048 A 
HETATM    9  C7  UNL     1      48.821  53.205  42.620  1.00  0.00    -0.003 A 
HETATM   10  C8  UNL     1      47.804  53.844  43.165  1.00  0.00    -0.017 A 
HETATM   11  C10 UNL     1      45.706  54.165  41.829  1.00  0.00     0.004 A 
HETATM   12  C11 UNL     1      44.482  54.793  42.237  1.00  0.00     0.012 A 
HETATM   13  C12 UNL     1      44.358  53.396  41.826  1.00  0.00     0.009 A 
HETATM   14  O1  UNL     1      45.697  50.326  38.525  1.00  0.00    -0.271 OA
BRANCH   4  15
HETATM   15  S1  UNL     1      45.869  49.650  41.575  1.00  0.00    -0.108 SA
BRANCH  15  16
HETATM   16  C3  UNL     1      44.358  49.407  42.422  1.00  0.00     0.107 C 
BRANCH  16  17
HETATM   17  C2  UNL     1      44.404  49.661  43.878  1.00  0.00    -0.026 C 
HETATM   18  C1  UNL     1      45.076  50.601  44.491  1.00  0.00     0.007 C 
ENDBRANCH  16  17
ENDBRANCH  15  16
ENDBRANCH   4  15
ENDBRANCH   1   2
BRANCH   1  19
HETATM   19  N2  UNL     1      44.257  51.989  36.699  1.00  0.00    -0.064 N 
ATOM     20  H23 UNL     1      45.269  52.116  36.702  1.00  0.00     0.275 HD
ATOM     21  H22 UNL     1      44.200  51.235  36.015  1.00  0.00     0.275 HD
ATOM     22  H21 UNL     1      43.771  52.827  36.381  1.00  0.00     0.275 HD
ENDBRANCH   1  19
BRANCH   1  23
HETATM   23  C16 UNL     1      42.778  50.440  37.852  1.00  0.00     0.116 C 
BRANCH  23  24
HETATM   24  C17 UNL     1      42.618  49.497  38.978  1.00  0.00     0.027 C 
BRANCH  24  25
HETATM   25  C18 UNL     1      41.268  49.055  39.376  1.00  0.00     0.004 C 
BRANCH  25  26
HETATM   26  C19 UNL     1      41.103  47.548  39.343  1.00  0.00     0.020 C 
BRANCH  26  27
HETATM   27  C20 UNL     1      42.167  46.801  38.639  1.00  0.00     0.122 C 
BRANCH  27  28
HETATM   28  N3  UNL     1      42.926  45.871  39.421  1.00  0.00    -0.365 N 
HETATM   29  C21 UNL     1      44.227  46.141  39.913  1.00  0.00     0.181 C 
HETATM   30  N4  UNL     1      44.550  46.088  41.156  1.00  0.00    -0.374 N 
HETATM   31  N5  UNL     1      45.225  46.493  38.972  1.00  0.00    -0.064 NA
ATOM     32  H42 UNL     1      43.831  45.835  41.833  1.00  0.00     0.158 HD
ATOM     33  H41 UNL     1      45.487  46.282  41.510  1.00  0.00     0.158 HD
ATOM     34  H3  UNL     1      42.508  44.965  39.635  1.00  0.00     0.162 HD
ENDBRANCH  27  28
ENDBRANCH  26  27
ENDBRANCH  25  26
ENDBRANCH  24  25
ENDBRANCH  23  24
BRANCH  23  35
HETATM   35  N6  UNL     1      42.992  49.760  36.587  1.00  0.00    -0.410 N 
ATOM     36  H6  UNL     1      43.865  49.274  36.381  1.00  0.00     0.154 HD
BRANCH  35  37
HETATM   37  C22 UNL     1      41.926  49.806  35.655  1.00  0.00     0.077 C 
HETATM   38  C23 UNL     1      40.838  50.790  36.044  1.00  0.00     0.024 C 
HETATM   39  C24 UNL     1      39.741  50.449  35.062  1.00  0.00     0.002 C 
HETATM   40  C25 UNL     1      39.956  48.972  34.724  1.00  0.00     0.002 C 
HETATM   41  C26 UNL     1      41.129  48.518  35.594  1.00  0.00     0.024 C 
ENDBRANCH  35  37
ENDBRANCH  23  35
ENDBRANCH   1  23
TORSDOF 13
ENDMDL
MODEL 3
REMARK VINA RESULT: -8.291879100      1.977      5.333
REMARK  13 active torsions:
REMARK  status: ('A' for Active; 'I' for Inactive)
REMARK    1  A    between atoms: C2_2  and  C3_3 
REMARK    2  A    between atoms: C3_3  and  S1_4 
REMARK    3  A    between atoms: S1_4  and  C4_5 
REMARK       I    between atoms: N1_15  and  C14_16 
REMARK    4  A    between atoms: C14_16  and  C15_18 
REMARK    5  A    between atoms: C15_18  and  N2_19 
REMARK    6  A    between atoms: C15_18  and  C16_23 
REMARK    7  A    between atoms: C16_23  and  C17_24 
REMARK    8  A    between atoms: C16_23  and  N6_35 
REMARK    9  A    between atoms: C17_24  and  C18_25 
REMARK   10  A    between atoms: C18_25  and  C19_26 
REMARK   11  A    between atoms: C19_26  and  C20_27 
REMARK   12  A    between atoms: C20_27  and  N3_28 
REMARK       I    between atoms: N3_28  and  C21_30 
REMARK   13  A    between atoms: N6_35  and  C22_37 
ROOT
HETATM    1  C15 UNL     1      46.836  47.977  40.840  1.00  0.00     0.297 C 
ENDROOT
BRANCH   1   2
HETATM    2  C14 UNL     1      46.953  49.246  41.597  1.00  0.00     0.257 C 
HETATM    3  N1  UNL     1      46.334  50.471  41.197  1.00  0.00    -0.309 N 
HETATM    4  C4  UNL     1      46.554  51.539  42.163  1.00  0.00     0.082 C 
HETATM    5  C13 UNL     1      45.675  50.361  39.918  1.00  0.00     0.137 C 
HETATM    6  C5  UNL     1      46.663  52.864  41.581  1.00  0.00    -0.016 A 
HETATM    7  C6  UNL     1      47.592  53.739  41.980  1.00  0.00     0.010 A 
HETATM    8  C9  UNL     1      45.910  53.575  40.514  1.00  0.00     0.048 A 
HETATM    9  C7  UNL     1      47.505  54.972  41.258  1.00  0.00    -0.003 A 
HETATM   10  C8  UNL     1      46.518  54.890  40.389  1.00  0.00    -0.017 A 
HETATM   11  C10 UNL     1      46.010  52.678  39.320  1.00  0.00     0.004 A 
HETATM   12  C11 UNL     1      44.969  52.364  38.384  1.00  0.00     0.012 A 
HETATM   13  C12 UNL     1      44.935  51.605  39.633  1.00  0.00     0.009 A 
HETATM   14  O1  UNL     1      47.647  49.241  42.661  1.00  0.00    -0.271 OA
BRANCH   4  15
HETATM   15  S1  UNL     1      45.555  51.359  43.624  1.00  0.00    -0.108 SA
BRANCH  15  16
HETATM   16  C3  UNL     1      45.581  52.611  44.845  1.00  0.00     0.107 C 
BRANCH  16  17
HETATM   17  C2  UNL     1      44.448  53.560  44.798  1.00  0.00    -0.026 C 
HETATM   18  C1  UNL     1      44.094  54.313  43.788  1.00  0.00     0.007 C 
ENDBRANCH  16  17
ENDBRANCH  15  16
ENDBRANCH   4  15
ENDBRANCH   1   2
BRANCH   1  19
HETATM   19  N2  UNL     1      47.841  47.011  41.294  1.00  0.00    -0.064 N 
ATOM     20  H23 UNL     1      47.693  46.089  40.884  1.00  0.00     0.275 HD
ATOM     21  H22 UNL     1      48.761  47.207  40.899  1.00  0.00     0.275 HD
ATOM     22  H21 UNL     1      47.867  46.972  42.313  1.00  0.00     0.275 HD
ENDBRANCH   1  19
BRANCH   1  23
HETATM   23  C16 UNL     1      45.462  47.373  40.939  1.00  0.00     0.116 C 
BRANCH  23  24
HETATM   24  C17 UNL     1      45.024  46.863  42.255  1.00  0.00     0.027 C 
BRANCH  24  25
HETATM   25  C18 UNL     1      44.268  47.744  43.166  1.00  0.00     0.004 C 
BRANCH  25  26
HETATM   26  C19 UNL     1      44.911  47.875  44.533  1.00  0.00     0.020 C 
BRANCH  26  27
HETATM   27  C20 UNL     1      45.253  46.604  45.207  1.00  0.00     0.122 C 
BRANCH  27  28
HETATM   28  N3  UNL     1      44.786  46.443  46.552  1.00  0.00    -0.365 N 
HETATM   29  C21 UNL     1      45.322  45.495  47.458  1.00  0.00     0.181 C 
HETATM   30  N4  UNL     1      45.813  45.798  48.607  1.00  0.00    -0.374 N 
HETATM   31  N5  UNL     1      45.315  44.134  47.066  1.00  0.00    -0.064 NA
ATOM     32  H42 UNL     1      45.817  46.778  48.890  1.00  0.00     0.158 HD
ATOM     33  H41 UNL     1      46.199  45.116  49.260  1.00  0.00     0.158 HD
ATOM     34  H3  UNL     1      44.026  47.042  46.875  1.00  0.00     0.162 HD
ENDBRANCH  27  28
ENDBRANCH  26  27
ENDBRANCH  25  26
ENDBRANCH  24  25
ENDBRANCH  23  24
BRANCH  23  35
HETATM   35  N6  UNL     1      45.254  46.407  39.876  1.00  0.00    -0.410 N 
ATOM     36  H6  UNL     1      45.683  45.482  39.900  1.00  0.00     0.154 HD
BRANCH  35  37
HETATM   37  C22 UNL     1      44.425  46.816  38.803  1.00  0.00     0.077 C 
HETATM   38  C23 UNL     1      45.148  47.684  37.790  1.00  0.00     0.024 C 
HETATM   39  C24 UNL     1      44.008  48.186  36.934  1.00  0.00     0.002 C 
HETATM   40  C25 UNL     1      42.788  48.185  37.859  1.00  0.00     0.002 C 
HETATM   41  C26 UNL     1      43.313  47.752  39.229  1.00  0.00     0.024 C 
ENDBRANCH  35  37
ENDBRANCH  23  35
ENDBRANCH   1  23
TORSDOF 13
ENDMDL
MODEL 4
REMARK VINA RESULT: -8.257101032      1.948      3.290
REMARK  13 active torsions:
REMARK  status: ('A' for Active; 'I' for Inactive)
REMARK    1  A    between atoms: C2_2  and  C3_3 
REMARK    2  A    between atoms: C3_3  and  S1_4 
REMARK    3  A    between atoms: S1_4  and  C4_5 
REMARK       I    between atoms: N1_15  and  C14_16 
REMARK    4  A    between atoms: C14_16  and  C15_18 
REMARK    5  A    between atoms: C15_18  and  N2_19 
REMARK    6  A    between atoms: C15_18  and  C16_23 
REMARK    7  A    between atoms: C16_23  and  C17_24 
REMARK    8  A    between atoms: C16_23  and  N6_35 
REMARK    9  A    between atoms: C17_24  and  C18_25 
REMARK   10  A    between atoms: C18_25  and  C19_26 
REMARK   11  A    between atoms: C19_26  and  C20_27 
REMARK   12  A    between atoms: C20_27  and  N3_28 
REMARK       I    between atoms: N3_28  and  C21_30 
REMARK   13  A    between atoms: N6_35  and  C22_37 
ROOT
HETATM    1  C15 UNL     1      43.666  49.031  42.499  1.00  0.00     0.297 C 
ENDROOT
BRANCH   1   2
HETATM    2  C14 UNL     1      43.551  48.205  41.275  1.00  0.00     0.257 C 
HETATM    3  N1  UNL     1      43.679  48.724  39.949  1.00  0.00    -0.309 N 
HETATM    4  C4  UNL     1      43.593  47.678  38.938  1.00  0.00     0.082 C 
HETATM    5  C13 UNL     1      43.824  50.160  39.933  1.00  0.00     0.137 C 
HETATM    6  C5  UNL     1      42.976  48.095  37.692  1.00  0.00    -0.016 A 
HETATM    7  C6  UNL     1      42.087  47.329  37.051  1.00  0.00     0.010 A 
HETATM    8  C9  UNL     1      43.097  49.316  36.852  1.00  0.00     0.048 A 
HETATM    9  C7  UNL     1      41.616  47.953  35.853  1.00  0.00    -0.003 A 
HETATM   10  C8  UNL     1      42.202  49.126  35.722  1.00  0.00    -0.017 A 
HETATM   11  C10 UNL     1      42.771  50.445  37.778  1.00  0.00     0.004 A 
HETATM   12  C11 UNL     1      43.433  51.715  37.862  1.00  0.00     0.012 A 
HETATM   13  C12 UNL     1      44.100  50.616  38.558  1.00  0.00     0.009 A 
HETATM   14  O1  UNL     1      43.320  46.963  41.415  1.00  0.00    -0.271 OA
BRANCH   4  15
HETATM   15  S1  UNL     1      45.075  46.698  38.838  1.00  0.00    -0.108 SA
BRANCH  15  16
HETATM   16  C3  UNL     1      46.565  47.320  39.510  1.00  0.00     0.107 C 
BRANCH  16  17
HETATM   17  C2  UNL     1      47.008  46.675  40.765  1.00  0.00    -0.026 C 
HETATM   18  C1  UNL     1      47.922  47.112  41.593  1.00  0.00     0.007 C 
ENDBRANCH  16  17
ENDBRANCH  15  16
ENDBRANCH   4  15
ENDBRANCH   1   2
BRANCH   1  19
HETATM   19  N2  UNL     1      42.703  48.590  43.513  1.00  0.00    -0.064 N 
ATOM     20  H23 UNL     1      41.743  48.800  43.240  1.00  0.00     0.275 HD
ATOM     21  H22 UNL     1      42.632  47.573  43.550  1.00  0.00     0.275 HD
ATOM     22  H21 UNL     1      42.934  48.986  44.424  1.00  0.00     0.275 HD
ENDBRANCH   1  19
BRANCH   1  23
HETATM   23  C16 UNL     1      45.057  49.017  43.073  1.00  0.00     0.116 C 
BRANCH  23  24
HETATM   24  C17 UNL     1      45.252  48.394  44.398  1.00  0.00     0.027 C 
BRANCH  24  25
HETATM   25  C18 UNL     1      45.652  46.976  44.488  1.00  0.00     0.004 C 
BRANCH  25  26
HETATM   26  C19 UNL     1      45.208  46.316  45.780  1.00  0.00     0.020 C 
BRANCH  26  27
HETATM   27  C20 UNL     1      46.129  46.465  46.927  1.00  0.00     0.122 C 
BRANCH  27  28
HETATM   28  N3  UNL     1      46.601  45.255  47.534  1.00  0.00    -0.365 N 
HETATM   29  C21 UNL     1      45.782  44.121  47.757  1.00  0.00     0.181 C 
HETATM   30  N4  UNL     1      46.043  42.947  47.303  1.00  0.00    -0.374 N 
HETATM   31  N5  UNL     1      44.607  44.301  48.526  1.00  0.00    -0.064 NA
ATOM     32  H42 UNL     1      46.889  42.818  46.750  1.00  0.00     0.158 HD
ATOM     33  H41 UNL     1      45.453  42.130  47.464  1.00  0.00     0.158 HD
ATOM     34  H3  UNL     1      47.579  45.209  47.821  1.00  0.00     0.162 HD
ENDBRANCH  27  28
ENDBRANCH  26  27
ENDBRANCH  25  26
ENDBRANCH  24  25
ENDBRANCH  23  24
BRANCH  23  35
HETATM   35  N6  UNL     1      45.654  50.337  42.990  1.00  0.00    -0.410 N 
ATOM     36  H6  UNL     1      46.588  50.481  42.605  1.00  0.00     0.154 HD
BRANCH  35  37
HETATM   37  C22 UNL     1      44.873  51.417  43.470  1.00  0.00     0.077 C 
HETATM   38  C23 UNL     1      44.790  52.573  42.491  1.00  0.00     0.024 C 
HETATM   39  C24 UNL     1      44.154  53.655  43.334  1.00  0.00     0.002 C 
HETATM   40  C25 UNL     1      44.564  53.328  44.772  1.00  0.00     0.002 C 
HETATM   41  C26 UNL     1      45.484  52.110  44.670  1.00  0.00     0.024 C 
ENDBRANCH  35  37
ENDBRANCH  23  35
ENDBRANCH   1  23
TORSDOF 13
ENDMDL
MODEL 5
REMARK VINA RESULT: -8.210425874      8.657     13.662
REMARK  13 active torsions:
REMARK  status: ('A' for Active; 'I' for Inactive)
REMARK    1  A    between atoms: C2_2  and  C3_3 
REMARK    2  A    between atoms: C3_3  and  S1_4 
REMARK    3  A    between atoms: S1_4  and  C4_5 
REMARK       I    between atoms: N1_15  and  C14_16 
REMARK    4  A    between atoms: C14_16  and  C15_18 
REMARK    5  A    between atoms: C15_18  and  N2_19 
REMARK    6  A    between atoms: C15_18  and  C16_23 
REMARK    7  A    between atoms: C16_23  and  C17_24 
REMARK    8  A    between atoms: C16_23  and  N6_35 
REMARK    9  A    between atoms: C17_24  and  C18_25 
REMARK   10  A    between atoms: C18_25  and  C19_26 
REMARK   11  A    between atoms: C19_26  and  C20_27 
REMARK   12  A    between atoms: C20_27  and  N3_28 
REMARK       I    between atoms: N3_28  and  C21_30 
REMARK   13  A    between atoms: N6_35  and  C22_37 
ROOT
HETATM    1  C15 UNL     1      47.658  42.226  51.366  1.00  0.00     0.297 C 
ENDROOT
BRANCH   1   2
HETATM    2  C14 UNL     1      47.061  41.274  50.400  1.00  0.00     0.257 C 
HETATM    3  N1  UNL     1      46.498  40.013  50.769  1.00  0.00    -0.309 N 
HETATM    4  C4  UNL     1      45.917  39.314  49.630  1.00  0.00     0.082 C 
HETATM    5  C13 UNL     1      46.675  39.723  52.172  1.00  0.00     0.137 C 
HETATM    6  C5  UNL     1      46.021  37.868  49.695  1.00  0.00    -0.016 A 
HETATM    7  C6  UNL     1      46.364  37.134  48.631  1.00  0.00     0.010 A 
HETATM    8  C9  UNL     1      45.823  36.878  50.786  1.00  0.00     0.048 A 
HETATM    9  C7  UNL     1      46.405  35.738  48.940  1.00  0.00    -0.003 A 
HETATM   10  C8  UNL     1      46.088  35.571  50.209  1.00  0.00    -0.017 A 
HETATM   11  C10 UNL     1      46.748  37.326  51.875  1.00  0.00     0.004 A 
HETATM   12  C11 UNL     1      46.476  37.359  53.283  1.00  0.00     0.012 A 
HETATM   13  C12 UNL     1      45.947  38.488  52.520  1.00  0.00     0.009 A 
HETATM   14  O1  UNL     1      47.054  41.599  49.171  1.00  0.00    -0.271 OA
BRANCH   4  15
HETATM   15  S1  UNL     1      44.360  40.008  49.122  1.00  0.00    -0.108 SA
BRANCH  15  16
HETATM   16  C3  UNL     1      43.188  40.474  50.334  1.00  0.00     0.107 C 
BRANCH  16  17
HETATM   17  C2  UNL     1      43.280  41.876  50.794  1.00  0.00    -0.026 C 
HETATM   18  C1  UNL     1      43.694  42.905  50.100  1.00  0.00     0.007 C 
ENDBRANCH  16  17
ENDBRANCH  15  16
ENDBRANCH   4  15
ENDBRANCH   1   2
BRANCH   1  19
HETATM   19  N2  UNL     1      49.122  42.149  51.328  1.00  0.00    -0.064 N 
ATOM     20  H23 UNL     1      49.511  42.699  50.563  1.00  0.00     0.275 HD
ATOM     21  H22 UNL     1      49.548  42.650  52.108  1.00  0.00     0.275 HD
ATOM     22  H21 UNL     1      49.430  41.177  51.290  1.00  0.00     0.275 HD
ENDBRANCH   1  19
BRANCH   1  23
HETATM   23  C16 UNL     1      47.214  43.643  51.126  1.00  0.00     0.116 C 
BRANCH  23  24
HETATM   24  C17 UNL     1      48.255  44.665  50.896  1.00  0.00     0.027 C 
BRANCH  24  25
HETATM   25  C18 UNL     1      48.587  45.075  49.518  1.00  0.00     0.004 C 
BRANCH  25  26
HETATM   26  C19 UNL     1      47.676  46.167  48.989  1.00  0.00     0.020 C 
BRANCH  26  27
HETATM   27  C20 UNL     1      47.634  46.311  47.518  1.00  0.00     0.122 C 
BRANCH  27  28
HETATM   28  N3  UNL     1      46.336  46.397  46.916  1.00  0.00    -0.365 N 
HETATM   29  C21 UNL     1      45.270  45.517  47.227  1.00  0.00     0.181 C 
HETATM   30  N4  UNL     1      44.122  45.903  47.654  1.00  0.00    -0.374 N 
HETATM   31  N5  UNL     1      45.494  44.129  47.055  1.00  0.00    -0.064 NA
ATOM     32  H42 UNL     1      43.961  46.902  47.778  1.00  0.00     0.158 HD
ATOM     33  H41 UNL     1      43.354  45.269  47.878  1.00  0.00     0.158 HD
ATOM     34  H3  UNL     1      46.171  47.131  46.228  1.00  0.00     0.162 HD
ENDBRANCH  27  28
ENDBRANCH  26  27
ENDBRANCH  25  26
ENDBRANCH  24  25
ENDBRANCH  23  24
BRANCH  23  35
HETATM   35  N6  UNL     1      46.252  44.050  52.133  1.00  0.00    -0.410 N 
ATOM     36  H6  UNL     1      45.372  44.503  51.884  1.00  0.00     0.154 HD
BRANCH  35  37
HETATM   37  C22 UNL     1      46.597  43.787  53.482  1.00  0.00     0.077 C 
HETATM   38  C23 UNL     1      45.491  43.092  54.254  1.00  0.00     0.024 C 
HETATM   39  C24 UNL     1      45.998  43.176  55.675  1.00  0.00     0.002 C 
HETATM   40  C25 UNL     1      46.880  44.427  55.707  1.00  0.00     0.002 C 
HETATM   41  C26 UNL     1      46.770  45.043  54.311  1.00  0.00     0.024 C 
ENDBRANCH  35  37
ENDBRANCH  23  35
ENDBRANCH   1  23
TORSDOF 13
ENDMDL
