MODEL 1
REMARK VINA RESULT: -9.803698337      0.000      0.000
REMARK  13 active torsions:
REMARK  status: ('A' for Active; 'I' for Inactive)
REMARK    1  A    between atoms: C10_10  and  C11_11 
REMARK    2  A    between atoms: C11_11  and  N1_12 
REMARK    3  A    between atoms: C11_11  and  C18_31 
REMARK       I    between atoms: N1_12  and  C12_14 
REMARK    4  A    between atoms: C12_14  and  C13_16 
REMARK    5  A    between atoms: C13_16  and  N2_17 
REMARK    6  A    between atoms: C13_16  and  C14_21 
REMARK    7  A    between atoms: C14_21  and  C15_22 
REMARK    8  A    between atoms: C15_22  and  C16_23 
REMARK    9  A    between atoms: C16_23  and  N3_24 
REMARK       I    between atoms: N3_24  and  C17_26 
REMARK       I    between atoms: C18_31  and  N6_33 
REMARK   10  A    between atoms: N6_33  and  C19_35 
REMARK   11  A    between atoms: C19_35  and  C20_36 
REMARK   12  A    between atoms: C19_35  and  C21_38 
REMARK   13  A    between atoms: C21_38  and  C22_39 
ROOT
HETATM    1  C11 UNL     1      44.778  51.142  39.320  1.00  0.00     0.185 C 
ENDROOT
BRANCH   1   2
HETATM    2  C10 UNL     1      43.603  50.461  38.705  1.00  0.00    -0.009 C 
HETATM    3  C9  UNL     1      42.720  49.757  39.701  1.00  0.00     0.021 C 
HETATM    4  C6  UNL     1      41.703  48.916  38.955  1.00  0.00    -0.042 C 
HETATM    5  C5  UNL     1      42.307  47.968  37.979  1.00  0.00     0.014 C 
HETATM    6  C7  UNL     1      40.888  48.169  40.005  1.00  0.00     0.015 C 
HETATM    7  C8  UNL     1      40.775  49.900  38.272  1.00  0.00     0.018 C 
HETATM    8  C4  UNL     1      43.060  48.741  36.945  1.00  0.00    -0.012 C 
HETATM    9  C3  UNL     1      42.158  49.725  36.234  1.00  0.00     0.014 C 
HETATM   10  C28 UNL     1      44.157  49.511  37.643  1.00  0.00     0.016 C 
HETATM   11  C2  UNL     1      41.592  50.654  37.265  1.00  0.00    -0.042 C 
HETATM   12  C1  UNL     1      40.685  51.665  36.599  1.00  0.00     0.015 C 
HETATM   13  C29 UNL     1      42.709  51.420  37.956  1.00  0.00     0.021 C 
ENDBRANCH   1   2
BRANCH   1  14
HETATM   14  N1  UNL     1      44.375  52.533  39.580  1.00  0.00    -0.345 N 
HETATM   15  C12 UNL     1      45.283  53.599  39.526  1.00  0.00     0.249 C 
HETATM   16  O1  UNL     1      46.487  53.458  39.257  1.00  0.00    -0.271 OA
ATOM     17  H1  UNL     1      43.400  52.728  39.808  1.00  0.00     0.163 HD
BRANCH  15  18
HETATM   18  C13 UNL     1      44.791  54.991  39.807  1.00  0.00     0.274 C 
BRANCH  18  19
HETATM   19  N2  UNL     1      44.663  55.713  38.550  1.00  0.00    -0.067 N 
ATOM     20  H23 UNL     1      45.473  56.303  38.357  1.00  0.00     0.275 HD
ATOM     21  H22 UNL     1      44.737  55.098  37.740  1.00  0.00     0.275 HD
ATOM     22  H21 UNL     1      43.791  56.242  38.556  1.00  0.00     0.275 HD
ENDBRANCH  18  19
BRANCH  18  23
HETATM   23  C14 UNL     1      43.457  54.939  40.480  1.00  0.00     0.044 C 
BRANCH  23  24
HETATM   24  C15 UNL     1      43.420  55.127  41.943  1.00  0.00     0.022 C 
BRANCH  24  25
HETATM   25  C16 UNL     1      43.394  53.919  42.803  1.00  0.00     0.122 C 
BRANCH  25  26
HETATM   26  N3  UNL     1      42.735  54.249  44.086  1.00  0.00    -0.365 N 
HETATM   27  C17 UNL     1      43.480  54.074  45.274  1.00  0.00     0.181 C 
HETATM   28  N4  UNL     1      43.127  54.702  46.334  1.00  0.00    -0.374 N 
HETATM   29  N5  UNL     1      44.600  53.223  45.303  1.00  0.00    -0.064 NA
ATOM     30  H42 UNL     1      42.315  55.318  46.312  1.00  0.00     0.158 HD
ATOM     31  H41 UNL     1      43.665  54.575  47.191  1.00  0.00     0.158 HD
ATOM     32  H3  UNL     1      41.774  54.591  44.113  1.00  0.00     0.162 HD
ENDBRANCH  25  26
ENDBRANCH  24  25
ENDBRANCH  23  24
ENDBRANCH  18  23
ENDBRANCH  15  18
ENDBRANCH   1  14
BRANCH   1  33
HETATM   33  C18 UNL     1      45.300  50.586  40.559  1.00  0.00     0.241 C 
HETATM   34  O2  UNL     1      46.564  50.613  40.769  1.00  0.00    -0.271 OA
HETATM   35  N6  UNL     1      44.556  49.989  41.602  1.00  0.00    -0.348 N 
ATOM     36  H6  UNL     1      43.544  49.932  41.495  1.00  0.00     0.163 HD
BRANCH  35  37
HETATM   37  C19 UNL     1      45.149  49.451  42.824  1.00  0.00     0.146 C 
BRANCH  37  38
HETATM   38  C20 UNL     1      44.294  49.738  44.005  1.00  0.00     0.256 C 
HETATM   39  O3  UNL     1      44.601  49.228  45.064  1.00  0.00    -0.305 OA
ENDBRANCH  37  38
BRANCH  37  40
HETATM   40  C21 UNL     1      45.322  47.960  42.732  1.00  0.00     0.037 C 
BRANCH  40  41
HETATM   41  C22 UNL     1      44.952  47.437  41.387  1.00  0.00    -0.012 C 
HETATM   42  C23 UNL     1      46.222  47.248  40.553  1.00  0.00     0.005 C 
HETATM   43  C24 UNL     1      46.189  45.993  39.738  1.00  0.00     0.000 C 
HETATM   44  C25 UNL     1      44.883  45.734  39.055  1.00  0.00     0.000 C 
HETATM   45  C26 UNL     1      43.695  45.948  39.936  1.00  0.00     0.000 C 
HETATM   46  C27 UNL     1      44.204  46.148  41.372  1.00  0.00     0.005 C 
ENDBRANCH  40  41
ENDBRANCH  37  40
ENDBRANCH  35  37
ENDBRANCH   1  33
TORSDOF 13
ENDMDL
MODEL 2
REMARK VINA RESULT: -9.771863898      1.784      2.256
REMARK  13 active torsions:
REMARK  status: ('A' for Active; 'I' for Inactive)
REMARK    1  A    between atoms: C10_10  and  C11_11 
REMARK    2  A    between atoms: C11_11  and  N1_12 
REMARK    3  A    between atoms: C11_11  and  C18_31 
REMARK       I    between atoms: N1_12  and  C12_14 
REMARK    4  A    between atoms: C12_14  and  C13_16 
REMARK    5  A    between atoms: C13_16  and  N2_17 
REMARK    6  A    between atoms: C13_16  and  C14_21 
REMARK    7  A    between atoms: C14_21  and  C15_22 
REMARK    8  A    between atoms: C15_22  and  C16_23 
REMARK    9  A    between atoms: C16_23  and  N3_24 
REMARK       I    between atoms: N3_24  and  C17_26 
REMARK       I    between atoms: C18_31  and  N6_33 
REMARK   10  A    between atoms: N6_33  and  C19_35 
REMARK   11  A    between atoms: C19_35  and  C20_36 
REMARK   12  A    between atoms: C19_35  and  C21_38 
REMARK   13  A    between atoms: C21_38  and  C22_39 
ROOT
HETATM    1  C11 UNL     1      44.394  51.426  39.291  1.00  0.00     0.185 C 
ENDROOT
BRANCH   1   2
HETATM    2  C10 UNL     1      43.333  50.588  38.663  1.00  0.00    -0.009 C 
HETATM    3  C9  UNL     1      42.543  49.771  39.649  1.00  0.00     0.021 C 
HETATM    4  C6  UNL     1      41.661  48.797  38.891  1.00  0.00    -0.042 C 
HETATM    5  C5  UNL     1      42.404  47.940  37.926  1.00  0.00     0.014 C 
HETATM    6  C7  UNL     1      40.944  47.944  39.932  1.00  0.00     0.015 C 
HETATM    7  C8  UNL     1      40.615  49.642  38.194  1.00  0.00     0.018 C 
HETATM    8  C4  UNL     1      43.056  48.809  36.900  1.00  0.00    -0.012 C 
HETATM    9  C3  UNL     1      42.036  49.659  36.175  1.00  0.00     0.014 C 
HETATM   10  C28 UNL     1      44.027  49.724  37.610  1.00  0.00     0.016 C 
HETATM   11  C2  UNL     1      41.335  50.501  37.196  1.00  0.00    -0.042 C 
HETATM   12  C1  UNL     1      40.306  51.377  36.516  1.00  0.00     0.015 C 
HETATM   13  C29 UNL     1      42.325  51.414  37.900  1.00  0.00     0.021 C 
ENDBRANCH   1   2
BRANCH   1  14
HETATM   14  N1  UNL     1      43.789  52.736  39.577  1.00  0.00    -0.345 N 
HETATM   15  C12 UNL     1      44.504  53.935  39.453  1.00  0.00     0.249 C 
HETATM   16  O1  UNL     1      45.691  53.989  39.095  1.00  0.00    -0.271 OA
ATOM     17  H1  UNL     1      42.815  52.773  39.877  1.00  0.00     0.163 HD
BRANCH  15  18
HETATM   18  C13 UNL     1      43.811  55.232  39.766  1.00  0.00     0.274 C 
BRANCH  18  19
HETATM   19  N2  UNL     1      42.705  54.974  40.676  1.00  0.00    -0.067 N 
ATOM     20  H23 UNL     1      41.885  55.539  40.460  1.00  0.00     0.275 HD
ATOM     21  H22 UNL     1      42.289  54.054  40.529  1.00  0.00     0.275 HD
ATOM     22  H21 UNL     1      43.025  55.105  41.636  1.00  0.00     0.275 HD
ENDBRANCH  18  19
BRANCH  18  23
HETATM   23  C14 UNL     1      44.767  56.182  40.414  1.00  0.00     0.044 C 
BRANCH  23  24
HETATM   24  C15 UNL     1      44.953  56.078  41.873  1.00  0.00     0.022 C 
BRANCH  24  25
HETATM   25  C16 UNL     1      46.322  55.827  42.388  1.00  0.00     0.122 C 
BRANCH  25  26
HETATM   26  N3  UNL     1      46.879  54.627  41.726  1.00  0.00    -0.365 N 
HETATM   27  C17 UNL     1      47.636  53.731  42.514  1.00  0.00     0.181 C 
HETATM   28  N4  UNL     1      47.791  52.523  42.117  1.00  0.00    -0.374 N 
HETATM   29  N5  UNL     1      48.218  54.151  43.725  1.00  0.00    -0.064 NA
ATOM     30  H42 UNL     1      47.369  52.220  41.239  1.00  0.00     0.158 HD
ATOM     31  H41 UNL     1      48.338  51.877  42.685  1.00  0.00     0.158 HD
ATOM     32  H3  UNL     1      46.723  54.452  40.734  1.00  0.00     0.162 HD
ENDBRANCH  25  26
ENDBRANCH  24  25
ENDBRANCH  23  24
ENDBRANCH  18  23
ENDBRANCH  15  18
ENDBRANCH   1  14
BRANCH   1  33
HETATM   33  C18 UNL     1      44.996  50.931  40.519  1.00  0.00     0.241 C 
HETATM   34  O2  UNL     1      46.259  50.714  40.551  1.00  0.00    -0.271 OA
HETATM   35  N6  UNL     1      44.333  50.642  41.734  1.00  0.00    -0.348 N 
ATOM     36  H6  UNL     1      43.325  50.788  41.775  1.00  0.00     0.163 HD
BRANCH  35  37
HETATM   37  C19 UNL     1      45.003  50.147  42.933  1.00  0.00     0.146 C 
BRANCH  37  38
HETATM   38  C20 UNL     1      44.711  51.012  44.105  1.00  0.00     0.256 C 
HETATM   39  O3  UNL     1      45.486  51.914  44.352  1.00  0.00    -0.305 OA
ENDBRANCH  37  38
BRANCH  37  40
HETATM   40  C21 UNL     1      44.557  48.750  43.268  1.00  0.00     0.037 C 
BRANCH  40  41
HETATM   41  C22 UNL     1      45.316  47.724  42.500  1.00  0.00    -0.012 C 
HETATM   42  C23 UNL     1      44.534  47.360  41.235  1.00  0.00     0.005 C 
HETATM   43  C24 UNL     1      45.422  47.190  40.043  1.00  0.00     0.000 C 
HETATM   44  C25 UNL     1      46.676  46.419  40.311  1.00  0.00     0.000 C 
HETATM   45  C26 UNL     1      47.374  46.831  41.567  1.00  0.00     0.000 C 
HETATM   46  C27 UNL     1      46.695  48.108  42.085  1.00  0.00     0.005 C 
ENDBRANCH  40  41
ENDBRANCH  37  40
ENDBRANCH  35  37
ENDBRANCH   1  33
TORSDOF 13
ENDMDL
MODEL 3
REMARK VINA RESULT: -9.629501936     11.807     15.472
REMARK  13 active torsions:
REMARK  status: ('A' for Active; 'I' for Inactive)
REMARK    1  A    between atoms: C10_10  and  C11_11 
REMARK    2  A    between atoms: C11_11  and  N1_12 
REMARK    3  A    between atoms: C11_11  and  C18_31 
REMARK       I    between atoms: N1_12  and  C12_14 
REMARK    4  A    between atoms: C12_14  and  C13_16 
REMARK    5  A    between atoms: C13_16  and  N2_17 
REMARK    6  A    between atoms: C13_16  and  C14_21 
REMARK    7  A    between atoms: C14_21  and  C15_22 
REMARK    8  A    between atoms: C15_22  and  C16_23 
REMARK    9  A    between atoms: C16_23  and  N3_24 
REMARK       I    between atoms: N3_24  and  C17_26 
REMARK       I    between atoms: C18_31  and  N6_33 
REMARK   10  A    between atoms: N6_33  and  C19_35 
REMARK   11  A    between atoms: C19_35  and  C20_36 
REMARK   12  A    between atoms: C19_35  and  C21_38 
REMARK   13  A    between atoms: C21_38  and  C22_39 
ROOT
HETATM    1  C11 UNL     1      44.429  41.223  50.855  1.00  0.00     0.185 C 
ENDROOT
BRANCH   1   2
HETATM    2  C10 UNL     1      44.648  41.256  52.329  1.00  0.00    -0.009 C 
HETATM    3  C9  UNL     1      44.608  42.641  52.917  1.00  0.00     0.021 C 
HETATM    4  C6  UNL     1      45.067  42.579  54.361  1.00  0.00    -0.042 C 
HETATM    5  C5  UNL     1      46.397  41.935  54.542  1.00  0.00     0.014 C 
HETATM    6  C7  UNL     1      45.082  44.011  54.884  1.00  0.00     0.015 C 
HETATM    7  C8  UNL     1      43.982  41.831  55.108  1.00  0.00     0.018 C 
HETATM    8  C4  UNL     1      46.329  40.523  54.057  1.00  0.00    -0.012 C 
HETATM    9  C3  UNL     1      45.262  39.743  54.793  1.00  0.00     0.014 C 
HETATM   10  C28 UNL     1      45.978  40.549  52.587  1.00  0.00     0.016 C 
HETATM   11  C2  UNL     1      43.952  40.433  54.564  1.00  0.00    -0.042 C 
HETATM   12  C1  UNL     1      42.848  39.685  55.277  1.00  0.00     0.015 C 
HETATM   13  C29 UNL     1      43.615  40.451  53.081  1.00  0.00     0.021 C 
ENDBRANCH   1   2
BRANCH   1  14
HETATM   14  N1  UNL     1      45.653  41.748  50.231  1.00  0.00    -0.345 N 
HETATM   15  C12 UNL     1      45.634  42.457  49.022  1.00  0.00     0.249 C 
HETATM   16  O1  UNL     1      44.594  42.698  48.387  1.00  0.00    -0.271 OA
ATOM     17  H1  UNL     1      46.548  41.590  50.694  1.00  0.00     0.163 HD
BRANCH  15  18
HETATM   18  C13 UNL     1      46.930  42.959  48.451  1.00  0.00     0.274 C 
BRANCH  18  19
HETATM   19  N2  UNL     1      46.891  42.837  47.001  1.00  0.00    -0.067 N 
ATOM     20  H23 UNL     1      47.225  41.929  46.679  1.00  0.00     0.275 HD
ATOM     21  H22 UNL     1      45.937  42.775  46.643  1.00  0.00     0.275 HD
ATOM     22  H21 UNL     1      47.411  43.611  46.587  1.00  0.00     0.275 HD
ENDBRANCH  18  19
BRANCH  18  23
HETATM   23  C14 UNL     1      47.133  44.395  48.816  1.00  0.00     0.044 C 
BRANCH  23  24
HETATM   24  C15 UNL     1      47.810  45.263  47.834  1.00  0.00     0.022 C 
BRANCH  24  25
HETATM   25  C16 UNL     1      47.035  46.376  47.233  1.00  0.00     0.122 C 
BRANCH  25  26
HETATM   26  N3  UNL     1      45.686  46.414  47.838  1.00  0.00    -0.365 N 
HETATM   27  C17 UNL     1      44.619  45.847  47.106  1.00  0.00     0.181 C 
HETATM   28  N4  UNL     1      43.552  45.495  47.723  1.00  0.00    -0.374 N 
HETATM   29  N5  UNL     1      44.716  45.665  45.714  1.00  0.00    -0.064 NA
ATOM     30  H42 UNL     1      43.482  45.627  48.732  1.00  0.00     0.158 HD
ATOM     31  H41 UNL     1      42.782  45.087  47.194  1.00  0.00     0.158 HD
ATOM     32  H3  UNL     1      45.531  46.835  48.754  1.00  0.00     0.162 HD
ENDBRANCH  25  26
ENDBRANCH  24  25
ENDBRANCH  23  24
ENDBRANCH  18  23
ENDBRANCH  15  18
ENDBRANCH   1  14
BRANCH   1  33
HETATM   33  C18 UNL     1      44.135  39.932  50.251  1.00  0.00     0.241 C 
HETATM   34  O2  UNL     1      42.932  39.672  49.890  1.00  0.00    -0.271 OA
HETATM   35  N6  UNL     1      45.048  38.881  50.007  1.00  0.00    -0.348 N 
ATOM     36  H6  UNL     1      46.021  39.021  50.276  1.00  0.00     0.163 HD
BRANCH  35  37
HETATM   37  C19 UNL     1      44.682  37.607  49.394  1.00  0.00     0.146 C 
BRANCH  37  38
HETATM   38  C20 UNL     1      45.650  37.227  48.332  1.00  0.00     0.256 C 
HETATM   39  O3  UNL     1      45.797  37.990  47.399  1.00  0.00    -0.305 OA
ENDBRANCH  37  38
BRANCH  37  40
HETATM   40  C21 UNL     1      44.657  36.501  50.412  1.00  0.00     0.037 C 
BRANCH  40  41
HETATM   41  C22 UNL     1      45.403  36.865  51.649  1.00  0.00    -0.012 C 
HETATM   42  C23 UNL     1      44.495  36.661  52.864  1.00  0.00     0.005 C 
HETATM   43  C24 UNL     1      45.223  36.063  54.028  1.00  0.00     0.000 C 
HETATM   44  C25 UNL     1      46.574  36.653  54.281  1.00  0.00     0.000 C 
HETATM   45  C26 UNL     1      47.393  36.826  53.043  1.00  0.00     0.000 C 
HETATM   46  C27 UNL     1      46.665  36.111  51.894  1.00  0.00     0.005 C 
ENDBRANCH  40  41
ENDBRANCH  37  40
ENDBRANCH  35  37
ENDBRANCH   1  33
TORSDOF 13
ENDMDL
MODEL 4
REMARK VINA RESULT: -9.592371517     11.841     15.517
REMARK  13 active torsions:
REMARK  status: ('A' for Active; 'I' for Inactive)
REMARK    1  A    between atoms: C10_10  and  C11_11 
REMARK    2  A    between atoms: C11_11  and  N1_12 
REMARK    3  A    between atoms: C11_11  and  C18_31 
REMARK       I    between atoms: N1_12  and  C12_14 
REMARK    4  A    between atoms: C12_14  and  C13_16 
REMARK    5  A    between atoms: C13_16  and  N2_17 
REMARK    6  A    between atoms: C13_16  and  C14_21 
REMARK    7  A    between atoms: C14_21  and  C15_22 
REMARK    8  A    between atoms: C15_22  and  C16_23 
REMARK    9  A    between atoms: C16_23  and  N3_24 
REMARK       I    between atoms: N3_24  and  C17_26 
REMARK       I    between atoms: C18_31  and  N6_33 
REMARK   10  A    between atoms: N6_33  and  C19_35 
REMARK   11  A    between atoms: C19_35  and  C20_36 
REMARK   12  A    between atoms: C19_35  and  C21_38 
REMARK   13  A    between atoms: C21_38  and  C22_39 
ROOT
HETATM    1  C11 UNL     1      44.472  41.156  50.850  1.00  0.00     0.185 C 
ENDROOT
BRANCH   1   2
HETATM    2  C10 UNL     1      44.726  41.124  52.318  1.00  0.00    -0.009 C 
HETATM    3  C9  UNL     1      43.742  40.282  53.086  1.00  0.00     0.021 C 
HETATM    4  C6  UNL     1      43.951  40.506  54.571  1.00  0.00    -0.042 C 
HETATM    5  C5  UNL     1      43.895  41.937  54.977  1.00  0.00     0.014 C 
HETATM    6  C7  UNL     1      42.884  39.695  55.297  1.00  0.00     0.015 C 
HETATM    7  C8  UNL     1      45.295  39.888  54.897  1.00  0.00     0.018 C 
HETATM    8  C4  UNL     1      44.981  42.689  54.277  1.00  0.00    -0.012 C 
HETATM    9  C3  UNL     1      46.341  42.104  54.591  1.00  0.00     0.014 C 
HETATM   10  C28 UNL     1      44.743  42.579  52.789  1.00  0.00     0.016 C 
HETATM   11  C2  UNL     1      46.335  40.672  54.151  1.00  0.00    -0.042 C 
HETATM   12  C1  UNL     1      47.680  40.043  54.440  1.00  0.00     0.015 C 
HETATM   13  C29 UNL     1      46.094  40.580  52.653  1.00  0.00     0.021 C 
ENDBRANCH   1   2
BRANCH   1  14
HETATM   14  N1  UNL     1      45.680  41.711  50.220  1.00  0.00    -0.345 N 
HETATM   15  C12 UNL     1      45.636  42.436  49.022  1.00  0.00     0.249 C 
HETATM   16  O1  UNL     1      44.586  42.666  48.401  1.00  0.00    -0.271 OA
ATOM     17  H1  UNL     1      46.582  41.562  50.672  1.00  0.00     0.163 HD
BRANCH  15  18
HETATM   18  C13 UNL     1      46.918  42.967  48.444  1.00  0.00     0.274 C 
BRANCH  18  19
HETATM   19  N2  UNL     1      46.846  42.907  46.991  1.00  0.00    -0.067 N 
ATOM     20  H23 UNL     1      47.755  43.053  46.552  1.00  0.00     0.275 HD
ATOM     21  H22 UNL     1      46.672  41.962  46.650  1.00  0.00     0.275 HD
ATOM     22  H21 UNL     1      46.146  43.572  46.664  1.00  0.00     0.275 HD
ENDBRANCH  18  19
BRANCH  18  23
HETATM   23  C14 UNL     1      47.123  44.387  48.866  1.00  0.00     0.044 C 
BRANCH  23  24
HETATM   24  C15 UNL     1      47.827  45.285  47.931  1.00  0.00     0.022 C 
BRANCH  24  25
HETATM   25  C16 UNL     1      47.036  46.324  47.229  1.00  0.00     0.122 C 
BRANCH  25  26
HETATM   26  N3  UNL     1      45.686  46.399  47.830  1.00  0.00    -0.365 N 
HETATM   27  C17 UNL     1      44.609  45.847  47.101  1.00  0.00     0.181 C 
HETATM   28  N4  UNL     1      43.534  45.525  47.719  1.00  0.00    -0.374 N 
HETATM   29  N5  UNL     1      44.706  45.647  45.712  1.00  0.00    -0.064 NA
ATOM     30  H42 UNL     1      43.464  45.670  48.726  1.00  0.00     0.158 HD
ATOM     31  H41 UNL     1      42.756  45.127  47.193  1.00  0.00     0.158 HD
ATOM     32  H3  UNL     1      45.538  46.834  48.740  1.00  0.00     0.162 HD
ENDBRANCH  25  26
ENDBRANCH  24  25
ENDBRANCH  23  24
ENDBRANCH  18  23
ENDBRANCH  15  18
ENDBRANCH   1  14
BRANCH   1  33
HETATM   33  C18 UNL     1      44.164  39.893  50.197  1.00  0.00     0.241 C 
HETATM   34  O2  UNL     1      42.966  39.673  49.797  1.00  0.00    -0.271 OA
HETATM   35  N6  UNL     1      45.059  38.829  49.942  1.00  0.00    -0.348 N 
ATOM     36  H6  UNL     1      46.028  38.937  50.240  1.00  0.00     0.163 HD
BRANCH  35  37
HETATM   37  C19 UNL     1      44.681  37.584  49.278  1.00  0.00     0.146 C 
BRANCH  37  38
HETATM   38  C20 UNL     1      45.601  37.277  48.152  1.00  0.00     0.256 C 
HETATM   39  O3  UNL     1      45.769  38.134  47.308  1.00  0.00    -0.305 OA
ENDBRANCH  37  38
BRANCH  37  40
HETATM   40  C21 UNL     1      44.720  36.424  50.235  1.00  0.00     0.037 C 
BRANCH  40  41
HETATM   41  C22 UNL     1      45.349  36.794  51.534  1.00  0.00    -0.012 C 
HETATM   42  C23 UNL     1      44.307  36.678  52.649  1.00  0.00     0.005 C 
HETATM   43  C24 UNL     1      44.873  36.086  53.902  1.00  0.00     0.000 C 
HETATM   44  C25 UNL     1      46.219  36.617  54.282  1.00  0.00     0.000 C 
HETATM   45  C26 UNL     1      47.173  36.706  53.136  1.00  0.00     0.000 C 
HETATM   46  C27 UNL     1      46.536  35.988  51.936  1.00  0.00     0.005 C 
ENDBRANCH  40  41
ENDBRANCH  37  40
ENDBRANCH  35  37
ENDBRANCH   1  33
TORSDOF 13
ENDMDL
MODEL 5
REMARK VINA RESULT: -9.547314923      3.221      7.373
REMARK  13 active torsions:
REMARK  status: ('A' for Active; 'I' for Inactive)
REMARK    1  A    between atoms: C10_10  and  C11_11 
REMARK    2  A    between atoms: C11_11  and  N1_12 
REMARK    3  A    between atoms: C11_11  and  C18_31 
REMARK       I    between atoms: N1_12  and  C12_14 
REMARK    4  A    between atoms: C12_14  and  C13_16 
REMARK    5  A    between atoms: C13_16  and  N2_17 
REMARK    6  A    between atoms: C13_16  and  C14_21 
REMARK    7  A    between atoms: C14_21  and  C15_22 
REMARK    8  A    between atoms: C15_22  and  C16_23 
REMARK    9  A    between atoms: C16_23  and  N3_24 
REMARK       I    between atoms: N3_24  and  C17_26 
REMARK       I    between atoms: C18_31  and  N6_33 
REMARK   10  A    between atoms: N6_33  and  C19_35 
REMARK   11  A    between atoms: C19_35  and  C20_36 
REMARK   12  A    between atoms: C19_35  and  C21_38 
REMARK   13  A    between atoms: C21_38  and  C22_39 
ROOT
HETATM    1  C11 UNL     1      44.690  50.177  38.959  1.00  0.00     0.185 C 
ENDROOT
BRANCH   1   2
HETATM    2  C10 UNL     1      44.807  48.898  39.714  1.00  0.00    -0.009 C 
HETATM    3  C9  UNL     1      44.684  49.060  41.205  1.00  0.00     0.021 C 
HETATM    4  C6  UNL     1      45.046  47.749  41.878  1.00  0.00    -0.042 C 
HETATM    5  C5  UNL     1      46.381  47.221  41.483  1.00  0.00     0.014 C 
HETATM    6  C7  UNL     1      44.981  47.989  43.382  1.00  0.00     0.015 C 
HETATM    7  C8  UNL     1      43.938  46.781  41.521  1.00  0.00     0.018 C 
HETATM    8  C4  UNL     1      46.391  46.960  40.012  1.00  0.00    -0.012 C 
HETATM    9  C3  UNL     1      45.301  45.985  39.623  1.00  0.00     0.014 C 
HETATM   10  C28 UNL     1      46.140  48.270  39.302  1.00  0.00     0.016 C 
HETATM   11  C2  UNL     1      43.989  46.578  40.035  1.00  0.00    -0.042 C 
HETATM   12  C1  UNL     1      42.864  45.639  39.660  1.00  0.00     0.015 C 
HETATM   13  C29 UNL     1      43.753  47.894  39.312  1.00  0.00     0.021 C 
ENDBRANCH   1   2
BRANCH   1  14
HETATM   14  N1  UNL     1      43.278  50.314  38.571  1.00  0.00    -0.345 N 
HETATM   15  C12 UNL     1      42.879  51.025  37.430  1.00  0.00     0.249 C 
HETATM   16  O1  UNL     1      43.677  51.590  36.664  1.00  0.00    -0.271 OA
ATOM     17  H1  UNL     1      42.563  49.877  39.152  1.00  0.00     0.163 HD
BRANCH  15  18
HETATM   18  C13 UNL     1      41.415  51.119  37.104  1.00  0.00     0.274 C 
BRANCH  18  19
HETATM   19  N2  UNL     1      41.251  51.846  35.854  1.00  0.00    -0.067 N 
ATOM     20  H23 UNL     1      42.108  51.864  35.300  1.00  0.00     0.275 HD
ATOM     21  H22 UNL     1      40.661  51.345  35.188  1.00  0.00     0.275 HD
ATOM     22  H21 UNL     1      40.900  52.782  36.055  1.00  0.00     0.275 HD
ENDBRANCH  18  19
BRANCH  18  23
HETATM   23  C14 UNL     1      40.832  49.750  36.955  1.00  0.00     0.044 C 
BRANCH  23  24
HETATM   24  C15 UNL     1      40.792  49.167  35.601  1.00  0.00     0.022 C 
BRANCH  24  25
HETATM   25  C16 UNL     1      39.519  48.564  35.136  1.00  0.00     0.122 C 
BRANCH  25  26
HETATM   26  N3  UNL     1      38.909  49.441  34.112  1.00  0.00    -0.365 N 
HETATM   27  C17 UNL     1      37.521  49.316  33.878  1.00  0.00     0.181 C 
HETATM   28  N4  UNL     1      36.889  50.284  33.327  1.00  0.00    -0.374 N 
HETATM   29  N5  UNL     1      36.832  48.145  34.245  1.00  0.00    -0.064 NA
ATOM     30  H42 UNL     1      37.389  51.132  33.062  1.00  0.00     0.158 HD
ATOM     31  H41 UNL     1      35.887  50.193  33.158  1.00  0.00     0.158 HD
ATOM     32  H3  UNL     1      39.472  50.114  33.592  1.00  0.00     0.162 HD
ENDBRANCH  25  26
ENDBRANCH  24  25
ENDBRANCH  23  24
ENDBRANCH  18  23
ENDBRANCH  15  18
ENDBRANCH   1  14
BRANCH   1  33
HETATM   33  C18 UNL     1      45.088  51.397  39.645  1.00  0.00     0.241 C 
HETATM   34  O2  UNL     1      46.215  51.429  40.255  1.00  0.00    -0.271 OA
HETATM   35  N6  UNL     1      44.353  52.601  39.732  1.00  0.00    -0.348 N 
ATOM     36  H6  UNL     1      43.444  52.641  39.272  1.00  0.00     0.163 HD
BRANCH  35  37
HETATM   37  C19 UNL     1      44.816  53.792  40.440  1.00  0.00     0.146 C 
BRANCH  37  38
HETATM   38  C20 UNL     1      45.240  54.850  39.487  1.00  0.00     0.256 C 
HETATM   39  O3  UNL     1      46.431  55.001  39.301  1.00  0.00    -0.305 OA
ENDBRANCH  37  38
BRANCH  37  40
HETATM   40  C21 UNL     1      43.730  54.363  41.309  1.00  0.00     0.037 C 
BRANCH  40  41
HETATM   41  C22 UNL     1      44.062  54.256  42.758  1.00  0.00    -0.012 C 
HETATM   42  C23 UNL     1      43.196  55.240  43.548  1.00  0.00     0.005 C 
HETATM   43  C24 UNL     1      42.701  54.660  44.836  1.00  0.00     0.000 C 
HETATM   44  C25 UNL     1      43.732  53.894  45.604  1.00  0.00     0.000 C 
HETATM   45  C26 UNL     1      44.538  52.962  44.759  1.00  0.00     0.000 C 
HETATM   46  C27 UNL     1      43.887  52.907  43.368  1.00  0.00     0.005 C 
ENDBRANCH  40  41
ENDBRANCH  37  40
ENDBRANCH  35  37
ENDBRANCH   1  33
TORSDOF 13
ENDMDL
