MODEL 1
REMARK VINA RESULT: -8.328249390      0.000      0.000
REMARK  16 active torsions:
REMARK  status: ('A' for Active; 'I' for Inactive)
REMARK    1  A    between atoms: C2_2  and  N1_3 
REMARK    2  A    between atoms: N1_3  and  C3_6 
REMARK    3  A    between atoms: C3_6  and  C4_7 
REMARK    4  A    between atoms: C3_6  and  N4_32 
REMARK    5  A    between atoms: C4_7  and  C5_8 
REMARK    6  A    between atoms: C4_7  and  N2_15 
REMARK    7  A    between atoms: C5_8  and  C6_9 
REMARK       I    between atoms: N2_15  and  C12_17 
REMARK    8  A    between atoms: C12_17  and  C13_19 
REMARK    9  A    between atoms: C13_19  and  N3_20 
REMARK   10  A    between atoms: C13_19  and  C14_24 
REMARK   11  A    between atoms: C14_24  and  O2_25 
REMARK   12  A    between atoms: C22_35  and  C23_36 
REMARK   13  A    between atoms: C23_36  and  C24_37 
REMARK   14  A    between atoms: C24_37  and  C25_38 
REMARK   15  A    between atoms: C25_38  and  N5_39 
REMARK   16  A    between atoms: N5_39  and  C26_41 
ROOT
HETATM    1  C4  UNL     1      45.422  49.460  39.832  1.00  0.00     0.135 C 
ENDROOT
BRANCH   1   2
HETATM    2  C3  UNL     1      44.745  48.366  40.652  1.00  0.00     0.308 C 
BRANCH   2   3
HETATM    3  N1  UNL     1      44.840  47.093  40.005  1.00  0.00    -0.052 N 
ATOM      4  H12 UNL     1      45.724  46.642  40.243  1.00  0.00     0.279 HD
ATOM      5  H11 UNL     1      44.969  47.216  39.001  1.00  0.00     0.279 HD
BRANCH   3   6
HETATM    6  C2  UNL     1      43.741  46.204  40.261  1.00  0.00     0.230 C 
HETATM    7  C1  UNL     1      42.409  46.926  40.246  1.00  0.00     0.034 C 
ENDBRANCH   3   6
ENDBRANCH   2   3
BRANCH   2   8
HETATM    8  N4  UNL     1      45.124  48.278  42.000  1.00  0.00    -0.364 N 
HETATM    9  C20 UNL     1      46.292  47.631  42.396  1.00  0.00     0.060 C 
HETATM   10  C21 UNL     1      46.182  47.270  43.868  1.00  0.00     0.049 C 
HETATM   11  C22 UNL     1      44.757  46.895  44.213  1.00  0.00    -0.008 C 
HETATM   12  C28 UNL     1      43.762  47.969  43.926  1.00  0.00     0.025 C 
HETATM   13  C29 UNL     1      44.368  48.979  42.968  1.00  0.00     0.124 C 
BRANCH  11  14
HETATM   14  C23 UNL     1      44.670  46.391  45.637  1.00  0.00     0.006 C 
BRANCH  14  15
HETATM   15  C24 UNL     1      45.956  46.721  46.391  1.00  0.00     0.020 C 
BRANCH  15  16
HETATM   16  C25 UNL     1      46.048  45.751  47.571  1.00  0.00     0.121 C 
BRANCH  16  17
HETATM   17  N5  UNL     1      45.472  44.475  47.203  1.00  0.00    -0.380 N 
ATOM     18  H5  UNL     1      45.488  44.190  46.224  1.00  0.00     0.160 HD
BRANCH  17  19
HETATM   19  C26 UNL     1      44.885  43.607  48.164  1.00  0.00     0.066 C 
HETATM   20  C27 UNL     1      44.017  44.135  49.247  1.00  0.00     0.088 C 
HETATM   21  N6  UNL     1      45.105  42.335  48.104  1.00  0.00    -0.389 N 
ATOM     22  H62 UNL     1      45.701  41.972  47.360  1.00  0.00     0.157 HD
ATOM     23  H61 UNL     1      44.684  41.712  48.793  1.00  0.00     0.157 HD
ENDBRANCH  17  19
ENDBRANCH  16  17
ENDBRANCH  15  16
ENDBRANCH  14  15
ENDBRANCH  11  14
ENDBRANCH   2   8
ENDBRANCH   1   2
BRANCH   1  24
HETATM   24  C5  UNL     1      44.938  49.284  38.438  1.00  0.00     0.033 C 
BRANCH  24  25
HETATM   25  C6  UNL     1      43.583  49.671  38.043  1.00  0.00    -0.013 C 
HETATM   26  C7  UNL     1      43.636  51.073  37.336  1.00  0.00     0.005 C 
HETATM   27  C8  UNL     1      42.299  51.229  36.653  1.00  0.00     0.000 C 
HETATM   28  C9  UNL     1      41.220  50.454  37.340  1.00  0.00     0.000 C 
HETATM   29  C10 UNL     1      41.425  48.955  37.229  1.00  0.00     0.000 C 
HETATM   30  C11 UNL     1      42.942  48.752  37.042  1.00  0.00     0.005 C 
ENDBRANCH  24  25
ENDBRANCH   1  24
BRANCH   1  31
HETATM   31  N2  UNL     1      45.410  50.720  40.446  1.00  0.00    -0.351 N 
HETATM   32  C12 UNL     1      46.493  51.364  41.089  1.00  0.00     0.251 C 
HETATM   33  O1  UNL     1      47.599  50.782  41.128  1.00  0.00    -0.271 OA
ATOM     34  H2  UNL     1      44.525  51.227  40.428  1.00  0.00     0.163 HD
BRANCH  32  35
HETATM   35  C13 UNL     1      46.331  52.696  41.703  1.00  0.00     0.308 C 
BRANCH  35  36
HETATM   36  N3  UNL     1      47.570  53.005  42.414  1.00  0.00    -0.064 N 
ATOM     37  H33 UNL     1      48.018  52.179  42.810  1.00  0.00     0.275 HD
ATOM     38  H32 UNL     1      48.328  53.281  41.790  1.00  0.00     0.275 HD
ATOM     39  H31 UNL     1      47.353  53.714  43.114  1.00  0.00     0.275 HD
ENDBRANCH  35  36
BRANCH  35  40
HETATM   40  C14 UNL     1      46.044  53.804  40.728  1.00  0.00     0.095 C 
HETATM   41  C15 UNL     1      46.733  55.084  41.193  1.00  0.00     0.040 C 
HETATM   42  C16 UNL     1      45.728  56.116  41.649  1.00  0.00     0.003 C 
HETATM   43  C17 UNL     1      44.642  55.511  42.509  1.00  0.00     0.000 C 
HETATM   44  C18 UNL     1      43.856  54.463  41.752  1.00  0.00     0.003 C 
HETATM   45  C19 UNL     1      44.595  54.078  40.493  1.00  0.00     0.040 C 
BRANCH  40  46
HETATM   46  O2  UNL     1      46.637  53.464  39.514  1.00  0.00    -0.387 OA
ATOM     47  H2  UNL     1      46.041  53.719  38.819  1.00  0.00     0.210 HD
ENDBRANCH  40  46
ENDBRANCH  35  40
ENDBRANCH  32  35
ENDBRANCH   1  31
TORSDOF 16
ENDMDL
MODEL 2
REMARK VINA RESULT: -8.293614468     11.249     14.752
REMARK  16 active torsions:
REMARK  status: ('A' for Active; 'I' for Inactive)
REMARK    1  A    between atoms: C2_2  and  N1_3 
REMARK    2  A    between atoms: N1_3  and  C3_6 
REMARK    3  A    between atoms: C3_6  and  C4_7 
REMARK    4  A    between atoms: C3_6  and  N4_32 
REMARK    5  A    between atoms: C4_7  and  C5_8 
REMARK    6  A    between atoms: C4_7  and  N2_15 
REMARK    7  A    between atoms: C5_8  and  C6_9 
REMARK       I    between atoms: N2_15  and  C12_17 
REMARK    8  A    between atoms: C12_17  and  C13_19 
REMARK    9  A    between atoms: C13_19  and  N3_20 
REMARK   10  A    between atoms: C13_19  and  C14_24 
REMARK   11  A    between atoms: C14_24  and  O2_25 
REMARK   12  A    between atoms: C22_35  and  C23_36 
REMARK   13  A    between atoms: C23_36  and  C24_37 
REMARK   14  A    between atoms: C24_37  and  C25_38 
REMARK   15  A    between atoms: C25_38  and  N5_39 
REMARK   16  A    between atoms: N5_39  and  C26_41 
ROOT
HETATM    1  C4  UNL     1      49.322  44.099  53.779  1.00  0.00     0.135 C 
ENDROOT
BRANCH   1   2
HETATM    2  C3  UNL     1      49.585  43.554  52.379  1.00  0.00     0.308 C 
BRANCH   2   3
HETATM    3  N1  UNL     1      49.893  42.157  52.412  1.00  0.00    -0.052 N 
ATOM      4  H12 UNL     1      49.313  41.652  51.741  1.00  0.00     0.279 HD
ATOM      5  H11 UNL     1      49.558  41.742  53.281  1.00  0.00     0.279 HD
BRANCH   3   6
HETATM    6  C2  UNL     1      51.279  41.841  52.209  1.00  0.00     0.230 C 
HETATM    7  C1  UNL     1      51.492  40.973  50.985  1.00  0.00     0.034 C 
ENDBRANCH   3   6
ENDBRANCH   2   3
BRANCH   2   8
HETATM    8  N4  UNL     1      48.608  43.835  51.411  1.00  0.00    -0.364 N 
HETATM    9  C20 UNL     1      48.240  45.140  51.093  1.00  0.00     0.060 C 
HETATM   10  C21 UNL     1      46.877  45.118  50.422  1.00  0.00     0.049 C 
HETATM   11  C22 UNL     1      46.009  44.035  51.026  1.00  0.00    -0.008 C 
HETATM   12  C28 UNL     1      46.594  42.666  50.927  1.00  0.00     0.025 C 
HETATM   13  C29 UNL     1      48.082  42.769  50.645  1.00  0.00     0.124 C 
BRANCH  11  14
HETATM   14  C23 UNL     1      44.605  44.105  50.468  1.00  0.00     0.006 C 
BRANCH  14  15
HETATM   15  C24 UNL     1      44.268  42.813  49.728  1.00  0.00     0.020 C 
BRANCH  15  16
HETATM   16  C25 UNL     1      42.934  42.309  50.285  1.00  0.00     0.121 C 
BRANCH  16  17
HETATM   17  N5  UNL     1      42.901  40.863  50.245  1.00  0.00    -0.380 N 
ATOM     18  H5  UNL     1      42.510  40.400  49.425  1.00  0.00     0.160 HD
BRANCH  17  19
HETATM   19  C26 UNL     1      43.398  40.067  51.313  1.00  0.00     0.066 C 
HETATM   20  C27 UNL     1      43.854  40.685  52.584  1.00  0.00     0.088 C 
HETATM   21  N6  UNL     1      43.459  38.782  51.186  1.00  0.00    -0.389 N 
ATOM     22  H62 UNL     1      43.146  38.358  50.313  1.00  0.00     0.157 HD
ATOM     23  H61 UNL     1      43.816  38.211  51.952  1.00  0.00     0.157 HD
ENDBRANCH  17  19
ENDBRANCH  16  17
ENDBRANCH  15  16
ENDBRANCH  14  15
ENDBRANCH  11  14
ENDBRANCH   2   8
ENDBRANCH   1   2
BRANCH   1  24
HETATM   24  C5  UNL     1      48.529  43.057  54.481  1.00  0.00     0.033 C 
BRANCH  24  25
HETATM   25  C6  UNL     1      47.105  43.242  54.769  1.00  0.00    -0.013 C 
HETATM   26  C7  UNL     1      46.811  42.756  56.234  1.00  0.00     0.005 C 
HETATM   27  C8  UNL     1      45.445  43.302  56.570  1.00  0.00     0.000 C 
HETATM   28  C9  UNL     1      44.598  43.497  55.353  1.00  0.00     0.000 C 
HETATM   29  C10 UNL     1      45.130  44.594  54.450  1.00  0.00     0.000 C 
HETATM   30  C11 UNL     1      46.644  44.672  54.730  1.00  0.00     0.005 C 
ENDBRANCH  24  25
ENDBRANCH   1  24
BRANCH   1  31
HETATM   31  N2  UNL     1      50.446  44.680  54.384  1.00  0.00    -0.351 N 
HETATM   32  C12 UNL     1      50.860  46.030  54.293  1.00  0.00     0.251 C 
HETATM   33  O1  UNL     1      50.170  46.823  53.616  1.00  0.00    -0.271 OA
ATOM     34  H2  UNL     1      51.028  44.062  54.949  1.00  0.00     0.163 HD
BRANCH  32  35
HETATM   35  C13 UNL     1      52.078  46.500  54.979  1.00  0.00     0.308 C 
BRANCH  35  36
HETATM   36  N3  UNL     1      52.610  47.622  54.208  1.00  0.00    -0.064 N 
ATOM     37  H33 UNL     1      53.625  47.596  54.118  1.00  0.00     0.275 HD
ATOM     38  H32 UNL     1      52.386  47.564  53.215  1.00  0.00     0.275 HD
ATOM     39  H31 UNL     1      52.272  48.480  54.644  1.00  0.00     0.275 HD
ENDBRANCH  35  36
BRANCH  35  40
HETATM   40  C14 UNL     1      51.863  46.948  56.399  1.00  0.00     0.095 C 
HETATM   41  C15 UNL     1      52.442  48.348  56.585  1.00  0.00     0.040 C 
HETATM   42  C16 UNL     1      53.664  48.323  57.474  1.00  0.00     0.003 C 
HETATM   43  C17 UNL     1      54.594  47.180  57.133  1.00  0.00     0.000 C 
HETATM   44  C18 UNL     1      53.913  45.841  57.314  1.00  0.00     0.003 C 
HETATM   45  C19 UNL     1      52.422  46.037  57.441  1.00  0.00     0.040 C 
BRANCH  40  46
HETATM   46  O2  UNL     1      50.489  47.069  56.601  1.00  0.00    -0.387 OA
ATOM     47  H2  UNL     1      50.200  47.861  56.164  1.00  0.00     0.210 HD
ENDBRANCH  40  46
ENDBRANCH  35  40
ENDBRANCH  32  35
ENDBRANCH   1  31
TORSDOF 16
ENDMDL
MODEL 3
REMARK VINA RESULT: -8.289360690     11.484     15.805
REMARK  16 active torsions:
REMARK  status: ('A' for Active; 'I' for Inactive)
REMARK    1  A    between atoms: C2_2  and  N1_3 
REMARK    2  A    between atoms: N1_3  and  C3_6 
REMARK    3  A    between atoms: C3_6  and  C4_7 
REMARK    4  A    between atoms: C3_6  and  N4_32 
REMARK    5  A    between atoms: C4_7  and  C5_8 
REMARK    6  A    between atoms: C4_7  and  N2_15 
REMARK    7  A    between atoms: C5_8  and  C6_9 
REMARK       I    between atoms: N2_15  and  C12_17 
REMARK    8  A    between atoms: C12_17  and  C13_19 
REMARK    9  A    between atoms: C13_19  and  N3_20 
REMARK   10  A    between atoms: C13_19  and  C14_24 
REMARK   11  A    between atoms: C14_24  and  O2_25 
REMARK   12  A    between atoms: C22_35  and  C23_36 
REMARK   13  A    between atoms: C23_36  and  C24_37 
REMARK   14  A    between atoms: C24_37  and  C25_38 
REMARK   15  A    between atoms: C25_38  and  N5_39 
REMARK   16  A    between atoms: N5_39  and  C26_41 
ROOT
HETATM    1  C4  UNL     1      44.831  40.687  52.815  1.00  0.00     0.135 C 
ENDROOT
BRANCH   1   2
HETATM    2  C3  UNL     1      44.936  41.876  51.865  1.00  0.00     0.308 C 
BRANCH   2   3
HETATM    3  N1  UNL     1      43.651  42.444  51.593  1.00  0.00    -0.052 N 
ATOM      4  H12 UNL     1      43.685  43.458  51.693  1.00  0.00     0.279 HD
ATOM      5  H11 UNL     1      42.998  42.214  52.342  1.00  0.00     0.279 HD
BRANCH   3   6
HETATM    6  C2  UNL     1      43.092  42.087  50.318  1.00  0.00     0.230 C 
HETATM    7  C1  UNL     1      44.162  41.713  49.312  1.00  0.00     0.034 C 
ENDBRANCH   3   6
ENDBRANCH   2   3
BRANCH   2   8
HETATM    8  N4  UNL     1      45.864  42.869  52.215  1.00  0.00    -0.364 N 
HETATM    9  C20 UNL     1      47.194  42.568  52.496  1.00  0.00     0.060 C 
HETATM   10  C21 UNL     1      47.800  43.708  53.298  1.00  0.00     0.049 C 
HETATM   11  C22 UNL     1      46.769  44.298  54.236  1.00  0.00    -0.008 C 
HETATM   12  C28 UNL     1      45.549  44.814  53.547  1.00  0.00     0.025 C 
HETATM   13  C29 UNL     1      45.467  44.225  52.151  1.00  0.00     0.124 C 
BRANCH  11  14
HETATM   14  C23 UNL     1      47.403  45.331  55.140  1.00  0.00     0.006 C 
BRANCH  14  15
HETATM   15  C24 UNL     1      48.883  45.490  54.802  1.00  0.00     0.020 C 
BRANCH  15  16
HETATM   16  C25 UNL     1      49.152  46.987  54.638  1.00  0.00     0.121 C 
BRANCH  16  17
HETATM   17  N5  UNL     1      47.944  47.657  54.205  1.00  0.00    -0.380 N 
ATOM     18  H5  UNL     1      47.196  47.813  54.881  1.00  0.00     0.160 HD
BRANCH  17  19
HETATM   19  C26 UNL     1      47.768  48.105  52.867  1.00  0.00     0.066 C 
HETATM   20  C27 UNL     1      47.997  47.196  51.716  1.00  0.00     0.088 C 
HETATM   21  N6  UNL     1      47.402  49.324  52.638  1.00  0.00    -0.389 N 
ATOM     22  H62 UNL     1      47.244  49.948  53.429  1.00  0.00     0.157 HD
ATOM     23  H61 UNL     1      47.276  49.645  51.678  1.00  0.00     0.157 HD
ENDBRANCH  17  19
ENDBRANCH  16  17
ENDBRANCH  15  16
ENDBRANCH  14  15
ENDBRANCH  11  14
ENDBRANCH   2   8
ENDBRANCH   1   2
BRANCH   1  24
HETATM   24  C5  UNL     1      43.798  41.056  53.817  1.00  0.00     0.033 C 
BRANCH  24  25
HETATM   25  C6  UNL     1      44.140  41.281  55.223  1.00  0.00    -0.013 C 
HETATM   26  C7  UNL     1      45.665  40.965  55.436  1.00  0.00     0.005 C 
HETATM   27  C8  UNL     1      46.012  41.554  56.781  1.00  0.00     0.000 C 
HETATM   28  C9  UNL     1      44.828  41.616  57.693  1.00  0.00     0.000 C 
HETATM   29  C10 UNL     1      43.779  42.600  57.212  1.00  0.00     0.000 C 
HETATM   30  C11 UNL     1      43.965  42.700  55.685  1.00  0.00     0.005 C 
ENDBRANCH  24  25
ENDBRANCH   1  24
BRANCH   1  31
HETATM   31  N2  UNL     1      44.797  39.444  52.167  1.00  0.00    -0.351 N 
HETATM   32  C12 UNL     1      45.899  38.604  51.880  1.00  0.00     0.251 C 
HETATM   33  O1  UNL     1      47.040  38.972  52.231  1.00  0.00    -0.271 OA
ATOM     34  H2  UNL     1      43.880  39.109  51.872  1.00  0.00     0.163 HD
BRANCH  32  35
HETATM   35  C13 UNL     1      45.713  37.319  51.179  1.00  0.00     0.308 C 
BRANCH  35  36
HETATM   36  N3  UNL     1      44.315  36.926  51.347  1.00  0.00    -0.064 N 
ATOM     37  H33 UNL     1      43.703  37.315  50.630  1.00  0.00     0.275 HD
ATOM     38  H32 UNL     1      44.150  35.941  51.143  1.00  0.00     0.275 HD
ATOM     39  H31 UNL     1      44.035  37.189  52.292  1.00  0.00     0.275 HD
ENDBRANCH  35  36
BRANCH  35  40
HETATM   40  C14 UNL     1      46.031  37.355  49.710  1.00  0.00     0.095 C 
HETATM   41  C15 UNL     1      44.800  36.936  48.911  1.00  0.00     0.040 C 
HETATM   42  C16 UNL     1      45.004  35.593  48.250  1.00  0.00     0.003 C 
HETATM   43  C17 UNL     1      45.653  34.593  49.181  1.00  0.00     0.000 C 
HETATM   44  C18 UNL     1      47.023  35.057  49.623  1.00  0.00     0.003 C 
HETATM   45  C19 UNL     1      47.198  36.521  49.296  1.00  0.00     0.040 C 
BRANCH  40  46
HETATM   46  O2  UNL     1      46.284  38.681  49.364  1.00  0.00    -0.387 OA
ATOM     47  H2  UNL     1      46.210  38.752  48.419  1.00  0.00     0.210 HD
ENDBRANCH  40  46
ENDBRANCH  35  40
ENDBRANCH  32  35
ENDBRANCH   1  31
TORSDOF 16
ENDMDL
MODEL 4
REMARK VINA RESULT: -8.260326722      8.892     15.452
REMARK  16 active torsions:
REMARK  status: ('A' for Active; 'I' for Inactive)
REMARK    1  A    between atoms: C2_2  and  N1_3 
REMARK    2  A    between atoms: N1_3  and  C3_6 
REMARK    3  A    between atoms: C3_6  and  C4_7 
REMARK    4  A    between atoms: C3_6  and  N4_32 
REMARK    5  A    between atoms: C4_7  and  C5_8 
REMARK    6  A    between atoms: C4_7  and  N2_15 
REMARK    7  A    between atoms: C5_8  and  C6_9 
REMARK       I    between atoms: N2_15  and  C12_17 
REMARK    8  A    between atoms: C12_17  and  C13_19 
REMARK    9  A    between atoms: C13_19  and  N3_20 
REMARK   10  A    between atoms: C13_19  and  C14_24 
REMARK   11  A    between atoms: C14_24  and  O2_25 
REMARK   12  A    between atoms: C22_35  and  C23_36 
REMARK   13  A    between atoms: C23_36  and  C24_37 
REMARK   14  A    between atoms: C24_37  and  C25_38 
REMARK   15  A    between atoms: C25_38  and  N5_39 
REMARK   16  A    between atoms: N5_39  and  C26_41 
ROOT
HETATM    1  C4  UNL     1      45.094  40.543  52.737  1.00  0.00     0.135 C 
ENDROOT
BRANCH   1   2
HETATM    2  C3  UNL     1      45.009  41.700  51.747  1.00  0.00     0.308 C 
BRANCH   2   3
HETATM    3  N1  UNL     1      43.696  42.266  51.715  1.00  0.00    -0.052 N 
ATOM      4  H12 UNL     1      43.724  43.242  52.013  1.00  0.00     0.279 HD
ATOM      5  H11 UNL     1      43.122  41.871  52.461  1.00  0.00     0.279 HD
BRANCH   3   6
HETATM    6  C2  UNL     1      43.020  42.150  50.452  1.00  0.00     0.230 C 
HETATM    7  C1  UNL     1      42.676  40.712  50.121  1.00  0.00     0.034 C 
ENDBRANCH   3   6
ENDBRANCH   2   3
BRANCH   2   8
HETATM    8  N4  UNL     1      45.988  42.699  51.876  1.00  0.00    -0.364 N 
HETATM    9  C20 UNL     1      45.720  43.915  52.499  1.00  0.00     0.060 C 
HETATM   10  C21 UNL     1      46.758  44.934  52.057  1.00  0.00     0.049 C 
HETATM   11  C22 UNL     1      47.142  44.702  50.612  1.00  0.00    -0.008 C 
HETATM   12  C28 UNL     1      47.689  43.340  50.342  1.00  0.00     0.025 C 
HETATM   13  C29 UNL     1      47.314  42.409  51.480  1.00  0.00     0.124 C 
BRANCH  11  14
HETATM   14  C23 UNL     1      48.059  45.801  50.122  1.00  0.00     0.006 C 
BRANCH  14  15
HETATM   15  C24 UNL     1      47.324  46.695  49.127  1.00  0.00     0.020 C 
BRANCH  15  16
HETATM   16  C25 UNL     1      47.485  46.060  47.744  1.00  0.00     0.121 C 
BRANCH  16  17
HETATM   17  N5  UNL     1      46.238  46.151  47.015  1.00  0.00    -0.380 N 
ATOM     18  H5  UNL     1      46.181  46.774  46.210  1.00  0.00     0.160 HD
BRANCH  17  19
HETATM   19  C26 UNL     1      45.090  45.399  47.387  1.00  0.00     0.066 C 
HETATM   20  C27 UNL     1      45.171  43.933  47.612  1.00  0.00     0.088 C 
HETATM   21  N6  UNL     1      43.950  45.991  47.532  1.00  0.00    -0.389 N 
ATOM     22  H62 UNL     1      43.894  46.997  47.378  1.00  0.00     0.157 HD
ATOM     23  H61 UNL     1      43.126  45.451  47.798  1.00  0.00     0.157 HD
ENDBRANCH  17  19
ENDBRANCH  16  17
ENDBRANCH  15  16
ENDBRANCH  14  15
ENDBRANCH  11  14
ENDBRANCH   2   8
ENDBRANCH   1   2
BRANCH   1  24
HETATM   24  C5  UNL     1      44.143  40.871  53.831  1.00  0.00     0.033 C 
BRANCH  24  25
HETATM   25  C6  UNL     1      44.611  41.325  55.142  1.00  0.00    -0.013 C 
HETATM   26  C7  UNL     1      43.863  42.654  55.521  1.00  0.00     0.005 C 
HETATM   27  C8  UNL     1      44.120  42.853  56.995  1.00  0.00     0.000 C 
HETATM   28  C9  UNL     1      45.403  42.223  57.435  1.00  0.00     0.000 C 
HETATM   29  C10 UNL     1      45.361  40.709  57.353  1.00  0.00     0.000 C 
HETATM   30  C11 UNL     1      44.316  40.375  56.269  1.00  0.00     0.005 C 
ENDBRANCH  24  25
ENDBRANCH   1  24
BRANCH   1  31
HETATM   31  N2  UNL     1      45.091  39.277  52.134  1.00  0.00    -0.351 N 
HETATM   32  C12 UNL     1      46.219  38.499  51.784  1.00  0.00     0.251 C 
HETATM   33  O1  UNL     1      47.358  38.950  52.030  1.00  0.00    -0.271 OA
ATOM     34  H2  UNL     1      44.177  38.876  51.925  1.00  0.00     0.163 HD
BRANCH  32  35
HETATM   35  C13 UNL     1      46.063  37.180  51.142  1.00  0.00     0.308 C 
BRANCH  35  36
HETATM   36  N3  UNL     1      44.766  36.644  51.551  1.00  0.00    -0.064 N 
ATOM     37  H33 UNL     1      44.597  35.701  51.202  1.00  0.00     0.275 HD
ATOM     38  H32 UNL     1      44.721  36.427  52.546  1.00  0.00     0.275 HD
ATOM     39  H31 UNL     1      44.053  37.310  51.255  1.00  0.00     0.275 HD
ENDBRANCH  35  36
BRANCH  35  40
HETATM   40  C14 UNL     1      46.123  37.204  49.639  1.00  0.00     0.095 C 
HETATM   41  C15 UNL     1      44.790  36.728  49.067  1.00  0.00     0.040 C 
HETATM   42  C16 UNL     1      44.930  35.383  48.393  1.00  0.00     0.003 C 
HETATM   43  C17 UNL     1      45.768  34.423  49.208  1.00  0.00     0.000 C 
HETATM   44  C18 UNL     1      47.174  34.944  49.403  1.00  0.00     0.003 C 
HETATM   45  C19 UNL     1      47.234  36.408  49.038  1.00  0.00     0.040 C 
BRANCH  40  46
HETATM   46  O2  UNL     1      46.261  38.533  49.243  1.00  0.00    -0.387 OA
ATOM     47  H2  UNL     1      46.069  38.579  48.313  1.00  0.00     0.210 HD
ENDBRANCH  40  46
ENDBRANCH  35  40
ENDBRANCH  32  35
ENDBRANCH   1  31
TORSDOF 16
ENDMDL
MODEL 5
REMARK VINA RESULT: -8.257711284      8.055     14.810
REMARK  16 active torsions:
REMARK  status: ('A' for Active; 'I' for Inactive)
REMARK    1  A    between atoms: C2_2  and  N1_3 
REMARK    2  A    between atoms: N1_3  and  C3_6 
REMARK    3  A    between atoms: C3_6  and  C4_7 
REMARK    4  A    between atoms: C3_6  and  N4_32 
REMARK    5  A    between atoms: C4_7  and  C5_8 
REMARK    6  A    between atoms: C4_7  and  N2_15 
REMARK    7  A    between atoms: C5_8  and  C6_9 
REMARK       I    between atoms: N2_15  and  C12_17 
REMARK    8  A    between atoms: C12_17  and  C13_19 
REMARK    9  A    between atoms: C13_19  and  N3_20 
REMARK   10  A    between atoms: C13_19  and  C14_24 
REMARK   11  A    between atoms: C14_24  and  O2_25 
REMARK   12  A    between atoms: C22_35  and  C23_36 
REMARK   13  A    between atoms: C23_36  and  C24_37 
REMARK   14  A    between atoms: C24_37  and  C25_38 
REMARK   15  A    between atoms: C25_38  and  N5_39 
REMARK   16  A    between atoms: N5_39  and  C26_41 
ROOT
HETATM    1  C4  UNL     1      49.357  44.180  53.923  1.00  0.00     0.135 C 
ENDROOT
BRANCH   1   2
HETATM    2  C3  UNL     1      49.567  43.731  52.481  1.00  0.00     0.308 C 
BRANCH   2   3
HETATM    3  N1  UNL     1      49.918  42.346  52.411  1.00  0.00    -0.052 N 
ATOM      4  H12 UNL     1      49.374  41.880  51.685  1.00  0.00     0.279 HD
ATOM      5  H11 UNL     1      49.574  41.852  53.234  1.00  0.00     0.279 HD
BRANCH   3   6
HETATM    6  C2  UNL     1      51.320  42.089  52.225  1.00  0.00     0.230 C 
HETATM    7  C1  UNL     1      51.920  41.333  53.394  1.00  0.00     0.034 C 
ENDBRANCH   3   6
ENDBRANCH   2   3
BRANCH   2   8
HETATM    8  N4  UNL     1      48.535  44.037  51.580  1.00  0.00    -0.364 N 
HETATM    9  C20 UNL     1      48.028  43.092  50.693  1.00  0.00     0.060 C 
HETATM   10  C21 UNL     1      47.318  43.811  49.557  1.00  0.00     0.049 C 
HETATM   11  C22 UNL     1      48.034  45.101  49.221  1.00  0.00    -0.008 C 
HETATM   12  C28 UNL     1      48.146  46.048  50.370  1.00  0.00     0.025 C 
HETATM   13  C29 UNL     1      47.905  45.300  51.669  1.00  0.00     0.124 C 
BRANCH  11  14
HETATM   14  C23 UNL     1      47.423  45.746  47.998  1.00  0.00     0.006 C 
BRANCH  14  15
HETATM   15  C24 UNL     1      45.912  45.877  48.172  1.00  0.00     0.020 C 
BRANCH  15  16
HETATM   16  C25 UNL     1      45.276  45.627  46.803  1.00  0.00     0.121 C 
BRANCH  16  17
HETATM   17  N5  UNL     1      44.405  46.730  46.457  1.00  0.00    -0.380 N 
ATOM     18  H5  UNL     1      43.638  46.970  47.086  1.00  0.00     0.160 HD
BRANCH  17  19
HETATM   19  C26 UNL     1      44.585  47.490  45.269  1.00  0.00     0.066 C 
HETATM   20  C27 UNL     1      45.088  46.860  44.022  1.00  0.00     0.088 C 
HETATM   21  N6  UNL     1      44.310  48.753  45.264  1.00  0.00    -0.389 N 
ATOM     22  H62 UNL     1      43.964  49.186  46.120  1.00  0.00     0.157 HD
ATOM     23  H61 UNL     1      44.439  49.298  44.411  1.00  0.00     0.157 HD
ENDBRANCH  17  19
ENDBRANCH  16  17
ENDBRANCH  15  16
ENDBRANCH  14  15
ENDBRANCH  11  14
ENDBRANCH   2   8
ENDBRANCH   1   2
BRANCH   1  24
HETATM   24  C5  UNL     1      48.621  43.077  54.592  1.00  0.00     0.033 C 
BRANCH  24  25
HETATM   25  C6  UNL     1      47.205  43.204  54.946  1.00  0.00    -0.013 C 
HETATM   26  C7  UNL     1      46.998  42.697  56.419  1.00  0.00     0.005 C 
HETATM   27  C8  UNL     1      45.629  43.187  56.822  1.00  0.00     0.000 C 
HETATM   28  C9  UNL     1      44.720  43.358  55.646  1.00  0.00     0.000 C 
HETATM   29  C10 UNL     1      45.167  44.481  54.729  1.00  0.00     0.000 C 
HETATM   30  C11 UNL     1      46.689  44.615  54.941  1.00  0.00     0.005 C 
ENDBRANCH  24  25
ENDBRANCH   1  24
BRANCH   1  31
HETATM   31  N2  UNL     1      50.495  44.749  54.512  1.00  0.00    -0.351 N 
HETATM   32  C12 UNL     1      50.949  46.083  54.374  1.00  0.00     0.251 C 
HETATM   33  O1  UNL     1      50.286  46.870  53.665  1.00  0.00    -0.271 OA
ATOM     34  H2  UNL     1      51.056  44.136  55.103  1.00  0.00     0.163 HD
BRANCH  32  35
HETATM   35  C13 UNL     1      52.177  46.542  55.050  1.00  0.00     0.308 C 
BRANCH  35  36
HETATM   36  N3  UNL     1      52.722  47.648  54.265  1.00  0.00    -0.064 N 
ATOM     37  H33 UNL     1      52.867  47.407  53.285  1.00  0.00     0.275 HD
ATOM     38  H32 UNL     1      52.050  48.401  54.119  1.00  0.00     0.275 HD
ATOM     39  H31 UNL     1      53.575  47.961  54.728  1.00  0.00     0.275 HD
ENDBRANCH  35  36
BRANCH  35  40
HETATM   40  C14 UNL     1      51.976  47.007  56.466  1.00  0.00     0.095 C 
HETATM   41  C15 UNL     1      52.561  48.407  56.631  1.00  0.00     0.040 C 
HETATM   42  C16 UNL     1      53.790  48.389  57.510  1.00  0.00     0.003 C 
HETATM   43  C17 UNL     1      54.714  47.239  57.173  1.00  0.00     0.000 C 
HETATM   44  C18 UNL     1      54.031  45.904  57.376  1.00  0.00     0.003 C 
HETATM   45  C19 UNL     1      52.541  46.106  57.513  1.00  0.00     0.040 C 
BRANCH  40  46
HETATM   46  O2  UNL     1      50.604  47.134  56.679  1.00  0.00    -0.387 OA
ATOM     47  H2  UNL     1      50.473  47.366  57.591  1.00  0.00     0.210 HD
ENDBRANCH  40  46
ENDBRANCH  35  40
ENDBRANCH  32  35
ENDBRANCH   1  31
TORSDOF 16
ENDMDL
