MODEL 1
REMARK VINA RESULT: -8.986897071      0.000      0.000
REMARK  3 active torsions:
REMARK  status: ('A' for Active; 'I' for Inactive)
REMARK       I    between atoms: C1_2  and  N1_3 
REMARK    1  A    between atoms: C1_2  and  C7_10 
REMARK    2  A    between atoms: N1_3  and  C2_5 
REMARK    3  A    between atoms: N2_13  and  C10_14 
ROOT
HETATM    1  C7  UNL     1      -1.388   4.704  12.013  1.00  0.00     0.115 C 
HETATM    2  C8  UNL     1      -1.432   3.211  12.029  1.00  0.00     0.037 C 
HETATM    3  C9  UNL     1      -2.850   2.664  12.050  1.00  0.00     0.142 C 
HETATM    4  N2  UNL     1      -3.612   3.465  12.959  1.00  0.00    -0.215 N 
HETATM    5  C18 UNL     1      -3.722   4.879  12.749  1.00  0.00     0.179 C 
HETATM    6  C19 UNL     1      -2.721   5.347  11.730  1.00  0.00     0.201 C 
HETATM    7  F1  UNL     1      -3.176   5.048  10.477  1.00  0.00    -0.247 F 
ENDROOT
BRANCH   4   8
HETATM    8  C10 UNL     1      -4.263   2.881  14.075  1.00  0.00     0.683 A 
HETATM    9  N3  UNL     1      -4.933   3.614  14.956  1.00  0.00    -0.195 N 
HETATM   10  C11 UNL     1      -5.554   3.058  16.022  1.00  0.00     0.038 A 
ATOM     11  H3  UNL     1      -4.981   4.625  14.825  1.00  0.00     0.184 HD
HETATM   12  C12 UNL     1      -5.486   1.705  16.193  1.00  0.00     0.034 A 
HETATM   13  C17 UNL     1      -6.286   3.937  16.966  1.00  0.00     0.058 C 
HETATM   14  C13 UNL     1      -4.779   0.927  15.264  1.00  0.00     0.267 A 
HETATM   15  C14 UNL     1      -6.127   1.006  17.322  1.00  0.00     0.046 C 
HETATM   16  O2  UNL     1      -4.737  -0.315  15.450  1.00  0.00    -0.267 OA
HETATM   17  N4  UNL     1      -4.190   1.533  14.235  1.00  0.00    -0.156 N 
ATOM     18  H4  UNL     1      -3.673   0.976  13.554  1.00  0.00     0.187 HD
HETATM   19  C15 UNL     1      -6.894   1.914  18.217  1.00  0.00     0.005 C 
HETATM   20  C16 UNL     1      -6.255   3.284  18.326  1.00  0.00     0.006 C 
ENDBRANCH   4   8
BRANCH   1  21
HETATM   21  C1  UNL     1      -0.419   5.188  10.994  1.00  0.00     0.225 C 
HETATM   22  O1  UNL     1      -0.308   6.420  10.799  1.00  0.00    -0.273 OA
HETATM   23  N1  UNL     1       0.367   4.272  10.261  1.00  0.00    -0.356 N 
ATOM     24  H1  UNL     1       0.270   3.271  10.428  1.00  0.00     0.162 HD
BRANCH  23  25
HETATM   25  C2  UNL     1       1.291   4.741   9.290  1.00  0.00     0.084 C 
HETATM   26  C3  UNL     1       2.517   3.851   9.115  1.00  0.00     0.025 C 
HETATM   27  C4  UNL     1       3.148   4.447   7.873  1.00  0.00     0.002 C 
HETATM   28  C5  UNL     1       2.030   5.186   7.132  1.00  0.00     0.002 C 
HETATM   29  C6  UNL     1       0.760   4.707   7.855  1.00  0.00     0.025 C 
ENDBRANCH  23  25
ENDBRANCH   1  21
TORSDOF 3
ENDMDL
MODEL 2
REMARK VINA RESULT: -8.973733915      2.890      3.512
REMARK  3 active torsions:
REMARK  status: ('A' for Active; 'I' for Inactive)
REMARK       I    between atoms: C1_2  and  N1_3 
REMARK    1  A    between atoms: C1_2  and  C7_10 
REMARK    2  A    between atoms: N1_3  and  C2_5 
REMARK    3  A    between atoms: N2_13  and  C10_14 
ROOT
HETATM    1  C7  UNL     1      -4.228   5.273  10.783  1.00  0.00     0.115 C 
HETATM    2  C8  UNL     1      -3.699   5.765  12.091  1.00  0.00     0.037 C 
HETATM    3  C9  UNL     1      -3.049   4.665  12.914  1.00  0.00     0.142 C 
HETATM    4  N2  UNL     1      -3.870   3.498  12.807  1.00  0.00    -0.215 N 
HETATM    5  C18 UNL     1      -4.149   2.934  11.520  1.00  0.00     0.179 C 
HETATM    6  C19 UNL     1      -3.761   3.886  10.424  1.00  0.00     0.201 C 
HETATM    7  F1  UNL     1      -2.409   3.835  10.237  1.00  0.00    -0.247 F 
ENDROOT
BRANCH   4   8
HETATM    8  C10 UNL     1      -4.419   2.886  13.963  1.00  0.00     0.683 A 
HETATM    9  N3  UNL     1      -5.074   3.587  14.881  1.00  0.00    -0.195 N 
HETATM   10  C11 UNL     1      -5.597   3.005  15.985  1.00  0.00     0.038 A 
ATOM     11  H3  UNL     1      -5.185   4.593  14.751  1.00  0.00     0.184 HD
HETATM   12  C12 UNL     1      -5.444   1.658  16.155  1.00  0.00     0.034 A 
HETATM   13  C17 UNL     1      -6.318   3.848  16.969  1.00  0.00     0.058 C 
HETATM   14  C13 UNL     1      -4.754   0.915  15.186  1.00  0.00     0.267 A 
HETATM   15  C14 UNL     1      -5.976   0.931  17.323  1.00  0.00     0.046 C 
HETATM   16  O2  UNL     1      -4.632  -0.323  15.374  1.00  0.00    -0.267 OA
HETATM   17  N4  UNL     1      -4.262   1.546  14.122  1.00  0.00    -0.156 N 
ATOM     18  H4  UNL     1      -3.758   1.014  13.413  1.00  0.00     0.187 HD
HETATM   19  C15 UNL     1      -6.736   1.802  18.261  1.00  0.00     0.005 C 
HETATM   20  C16 UNL     1      -6.167   3.205  18.327  1.00  0.00     0.006 C 
ENDBRANCH   4   8
BRANCH   1  21
HETATM   21  C1  UNL     1      -3.835   6.190   9.681  1.00  0.00     0.225 C 
HETATM   22  O1  UNL     1      -2.976   7.075   9.905  1.00  0.00    -0.273 OA
HETATM   23  N1  UNL     1      -4.419   6.066   8.402  1.00  0.00    -0.356 N 
ATOM     24  H1  UNL     1      -5.117   5.342   8.230  1.00  0.00     0.162 HD
BRANCH  23  25
HETATM   25  C2  UNL     1      -4.039   6.946   7.354  1.00  0.00     0.084 C 
HETATM   26  C3  UNL     1      -2.966   6.384   6.426  1.00  0.00     0.025 C 
HETATM   27  C4  UNL     1      -2.975   7.402   5.304  1.00  0.00     0.002 C 
HETATM   28  C5  UNL     1      -4.343   8.089   5.354  1.00  0.00     0.002 C 
HETATM   29  C6  UNL     1      -5.141   7.201   6.323  1.00  0.00     0.025 C 
ENDBRANCH  23  25
ENDBRANCH   1  21
TORSDOF 3
ENDMDL
MODEL 3
REMARK VINA RESULT: -8.709565633      2.761      3.411
REMARK  3 active torsions:
REMARK  status: ('A' for Active; 'I' for Inactive)
REMARK       I    between atoms: C1_2  and  N1_3 
REMARK    1  A    between atoms: C1_2  and  C7_10 
REMARK    2  A    between atoms: N1_3  and  C2_5 
REMARK    3  A    between atoms: N2_13  and  C10_14 
ROOT
HETATM    1  C7  UNL     1      -3.451   3.816  10.114  1.00  0.00     0.115 C 
HETATM    2  C8  UNL     1      -4.585   4.543  10.760  1.00  0.00     0.037 C 
HETATM    3  C9  UNL     1      -4.323   4.858  12.223  1.00  0.00     0.142 C 
HETATM    4  N2  UNL     1      -3.712   3.706  12.814  1.00  0.00    -0.215 N 
HETATM    5  C18 UNL     1      -2.484   3.194  12.281  1.00  0.00     0.179 C 
HETATM    6  C19 UNL     1      -2.190   3.802  10.939  1.00  0.00     0.201 C 
HETATM    7  F1  UNL     1      -1.680   5.058  11.112  1.00  0.00    -0.247 F 
ENDROOT
BRANCH   4   8
HETATM    8  C10 UNL     1      -4.306   3.056  13.926  1.00  0.00     0.683 A 
HETATM    9  N3  UNL     1      -4.974   3.729  14.855  1.00  0.00    -0.195 N 
HETATM   10  C11 UNL     1      -5.540   3.110  15.917  1.00  0.00     0.038 A 
ATOM     11  H3  UNL     1      -5.064   4.741  14.765  1.00  0.00     0.184 HD
HETATM   12  C12 UNL     1      -5.416   1.754  16.033  1.00  0.00     0.034 A 
HETATM   13  C17 UNL     1      -6.274   3.923  16.916  1.00  0.00     0.058 C 
HETATM   14  C13 UNL     1      -4.711   1.040  15.052  1.00  0.00     0.267 A 
HETATM   15  C14 UNL     1      -5.995   0.989  17.152  1.00  0.00     0.046 C 
HETATM   16  O2  UNL     1      -4.617  -0.206  15.189  1.00  0.00    -0.267 OA
HETATM   17  N4  UNL     1      -4.177   1.707  14.030  1.00  0.00    -0.156 N 
ATOM     18  H4  UNL     1      -3.663   1.196  13.313  1.00  0.00     0.187 HD
HETATM   19  C15 UNL     1      -6.766   1.833  18.105  1.00  0.00     0.005 C 
HETATM   20  C16 UNL     1      -6.175   3.220  18.248  1.00  0.00     0.006 C 
ENDBRANCH   4   8
BRANCH   1  21
HETATM   21  C1  UNL     1      -3.130   4.418   8.792  1.00  0.00     0.225 C 
HETATM   22  O1  UNL     1      -2.191   3.935   8.118  1.00  0.00    -0.273 OA
HETATM   23  N1  UNL     1      -3.873   5.514   8.304  1.00  0.00    -0.356 N 
ATOM     24  H1  UNL     1      -4.636   5.899   8.861  1.00  0.00     0.162 HD
BRANCH  23  25
HETATM   25  C2  UNL     1      -3.561   6.083   7.041  1.00  0.00     0.084 C 
HETATM   26  C3  UNL     1      -4.647   6.998   6.483  1.00  0.00     0.025 C 
HETATM   27  C4  UNL     1      -3.932   7.636   5.310  1.00  0.00     0.002 C 
HETATM   28  C5  UNL     1      -2.432   7.518   5.602  1.00  0.00     0.002 C 
HETATM   29  C6  UNL     1      -2.400   7.080   7.075  1.00  0.00     0.025 C 
ENDBRANCH  23  25
ENDBRANCH   1  21
TORSDOF 3
ENDMDL
MODEL 4
REMARK VINA RESULT: -8.653655552      1.635      1.886
REMARK  3 active torsions:
REMARK  status: ('A' for Active; 'I' for Inactive)
REMARK       I    between atoms: C1_2  and  N1_3 
REMARK    1  A    between atoms: C1_2  and  C7_10 
REMARK    2  A    between atoms: N1_3  and  C2_5 
REMARK    3  A    between atoms: N2_13  and  C10_14 
ROOT
HETATM    1  C7  UNL     1      -2.517   4.951  11.168  1.00  0.00     0.115 C 
HETATM    2  C8  UNL     1      -2.722   3.473  11.099  1.00  0.00     0.037 C 
HETATM    3  C9  UNL     1      -4.116   3.052  11.533  1.00  0.00     0.142 C 
HETATM    4  N2  UNL     1      -4.465   3.823  12.687  1.00  0.00    -0.215 N 
HETATM    5  C18 UNL     1      -4.474   5.254  12.617  1.00  0.00     0.179 C 
HETATM    6  C19 UNL     1      -3.791   5.732  11.367  1.00  0.00     0.201 C 
HETATM    7  F1  UNL     1      -4.641   5.598  10.306  1.00  0.00    -0.247 F 
ENDROOT
BRANCH   4   8
HETATM    8  C10 UNL     1      -4.801   3.190  13.911  1.00  0.00     0.683 A 
HETATM    9  N3  UNL     1      -5.472   3.825  14.865  1.00  0.00    -0.195 N 
HETATM   10  C11 UNL     1      -5.793   3.224  16.034  1.00  0.00     0.038 A 
ATOM     11  H3  UNL     1      -5.754   4.794  14.712  1.00  0.00     0.184 HD
HETATM   12  C12 UNL     1      -5.412   1.927  16.234  1.00  0.00     0.034 A 
HETATM   13  C17 UNL     1      -6.545   3.992  17.054  1.00  0.00     0.058 C 
HETATM   14  C13 UNL     1      -4.704   1.253  15.228  1.00  0.00     0.267 A 
HETATM   15  C14 UNL     1      -5.713   1.185  17.473  1.00  0.00     0.046 C 
HETATM   16  O2  UNL     1      -4.370   0.061  15.445  1.00  0.00    -0.267 OA
HETATM   17  N4  UNL     1      -4.419   1.900  14.099  1.00  0.00    -0.156 N 
ATOM     18  H4  UNL     1      -3.904   1.418  13.363  1.00  0.00     0.187 HD
HETATM   19  C15 UNL     1      -6.512   1.972  18.450  1.00  0.00     0.005 C 
HETATM   20  C16 UNL     1      -6.171   3.448  18.412  1.00  0.00     0.006 C 
ENDBRANCH   4   8
BRANCH   1  21
HETATM   21  C1  UNL     1      -1.861   5.447   9.929  1.00  0.00     0.225 C 
HETATM   22  O1  UNL     1      -1.214   6.519   9.972  1.00  0.00    -0.273 OA
HETATM   23  N1  UNL     1      -1.965   4.721   8.723  1.00  0.00    -0.356 N 
ATOM     24  H1  UNL     1      -2.494   3.849   8.700  1.00  0.00     0.162 HD
BRANCH  23  25
HETATM   25  C2  UNL     1      -1.336   5.199   7.544  1.00  0.00     0.084 C 
HETATM   26  C3  UNL     1      -0.345   4.219   6.923  1.00  0.00     0.025 C 
HETATM   27  C4  UNL     1      -0.061   4.881   5.590  1.00  0.00     0.002 C 
HETATM   28  C5  UNL     1      -1.253   5.799   5.300  1.00  0.00     0.002 C 
HETATM   29  C6  UNL     1      -2.285   5.369   6.355  1.00  0.00     0.025 C 
ENDBRANCH  23  25
ENDBRANCH   1  21
TORSDOF 3
ENDMDL
MODEL 5
REMARK VINA RESULT: -8.565505200      1.846      2.288
REMARK  3 active torsions:
REMARK  status: ('A' for Active; 'I' for Inactive)
REMARK       I    between atoms: C1_2  and  N1_3 
REMARK    1  A    between atoms: C1_2  and  C7_10 
REMARK    2  A    between atoms: N1_3  and  C2_5 
REMARK    3  A    between atoms: N2_13  and  C10_14 
ROOT
HETATM    1  C7  UNL     1      -3.169   3.926  10.133  1.00  0.00     0.115 C 
HETATM    2  C8  UNL     1      -4.415   4.553  10.668  1.00  0.00     0.037 C 
HETATM    3  C9  UNL     1      -4.303   4.919  12.139  1.00  0.00     0.142 C 
HETATM    4  N2  UNL     1      -3.636   3.843  12.807  1.00  0.00    -0.215 N 
HETATM    5  C18 UNL     1      -2.327   3.441  12.386  1.00  0.00     0.179 C 
HETATM    6  C19 UNL     1      -1.983   4.048  11.055  1.00  0.00     0.201 C 
HETATM    7  F1  UNL     1      -1.609   5.350  11.234  1.00  0.00    -0.247 F 
ENDROOT
BRANCH   4   8
HETATM    8  C10 UNL     1      -4.255   3.161  13.885  1.00  0.00     0.683 A 
HETATM    9  N3  UNL     1      -4.935   3.807  14.824  1.00  0.00    -0.195 N 
HETATM   10  C11 UNL     1      -5.523   3.157  15.855  1.00  0.00     0.038 A 
ATOM     11  H3  UNL     1      -5.015   4.823  14.767  1.00  0.00     0.184 HD
HETATM   12  C12 UNL     1      -5.411   1.798  15.927  1.00  0.00     0.034 A 
HETATM   13  C17 UNL     1      -6.269   3.943  16.868  1.00  0.00     0.058 C 
HETATM   14  C13 UNL     1      -4.695   1.112  14.936  1.00  0.00     0.267 A 
HETATM   15  C14 UNL     1      -6.016   0.999  17.010  1.00  0.00     0.046 C 
HETATM   16  O2  UNL     1      -4.612  -0.140  15.032  1.00  0.00    -0.267 OA
HETATM   17  N4  UNL     1      -4.138   1.808  13.946  1.00  0.00    -0.156 N 
ATOM     18  H4  UNL     1      -3.614   1.318  13.222  1.00  0.00     0.187 HD
HETATM   19  C15 UNL     1      -6.798   1.817  17.977  1.00  0.00     0.005 C 
HETATM   20  C16 UNL     1      -6.199   3.194  18.177  1.00  0.00     0.006 C 
ENDBRANCH   4   8
BRANCH   1  21
HETATM   21  C1  UNL     1      -2.800   4.529   8.825  1.00  0.00     0.225 C 
HETATM   22  O1  UNL     1      -3.658   5.195   8.201  1.00  0.00    -0.273 OA
HETATM   23  N1  UNL     1      -1.502   4.357   8.297  1.00  0.00    -0.356 N 
ATOM     24  H1  UNL     1      -0.811   3.814   8.814  1.00  0.00     0.162 HD
BRANCH  23  25
HETATM   25  C2  UNL     1      -1.156   4.937   7.048  1.00  0.00     0.084 C 
HETATM   26  C3  UNL     1      -0.512   6.316   7.157  1.00  0.00     0.025 C 
HETATM   27  C4  UNL     1      -0.030   6.537   5.737  1.00  0.00     0.002 C 
HETATM   28  C5  UNL     1       0.099   5.149   5.103  1.00  0.00     0.002 C 
HETATM   29  C6  UNL     1      -0.034   4.204   6.309  1.00  0.00     0.025 C 
ENDBRANCH  23  25
ENDBRANCH   1  21
TORSDOF 3
ENDMDL
