MODEL 1
REMARK VINA RESULT: -6.918112942      0.000      0.000
REMARK  6 active torsions:
REMARK  status: ('A' for Active; 'I' for Inactive)
REMARK    1  A    between atoms: C2_2  and  S1_3 
REMARK    2  A    between atoms: C2_2  and  C11_19 
REMARK    3  A    between atoms: S1_3  and  C3_4 
REMARK    4  A    between atoms: C5_9  and  C6_10 
REMARK    5  A    between atoms: C6_10  and  C7_11 
REMARK       I    between atoms: C11_19  and  N4_21 
REMARK    6  A    between atoms: N4_21  and  C12_23 
ROOT
HETATM    1  C3  UNL     1       4.633  -2.493  21.689  1.00  0.00     0.148 A 
HETATM    2  N1  UNL     1       4.455  -2.064  22.957  1.00  0.00    -0.326 N 
ATOM      3  H1  UNL     1       4.499  -2.647  23.793  1.00  0.00     0.169 HD
HETATM    4  C4  UNL     1       4.210  -0.731  22.935  1.00  0.00     0.128 A 
HETATM    5 CL1  UNL     1       3.916   0.271  24.340  1.00  0.00    -0.062 Cl
HETATM    6  C5  UNL     1       4.236  -0.322  21.618  1.00  0.00     0.058 A 
HETATM    7  N3  UNL     1       4.495  -1.419  20.886  1.00  0.00    -0.332 N 
HETATM    8  C10 UNL     1       4.604  -1.409  19.450  1.00  0.00     0.158 C 
ENDROOT
BRANCH   1   9
HETATM    9  S1  UNL     1       4.982  -4.146  21.121  1.00  0.00    -0.080 SA
BRANCH   9  10
HETATM   10  C2  UNL     1       4.866  -5.341  22.487  1.00  0.00     0.143 C 
HETATM   11  C1  UNL     1       3.381  -5.592  22.755  1.00  0.00     0.031 C 
BRANCH  10  12
HETATM   12  C11 UNL     1       5.420  -6.662  22.044  1.00  0.00     0.232 C 
HETATM   13  O1  UNL     1       6.568  -6.968  22.401  1.00  0.00    -0.272 OA
HETATM   14  N4  UNL     1       4.665  -7.551  21.238  1.00  0.00    -0.352 N 
ATOM     15  H4  UNL     1       3.721  -7.308  20.938  1.00  0.00     0.163 HD
BRANCH  14  16
HETATM   16  C12 UNL     1       5.260  -8.810  20.849  1.00  0.00     0.022 C 
HETATM   17  C13 UNL     1       6.575  -8.618  20.128  1.00  0.00     0.037 C 
HETATM   18  C14 UNL     1       5.481  -9.651  22.075  1.00  0.00     0.037 C 
HETATM   19  C15 UNL     1       4.342  -9.546  19.876  1.00  0.00     0.037 C 
ENDBRANCH  14  16
ENDBRANCH  10  12
ENDBRANCH   9  10
ENDBRANCH   1   9
BRANCH   6  20
HETATM   20  C6  UNL     1       4.019   1.045  21.140  1.00  0.00     0.125 C 
BRANCH  20  21
HETATM   21  C7  UNL     1       5.313   1.792  20.940  1.00  0.00     0.056 A 
HETATM   22  N2  UNL     1       5.460   3.031  20.495  1.00  0.00    -0.363 N 
HETATM   23  C8  UNL     1       6.647   3.534  20.377  1.00  0.00     0.095 A 
ATOM     24  H2  UNL     1       4.641   3.587  20.246  1.00  0.00     0.165 HD
HETATM   25  C9  UNL     1       7.713   2.745  20.727  1.00  0.00     0.068 A 
HETATM   26  S2  UNL     1       6.926   1.307  21.209  1.00  0.00    -0.087 SA
ENDBRANCH  20  21
ENDBRANCH   6  20
TORSDOF 6
ENDMDL
MODEL 2
REMARK VINA RESULT: -6.880685736      2.581      3.369
REMARK  6 active torsions:
REMARK  status: ('A' for Active; 'I' for Inactive)
REMARK    1  A    between atoms: C2_2  and  S1_3 
REMARK    2  A    between atoms: C2_2  and  C11_19 
REMARK    3  A    between atoms: S1_3  and  C3_4 
REMARK    4  A    between atoms: C5_9  and  C6_10 
REMARK    5  A    between atoms: C6_10  and  C7_11 
REMARK       I    between atoms: C11_19  and  N4_21 
REMARK    6  A    between atoms: N4_21  and  C12_23 
ROOT
HETATM    1  C3  UNL     1       5.596  -0.212  22.045  1.00  0.00     0.148 A 
HETATM    2  N1  UNL     1       6.937  -0.064  22.114  1.00  0.00    -0.326 N 
ATOM      3  H1  UNL     1       7.585  -0.716  22.556  1.00  0.00     0.169 HD
HETATM    4  C4  UNL     1       7.279   1.094  21.497  1.00  0.00     0.128 A 
HETATM    5 CL1  UNL     1       8.908   1.713  21.332  1.00  0.00    -0.062 Cl
HETATM    6  C5  UNL     1       6.120   1.681  21.034  1.00  0.00     0.058 A 
HETATM    7  N3  UNL     1       5.115   0.861  21.384  1.00  0.00    -0.332 N 
HETATM    8  C10 UNL     1       3.732   1.123  21.078  1.00  0.00     0.158 C 
ENDROOT
BRANCH   1   9
HETATM    9  S1  UNL     1       4.597  -1.541  22.685  1.00  0.00    -0.080 SA
BRANCH   9  10
HETATM   10  C2  UNL     1       4.301  -2.804  21.411  1.00  0.00     0.143 C 
HETATM   11  C1  UNL     1       5.409  -2.671  20.364  1.00  0.00     0.031 C 
BRANCH  10  12
HETATM   12  C11 UNL     1       4.480  -4.169  22.008  1.00  0.00     0.232 C 
HETATM   13  O1  UNL     1       4.229  -4.321  23.213  1.00  0.00    -0.272 OA
HETATM   14  N4  UNL     1       4.925  -5.267  21.229  1.00  0.00    -0.352 N 
ATOM     15  H4  UNL     1       5.137  -5.151  20.238  1.00  0.00     0.163 HD
BRANCH  14  16
HETATM   16  C12 UNL     1       5.074  -6.555  21.870  1.00  0.00     0.022 C 
HETATM   17  C13 UNL     1       5.862  -6.462  23.156  1.00  0.00     0.037 C 
HETATM   18  C14 UNL     1       3.713  -7.124  22.157  1.00  0.00     0.037 C 
HETATM   19  C15 UNL     1       5.849  -7.506  20.960  1.00  0.00     0.037 C 
ENDBRANCH  14  16
ENDBRANCH  10  12
ENDBRANCH   9  10
ENDBRANCH   1   9
BRANCH   6  20
HETATM   20  C6  UNL     1       6.032   2.949  20.307  1.00  0.00     0.125 C 
BRANCH  20  21
HETATM   21  C7  UNL     1       5.987   2.748  18.813  1.00  0.00     0.056 A 
HETATM   22  N2  UNL     1       5.158   3.324  17.955  1.00  0.00    -0.363 N 
HETATM   23  C8  UNL     1       5.245   3.046  16.694  1.00  0.00     0.095 A 
ATOM     24  H2  UNL     1       4.454   3.985  18.286  1.00  0.00     0.165 HD
HETATM   25  C9  UNL     1       6.209   2.153  16.302  1.00  0.00     0.068 A 
HETATM   26  S2  UNL     1       6.939   1.765  17.797  1.00  0.00    -0.087 SA
ENDBRANCH  20  21
ENDBRANCH   6  20
TORSDOF 6
ENDMDL
MODEL 3
REMARK VINA RESULT: -6.871077995      1.062      1.230
REMARK  6 active torsions:
REMARK  status: ('A' for Active; 'I' for Inactive)
REMARK    1  A    between atoms: C2_2  and  S1_3 
REMARK    2  A    between atoms: C2_2  and  C11_19 
REMARK    3  A    between atoms: S1_3  and  C3_4 
REMARK    4  A    between atoms: C5_9  and  C6_10 
REMARK    5  A    between atoms: C6_10  and  C7_11 
REMARK       I    between atoms: C11_19  and  N4_21 
REMARK    6  A    between atoms: N4_21  and  C12_23 
ROOT
HETATM    1  C3  UNL     1       4.610  -2.314  22.076  1.00  0.00     0.148 A 
HETATM    2  N1  UNL     1       4.354  -1.733  23.269  1.00  0.00    -0.326 N 
ATOM      3  H1  UNL     1       4.349  -2.207  24.172  1.00  0.00     0.169 HD
HETATM    4  C4  UNL     1       4.104  -0.416  23.066  1.00  0.00     0.128 A 
HETATM    5 CL1  UNL     1       3.720   0.749  24.316  1.00  0.00    -0.062 Cl
HETATM    6  C5  UNL     1       4.207  -0.173  21.712  1.00  0.00     0.058 A 
HETATM    7  N3  UNL     1       4.516  -1.349  21.140  1.00  0.00    -0.332 N 
HETATM    8  C10 UNL     1       4.712  -1.516  19.723  1.00  0.00     0.158 C 
ENDROOT
BRANCH   1   9
HETATM    9  S1  UNL     1       5.000  -4.020  21.741  1.00  0.00    -0.080 SA
BRANCH   9  10
HETATM   10  C2  UNL     1       4.433  -5.095  23.093  1.00  0.00     0.143 C 
HETATM   11  C1  UNL     1       3.100  -5.712  22.663  1.00  0.00     0.031 C 
BRANCH  10  12
HETATM   12  C11 UNL     1       5.376  -6.251  23.243  1.00  0.00     0.232 C 
HETATM   13  O1  UNL     1       6.508  -6.031  23.702  1.00  0.00    -0.272 OA
HETATM   14  N4  UNL     1       5.002  -7.568  22.873  1.00  0.00    -0.352 N 
ATOM     15  H4  UNL     1       4.075  -7.758  22.492  1.00  0.00     0.163 HD
BRANCH  14  16
HETATM   16  C12 UNL     1       5.962  -8.635  23.046  1.00  0.00     0.022 C 
HETATM   17  C13 UNL     1       7.346  -8.234  22.591  1.00  0.00     0.037 C 
HETATM   18  C14 UNL     1       6.008  -9.028  24.496  1.00  0.00     0.037 C 
HETATM   19  C15 UNL     1       5.564  -9.841  22.198  1.00  0.00     0.037 C 
ENDBRANCH  14  16
ENDBRANCH  10  12
ENDBRANCH   9  10
ENDBRANCH   1   9
BRANCH   6  20
HETATM   20  C6  UNL     1       4.013   1.121  21.056  1.00  0.00     0.125 C 
BRANCH  20  21
HETATM   21  C7  UNL     1       5.309   1.872  20.879  1.00  0.00     0.056 A 
HETATM   22  N2  UNL     1       5.460   3.113  20.441  1.00  0.00    -0.363 N 
HETATM   23  C8  UNL     1       6.648   3.619  20.345  1.00  0.00     0.095 A 
ATOM     24  H2  UNL     1       4.645   3.668  20.181  1.00  0.00     0.165 HD
HETATM   25  C9  UNL     1       7.710   2.831  20.709  1.00  0.00     0.068 A 
HETATM   26  S2  UNL     1       6.918   1.389  21.173  1.00  0.00    -0.087 SA
ENDBRANCH  20  21
ENDBRANCH   6  20
TORSDOF 6
ENDMDL
MODEL 4
REMARK VINA RESULT: -6.866552455      5.116      7.088
REMARK  6 active torsions:
REMARK  status: ('A' for Active; 'I' for Inactive)
REMARK    1  A    between atoms: C2_2  and  S1_3 
REMARK    2  A    between atoms: C2_2  and  C11_19 
REMARK    3  A    between atoms: S1_3  and  C3_4 
REMARK    4  A    between atoms: C5_9  and  C6_10 
REMARK    5  A    between atoms: C6_10  and  C7_11 
REMARK       I    between atoms: C11_19  and  N4_21 
REMARK    6  A    between atoms: N4_21  and  C12_23 
ROOT
HETATM    1  C3  UNL     1       6.551   0.286  20.524  1.00  0.00     0.148 A 
HETATM    2  N1  UNL     1       6.134  -0.974  20.773  1.00  0.00    -0.326 N 
ATOM      3  H1  UNL     1       6.691  -1.820  20.647  1.00  0.00     0.169 HD
HETATM    4  C4  UNL     1       4.854  -0.929  21.218  1.00  0.00     0.128 A 
HETATM    5 CL1  UNL     1       3.887  -2.317  21.671  1.00  0.00    -0.062 Cl
HETATM    6  C5  UNL     1       4.466   0.394  21.245  1.00  0.00     0.058 A 
HETATM    7  N3  UNL     1       5.522   1.106  20.816  1.00  0.00    -0.332 N 
HETATM    8  C10 UNL     1       5.518   2.542  20.700  1.00  0.00     0.158 C 
ENDROOT
BRANCH   1   9
HETATM    9  S1  UNL     1       8.139   0.825  19.921  1.00  0.00    -0.080 SA
BRANCH   9  10
HETATM   10  C2  UNL     1       8.212   0.734  18.107  1.00  0.00     0.143 C 
HETATM   11  C1  UNL     1       8.352  -0.741  17.724  1.00  0.00     0.031 C 
BRANCH  10  12
HETATM   12  C11 UNL     1       6.898   1.171  17.531  1.00  0.00     0.232 C 
HETATM   13  O1  UNL     1       6.702   2.385  17.367  1.00  0.00    -0.272 OA
HETATM   14  N4  UNL     1       5.893   0.235  17.177  1.00  0.00    -0.352 N 
ATOM     15  H4  UNL     1       6.044  -0.765  17.310  1.00  0.00     0.163 HD
BRANCH  14  16
HETATM   16  C12 UNL     1       4.651   0.727  16.625  1.00  0.00     0.022 C 
HETATM   17  C13 UNL     1       3.888   1.580  17.613  1.00  0.00     0.037 C 
HETATM   18  C14 UNL     1       4.943   1.534  15.391  1.00  0.00     0.037 C 
HETATM   19  C15 UNL     1       3.735  -0.443  16.272  1.00  0.00     0.037 C 
ENDBRANCH  14  16
ENDBRANCH  10  12
ENDBRANCH   9  10
ENDBRANCH   1   9
BRANCH   6  20
HETATM   20  C6  UNL     1       3.156   0.895  21.663  1.00  0.00     0.125 C 
BRANCH  20  21
HETATM   21  C7  UNL     1       3.069   1.090  23.156  1.00  0.00     0.056 A 
HETATM   22  N2  UNL     1       2.356   2.002  23.801  1.00  0.00    -0.363 N 
HETATM   23  C8  UNL     1       2.388   2.042  25.095  1.00  0.00     0.095 A 
ATOM     24  H2  UNL     1       1.786   2.669  23.282  1.00  0.00     0.165 HD
HETATM   25  C9  UNL     1       3.170   1.121  25.744  1.00  0.00     0.068 A 
HETATM   26  S2  UNL     1       3.821   0.244  24.430  1.00  0.00    -0.087 SA
ENDBRANCH  20  21
ENDBRANCH   6  20
TORSDOF 6
ENDMDL
MODEL 5
REMARK VINA RESULT: -6.812044150      5.652      7.861
REMARK  6 active torsions:
REMARK  status: ('A' for Active; 'I' for Inactive)
REMARK    1  A    between atoms: C2_2  and  S1_3 
REMARK    2  A    between atoms: C2_2  and  C11_19 
REMARK    3  A    between atoms: S1_3  and  C3_4 
REMARK    4  A    between atoms: C5_9  and  C6_10 
REMARK    5  A    between atoms: C6_10  and  C7_11 
REMARK       I    between atoms: C11_19  and  N4_21 
REMARK    6  A    between atoms: N4_21  and  C12_23 
ROOT
HETATM    1  C3  UNL     1       4.447   1.434  20.010  1.00  0.00     0.148 A 
HETATM    2  N1  UNL     1       3.497   0.753  19.333  1.00  0.00    -0.326 N 
ATOM      3  H1  UNL     1       2.828   0.100  19.743  1.00  0.00     0.169 HD
HETATM    4  C4  UNL     1       3.580   1.080  18.020  1.00  0.00     0.128 A 
HETATM    5 CL1  UNL     1       2.553   0.450  16.750  1.00  0.00    -0.062 Cl
HETATM    6  C5  UNL     1       4.608   1.988  17.878  1.00  0.00     0.058 A 
HETATM    7  N3  UNL     1       5.114   2.181  19.108  1.00  0.00    -0.332 N 
HETATM    8  C10 UNL     1       6.214   3.069  19.384  1.00  0.00     0.158 C 
ENDROOT
BRANCH   1   9
HETATM    9  S1  UNL     1       4.801   1.394  21.756  1.00  0.00    -0.080 SA
BRANCH   9  10
HETATM   10  C2  UNL     1       3.551   0.424  22.651  1.00  0.00     0.143 C 
HETATM   11  C1  UNL     1       4.278  -0.722  23.359  1.00  0.00     0.031 C 
BRANCH  10  12
HETATM   12  C11 UNL     1       2.961   1.258  23.748  1.00  0.00     0.232 C 
HETATM   13  O1  UNL     1       2.204   2.191  23.436  1.00  0.00    -0.272 OA
HETATM   14  N4  UNL     1       3.249   1.004  25.113  1.00  0.00    -0.352 N 
ATOM     15  H4  UNL     1       3.871   0.241  25.380  1.00  0.00     0.163 HD
BRANCH  14  16
HETATM   16  C12 UNL     1       2.643   1.848  26.118  1.00  0.00     0.022 C 
HETATM   17  C13 UNL     1       1.446   2.600  25.583  1.00  0.00     0.037 C 
HETATM   18  C14 UNL     1       2.218   1.000  27.285  1.00  0.00     0.037 C 
HETATM   19  C15 UNL     1       3.640   2.906  26.586  1.00  0.00     0.037 C 
ENDBRANCH  14  16
ENDBRANCH  10  12
ENDBRANCH   9  10
ENDBRANCH   1   9
BRANCH   6  20
HETATM   20  C6  UNL     1       5.041   2.604  16.623  1.00  0.00     0.125 C 
BRANCH  20  21
HETATM   21  C7  UNL     1       6.078   1.774  15.908  1.00  0.00     0.056 A 
HETATM   22  N2  UNL     1       7.386   1.987  15.874  1.00  0.00    -0.363 N 
HETATM   23  C8  UNL     1       8.149   1.179  15.211  1.00  0.00     0.095 A 
ATOM     24  H2  UNL     1       7.789   2.784  16.367  1.00  0.00     0.165 HD
HETATM   25  C9  UNL     1       7.557   0.123  14.568  1.00  0.00     0.068 A 
HETATM   26  S2  UNL     1       5.912   0.366  14.962  1.00  0.00    -0.087 SA
ENDBRANCH  20  21
ENDBRANCH   6  20
TORSDOF 6
ENDMDL
