MODEL 1
REMARK VINA RESULT: -4.406308248      0.000      0.000
REMARK  3 active torsions:
REMARK  status: ('A' for Active; 'I' for Inactive)
REMARK    1  A    between atoms: C2_2  and  N1_3 
REMARK    2  A    between atoms: C2_2  and  C3_7 
REMARK       I    between atoms: C3_7  and  N2_9 
REMARK    3  A    between atoms: N2_9  and  C4_11 
ROOT
HETATM    1  C3  UNL     1     -12.589  37.386  97.359  1.00  0.00     0.248 C 
HETATM    2  O1  UNL     1     -12.396  37.167  98.583  1.00  0.00    -0.271 OA
HETATM    3  N2  UNL     1     -13.623  36.697  96.682  1.00  0.00    -0.355 N 
ATOM      4  H2  UNL     1     -13.774  36.877  95.690  1.00  0.00     0.162 HD
ENDROOT
BRANCH   1   5
HETATM    5  C2  UNL     1     -11.708  38.368  96.677  1.00  0.00     0.270 C 
HETATM    6  C1  UNL     1     -10.469  37.716  96.111  1.00  0.00     0.050 C 
BRANCH   5   7
HETATM    7  N1  UNL     1     -12.456  38.908  95.558  1.00  0.00    -0.067 N 
ATOM      8  H13 UNL     1     -11.860  39.212  94.789  1.00  0.00     0.275 HD
ATOM      9  H12 UNL     1     -12.979  38.198  95.046  1.00  0.00     0.275 HD
ATOM     10  H11 UNL     1     -13.048  39.653  95.925  1.00  0.00     0.275 HD
ENDBRANCH   5   7
ENDBRANCH   1   5
BRANCH   3  11
HETATM   11  C4  UNL     1     -14.470  35.744  97.364  1.00  0.00     0.084 C 
HETATM   12  C5  UNL     1     -13.861  34.364  97.513  1.00  0.00     0.025 C 
HETATM   13  C6  UNL     1     -14.464  34.024  96.156  1.00  0.00     0.004 C 
HETATM   14  C7  UNL     1     -15.499  35.115  96.434  1.00  0.00     0.025 C 
ENDBRANCH   3  11
TORSDOF 3
ENDMDL
MODEL 2
REMARK VINA RESULT: -4.351805771      2.427      4.583
REMARK  3 active torsions:
REMARK  status: ('A' for Active; 'I' for Inactive)
REMARK    1  A    between atoms: C2_2  and  N1_3 
REMARK    2  A    between atoms: C2_2  and  C3_7 
REMARK       I    between atoms: C3_7  and  N2_9 
REMARK    3  A    between atoms: N2_9  and  C4_11 
ROOT
HETATM    1  C3  UNL     1     -14.530  34.248  95.978  1.00  0.00     0.248 C 
HETATM    2  O1  UNL     1     -13.496  33.660  95.570  1.00  0.00    -0.271 OA
HETATM    3  N2  UNL     1     -14.411  35.294  96.923  1.00  0.00    -0.355 N 
ATOM      4  H2  UNL     1     -15.253  35.767  97.252  1.00  0.00     0.162 HD
ENDROOT
BRANCH   1   5
HETATM    5  C2  UNL     1     -15.843  33.808  95.442  1.00  0.00     0.270 C 
HETATM    6  C1  UNL     1     -16.864  34.920  95.467  1.00  0.00     0.050 C 
BRANCH   5   7
HETATM    7  N1  UNL     1     -15.638  33.447  94.052  1.00  0.00    -0.067 N 
ATOM      8  H13 UNL     1     -16.447  32.987  93.635  1.00  0.00     0.275 HD
ATOM      9  H12 UNL     1     -15.611  34.254  93.429  1.00  0.00     0.275 HD
ATOM     10  H11 UNL     1     -14.790  32.882  94.010  1.00  0.00     0.275 HD
ENDBRANCH   5   7
ENDBRANCH   1   5
BRANCH   3  11
HETATM   11  C4  UNL     1     -13.124  35.709  97.435  1.00  0.00     0.084 C 
HETATM   12  C5  UNL     1     -13.197  36.695  98.583  1.00  0.00     0.025 C 
HETATM   13  C6  UNL     1     -13.210  37.806  97.540  1.00  0.00     0.004 C 
HETATM   14  C7  UNL     1     -12.503  36.825  96.604  1.00  0.00     0.025 C 
ENDBRANCH   3  11
TORSDOF 3
ENDMDL
MODEL 3
REMARK VINA RESULT: -4.243839669      1.971      4.281
REMARK  3 active torsions:
REMARK  status: ('A' for Active; 'I' for Inactive)
REMARK    1  A    between atoms: C2_2  and  N1_3 
REMARK    2  A    between atoms: C2_2  and  C3_7 
REMARK       I    between atoms: C3_7  and  N2_9 
REMARK    3  A    between atoms: N2_9  and  C4_11 
ROOT
HETATM    1  C3  UNL     1     -13.108  35.758  97.553  1.00  0.00     0.248 C 
HETATM    2  O1  UNL     1     -11.864  35.576  97.591  1.00  0.00    -0.271 OA
HETATM    3  N2  UNL     1     -13.632  37.048  97.806  1.00  0.00    -0.355 N 
ATOM      4  H2  UNL     1     -14.641  37.190  97.775  1.00  0.00     0.162 HD
ENDROOT
BRANCH   1   5
HETATM    5  C2  UNL     1     -13.976  34.594  97.241  1.00  0.00     0.270 C 
HETATM    6  C1  UNL     1     -15.306  35.021  96.665  1.00  0.00     0.050 C 
BRANCH   5   7
HETATM    7  N1  UNL     1     -13.299  33.816  96.221  1.00  0.00    -0.067 N 
ATOM      8  H13 UNL     1     -13.840  33.011  95.908  1.00  0.00     0.275 HD
ATOM      9  H12 UNL     1     -13.246  34.295  95.322  1.00  0.00     0.275 HD
ATOM     10  H11 UNL     1     -12.384  33.564  96.594  1.00  0.00     0.275 HD
ENDBRANCH   5   7
ENDBRANCH   1   5
BRANCH   3  11
HETATM   11  C4  UNL     1     -12.771  38.169  98.108  1.00  0.00     0.084 C 
HETATM   12  C5  UNL     1     -12.626  38.463  99.588  1.00  0.00     0.025 C 
HETATM   13  C6  UNL     1     -13.852  39.359  99.461  1.00  0.00     0.004 C 
HETATM   14  C7  UNL     1     -13.491  39.504  97.981  1.00  0.00     0.025 C 
ENDBRANCH   3  11
TORSDOF 3
ENDMDL
MODEL 4
REMARK VINA RESULT: -4.166684810      2.201      4.584
REMARK  3 active torsions:
REMARK  status: ('A' for Active; 'I' for Inactive)
REMARK    1  A    between atoms: C2_2  and  N1_3 
REMARK    2  A    between atoms: C2_2  and  C3_7 
REMARK       I    between atoms: C3_7  and  N2_9 
REMARK    3  A    between atoms: N2_9  and  C4_11 
ROOT
HETATM    1  C3  UNL     1     -15.153  35.834  96.340  1.00  0.00     0.248 C 
HETATM    2  O1  UNL     1     -15.958  36.449  95.595  1.00  0.00    -0.271 OA
HETATM    3  N2  UNL     1     -14.178  36.561  97.064  1.00  0.00    -0.355 N 
ATOM      4  H2  UNL     1     -13.527  36.057  97.666  1.00  0.00     0.162 HD
ENDROOT
BRANCH   1   5
HETATM    5  C2  UNL     1     -15.268  34.356  96.424  1.00  0.00     0.270 C 
HETATM    6  C1  UNL     1     -16.133  33.794  95.322  1.00  0.00     0.050 C 
BRANCH   5   7
HETATM    7  N1  UNL     1     -13.935  33.812  96.240  1.00  0.00    -0.067 N 
ATOM      8  H13 UNL     1     -13.622  33.842  95.271  1.00  0.00     0.275 HD
ATOM      9  H12 UNL     1     -13.204  34.404  96.633  1.00  0.00     0.275 HD
ATOM     10  H11 UNL     1     -13.939  32.870  96.631  1.00  0.00     0.275 HD
ENDBRANCH   5   7
ENDBRANCH   1   5
BRANCH   3  11
HETATM   11  C4  UNL     1     -14.083  38.000  96.969  1.00  0.00     0.084 C 
HETATM   12  C5  UNL     1     -12.802  38.500  96.331  1.00  0.00     0.025 C 
HETATM   13  C6  UNL     1     -12.183  38.488  97.722  1.00  0.00     0.004 C 
HETATM   14  C7  UNL     1     -13.604  38.636  98.267  1.00  0.00     0.025 C 
ENDBRANCH   3  11
TORSDOF 3
ENDMDL
MODEL 5
REMARK VINA RESULT: -4.162830817      1.757      4.266
REMARK  3 active torsions:
REMARK  status: ('A' for Active; 'I' for Inactive)
REMARK    1  A    between atoms: C2_2  and  N1_3 
REMARK    2  A    between atoms: C2_2  and  C3_7 
REMARK       I    between atoms: C3_7  and  N2_9 
REMARK    3  A    between atoms: N2_9  and  C4_11 
ROOT
HETATM    1  C3  UNL     1     -13.152  35.812  97.606  1.00  0.00     0.248 C 
HETATM    2  O1  UNL     1     -11.911  35.642  97.716  1.00  0.00    -0.271 OA
HETATM    3  N2  UNL     1     -13.695  37.109  97.768  1.00  0.00    -0.355 N 
ATOM      4  H2  UNL     1     -14.702  37.242  97.679  1.00  0.00     0.162 HD
ENDROOT
BRANCH   1   5
HETATM    5  C2  UNL     1     -13.997  34.628  97.309  1.00  0.00     0.270 C 
HETATM    6  C1  UNL     1     -15.330  35.021  96.718  1.00  0.00     0.050 C 
BRANCH   5   7
HETATM    7  N1  UNL     1     -13.300  33.845  96.307  1.00  0.00    -0.067 N 
ATOM      8  H13 UNL     1     -13.229  34.320  95.407  1.00  0.00     0.275 HD
ATOM      9  H12 UNL     1     -12.300  33.760  96.489  1.00  0.00     0.275 HD
ATOM     10  H11 UNL     1     -13.773  32.944  96.247  1.00  0.00     0.275 HD
ENDBRANCH   5   7
ENDBRANCH   1   5
BRANCH   3  11
HETATM   11  C4  UNL     1     -12.855  38.250  98.057  1.00  0.00     0.084 C 
HETATM   12  C5  UNL     1     -13.610  39.476  98.530  1.00  0.00     0.025 C 
HETATM   13  C6  UNL     1     -13.752  39.872  97.066  1.00  0.00     0.004 C 
HETATM   14  C7  UNL     1     -12.497  39.038  96.803  1.00  0.00     0.025 C 
ENDBRANCH   3  11
TORSDOF 3
ENDMDL
