MODEL 1
REMARK VINA RESULT: -3.774264711      0.000      0.000
REMARK  1 active torsions:
REMARK  status: ('A' for Active; 'I' for Inactive)
REMARK    1  A    between atoms: S1_2  and  N1_4 
REMARK       I    between atoms: N1_4  and  C3_6 
ROOT
HETATM    1  N1  UNL     1      16.230  24.489  10.093  1.00  0.00    -0.295 N 
ATOM      2  H1  UNL     1      16.985  24.376  10.769  1.00  0.00     0.177 HD
HETATM    3  C3  UNL     1      16.540  24.325   8.699  1.00  0.00     0.338 C 
HETATM    4  N2  UNL     1      17.880  24.018   8.281  1.00  0.00    -0.039 NA
HETATM    5  O1  UNL     1      15.636  24.454   7.846  1.00  0.00    -0.250 OA
ENDROOT
BRANCH   1   6
HETATM    6  S1  UNL     1      14.716  24.854  10.668  1.00  0.00    -0.132 SA
HETATM    7  C1  UNL     1      14.345  26.381  11.316  1.00  0.00     0.101 C 
HETATM    8  C2  UNL     1      13.616  23.549  10.953  1.00  0.00     0.101 C 
ENDBRANCH   1   6
TORSDOF 1
ENDMDL
MODEL 2
REMARK VINA RESULT: -3.634896163      0.179      1.583
REMARK  1 active torsions:
REMARK  status: ('A' for Active; 'I' for Inactive)
REMARK    1  A    between atoms: S1_2  and  N1_4 
REMARK       I    between atoms: N1_4  and  C3_6 
ROOT
HETATM    1  N1  UNL     1      16.259  24.359  10.227  1.00  0.00    -0.295 N 
ATOM      2  H1  UNL     1      17.053  24.206  10.849  1.00  0.00     0.177 HD
HETATM    3  C3  UNL     1      16.486  24.284   8.809  1.00  0.00     0.338 C 
HETATM    4  N2  UNL     1      17.799  24.009   8.295  1.00  0.00    -0.039 NA
HETATM    5  O1  UNL     1      15.533  24.463   8.021  1.00  0.00    -0.250 OA
ENDROOT
BRANCH   1   6
HETATM    6  S1  UNL     1      14.781  24.682  10.912  1.00  0.00    -0.132 SA
HETATM    7  C1  UNL     1      13.565  23.500  11.020  1.00  0.00     0.101 C 
HETATM    8  C2  UNL     1      14.349  26.336  11.177  1.00  0.00     0.101 C 
ENDBRANCH   1   6
TORSDOF 1
ENDMDL
MODEL 3
REMARK VINA RESULT: -3.613911494      2.405      2.781
REMARK  1 active torsions:
REMARK  status: ('A' for Active; 'I' for Inactive)
REMARK    1  A    between atoms: S1_2  and  N1_4 
REMARK       I    between atoms: N1_4  and  C3_6 
ROOT
HETATM    1  N1  UNL     1      14.733  25.882  10.871  1.00  0.00    -0.295 N 
ATOM      2  H1  UNL     1      15.460  26.512  10.531  1.00  0.00     0.177 HD
HETATM    3  C3  UNL     1      14.466  24.688  10.115  1.00  0.00     0.338 C 
HETATM    4  N2  UNL     1      15.203  24.404   8.915  1.00  0.00    -0.039 NA
HETATM    5  O1  UNL     1      13.584  23.894  10.507  1.00  0.00    -0.250 OA
ENDROOT
BRANCH   1   6
HETATM    6  S1  UNL     1      13.927  26.297  12.262  1.00  0.00    -0.132 SA
HETATM    7  C1  UNL     1      12.754  27.526  12.287  1.00  0.00     0.101 C 
HETATM    8  C2  UNL     1      14.558  25.728  13.769  1.00  0.00     0.101 C 
ENDBRANCH   1   6
TORSDOF 1
ENDMDL
MODEL 4
REMARK VINA RESULT: -3.555068139      3.468      4.283
REMARK  1 active torsions:
REMARK  status: ('A' for Active; 'I' for Inactive)
REMARK    1  A    between atoms: S1_2  and  N1_4 
REMARK       I    between atoms: N1_4  and  C3_6 
ROOT
HETATM    1  N1  UNL     1      12.526  25.551  12.293  1.00  0.00    -0.295 N 
ATOM      2  H1  UNL     1      11.789  24.867  12.464  1.00  0.00     0.177 HD
HETATM    3  C3  UNL     1      13.568  25.205  11.365  1.00  0.00     0.338 C 
HETATM    4  N2  UNL     1      13.566  23.926  10.710  1.00  0.00    -0.039 NA
HETATM    5  O1  UNL     1      14.483  26.023  11.131  1.00  0.00    -0.250 OA
ENDROOT
BRANCH   1   6
HETATM    6  S1  UNL     1      12.451  26.999  13.104  1.00  0.00    -0.132 SA
HETATM    7  C1  UNL     1      12.023  28.445  12.320  1.00  0.00     0.101 C 
HETATM    8  C2  UNL     1      13.177  27.093  14.671  1.00  0.00     0.101 C 
ENDBRANCH   1   6
TORSDOF 1
ENDMDL
MODEL 5
REMARK VINA RESULT: -3.554140123      2.374      3.878
REMARK  1 active torsions:
REMARK  status: ('A' for Active; 'I' for Inactive)
REMARK    1  A    between atoms: S1_2  and  N1_4 
REMARK       I    between atoms: N1_4  and  C3_6 
ROOT
HETATM    1  N1  UNL     1      15.829  24.825  11.015  1.00  0.00    -0.295 N 
ATOM      2  H1  UNL     1      16.764  24.924  11.411  1.00  0.00     0.177 HD
HETATM    3  C3  UNL     1      14.718  25.345  11.765  1.00  0.00     0.338 C 
HETATM    4  N2  UNL     1      14.930  25.977  13.038  1.00  0.00    -0.039 NA
HETATM    5  O1  UNL     1      13.561  25.243  11.305  1.00  0.00    -0.250 OA
ENDROOT
BRANCH   1   6
HETATM    6  S1  UNL     1      15.681  24.071   9.543  1.00  0.00    -0.132 SA
HETATM    7  C1  UNL     1      14.639  22.749   9.313  1.00  0.00     0.101 C 
HETATM    8  C2  UNL     1      16.876  24.400   8.336  1.00  0.00     0.101 C 
ENDBRANCH   1   6
TORSDOF 1
ENDMDL
