MODEL 1
REMARK VINA RESULT: -9.349051055      0.000      0.000
REMARK  13 active torsions:
REMARK  status: ('A' for Active; 'I' for Inactive)
REMARK    1  A    between atoms: C2_2  and  C3_3 
REMARK    2  A    between atoms: C4_6  and  N2_7 
REMARK    3  A    between atoms: N2_7  and  C5_9 
REMARK    4  A    between atoms: C5_9  and  C6_10 
REMARK    5  A    between atoms: C6_10  and  N3_11 
REMARK    6  A    between atoms: C11_19  and  N5_20 
REMARK    7  A    between atoms: N5_20  and  C12_22 
REMARK    8  A    between atoms: C20_31  and  N7_32 
REMARK    9  A    between atoms: N7_32  and  C21_34 
REMARK   10  A    between atoms: C21_34  and  C22_35 
REMARK   11  A    between atoms: C22_35  and  C23_36 
REMARK   12  A    between atoms: C26_39  and  O2_40 
REMARK   13  A    between atoms: C28_42  and  O3_43 
ROOT
HETATM    1  C3  UNL     1      14.129  63.321  17.010  1.00  0.00     0.056 A 
HETATM    2  N1  UNL     1      14.769  64.153  17.880  1.00  0.00    -0.193 N 
ATOM      3  H1  UNL     1      15.604  64.660  17.590  1.00  0.00     0.184 HD
HETATM    4  C4  UNL     1      14.285  64.297  19.121  1.00  0.00     0.680 A 
HETATM    5  N4  UNL     1      13.174  63.615  19.488  1.00  0.00    -0.175 N 
ATOM      6  H4  UNL     1      12.822  63.738  20.437  1.00  0.00     0.186 HD
HETATM    7  C11 UNL     1      12.521  62.795  18.675  1.00  0.00     0.146 A 
HETATM    8  C20 UNL     1      13.008  62.624  17.365  1.00  0.00     0.096 A 
ENDROOT
BRANCH   8   9
HETATM    9  N7  UNL     1      12.370  61.753  16.465  1.00  0.00    -0.385 N 
ATOM     10  H7  UNL     1      12.570  60.760  16.586  1.00  0.00     0.159 HD
BRANCH   9  11
HETATM   11  C21 UNL     1      11.481  62.086  15.406  1.00  0.00     0.124 C 
BRANCH  11  12
HETATM   12  C22 UNL     1      10.022  62.000  15.732  1.00  0.00     0.058 C 
BRANCH  12  13
HETATM   13  C23 UNL     1       9.437  60.648  15.589  1.00  0.00    -0.054 A 
HETATM   14  C24 UNL     1       9.217  60.028  14.378  1.00  0.00     0.010 A 
HETATM   15  C25 UNL     1       8.663  58.768  14.290  1.00  0.00     0.040 A 
HETATM   16  C26 UNL     1       8.294  58.048  15.408  1.00  0.00     0.101 A 
HETATM   17  C28 UNL     1       8.508  58.656  16.634  1.00  0.00     0.102 A 
HETATM   18  C30 UNL     1       9.061  59.915  16.722  1.00  0.00     0.046 A 
BRANCH  16  19
HETATM   19  O2  UNL     1       7.737  56.779  15.327  1.00  0.00    -0.353 OA
HETATM   20  C27 UNL     1       6.378  56.641  14.954  1.00  0.00     0.210 C 
ENDBRANCH  16  19
BRANCH  17  21
HETATM   21  O3  UNL     1       8.129  57.918  17.751  1.00  0.00    -0.353 OA
HETATM   22  C29 UNL     1       7.491  58.532  18.846  1.00  0.00     0.210 C 
ENDBRANCH  17  21
ENDBRANCH  12  13
ENDBRANCH  11  12
ENDBRANCH   9  11
ENDBRANCH   8   9
BRANCH   1  23
HETATM   23  C2  UNL     1      14.726  63.239  15.671  1.00  0.00     0.055 C 
HETATM   24  C1  UNL     1      14.333  64.376  14.766  1.00  0.00     0.011 C 
ENDBRANCH   1  23
BRANCH   7  25
HETATM   25  N5  UNL     1      11.475  62.129  18.963  1.00  0.00    -0.367 N 
ATOM     26  H5  UNL     1      11.240  61.367  18.326  1.00  0.00     0.161 HD
BRANCH  25  27
HETATM   27  C12 UNL     1      10.592  62.315  20.066  1.00  0.00     0.118 C 
HETATM   28  C13 UNL     1       9.894  61.037  20.508  1.00  0.00     0.068 C 
HETATM   29  C14 UNL     1       8.799  61.637  21.402  1.00  0.00     0.154 C 
HETATM   30  C15 UNL     1       9.417  62.121  22.714  1.00  0.00     0.049 C 
HETATM   31  C16 UNL     1       7.758  60.615  21.747  1.00  0.00     0.049 C 
HETATM   32  N6  UNL     1       8.327  62.727  20.611  1.00  0.00     0.099 N 
HETATM   33  C17 UNL     1       7.143  62.468  19.854  1.00  0.00     0.311 C 
HETATM   34  C18 UNL     1       9.381  63.179  19.745  1.00  0.00     0.242 C 
HETATM   35  C19 UNL     1       9.707  64.638  19.953  1.00  0.00     0.045 C 
ENDBRANCH  25  27
ENDBRANCH   7  25
BRANCH   4  36
HETATM   36  N2  UNL     1      14.885  65.086  19.964  1.00  0.00    -0.224 N 
ATOM     37  H2  UNL     1      15.294  64.691  20.811  1.00  0.00     0.177 HD
BRANCH  36  38
HETATM   38  C5  UNL     1      14.985  66.504  19.727  1.00  0.00     0.168 C 
BRANCH  38  39
HETATM   39  C6  UNL     1      16.334  67.060  20.038  1.00  0.00     0.292 C 
BRANCH  39  40
HETATM   40  N3  UNL     1      16.871  67.740  18.904  1.00  0.00     0.094 N 
HETATM   41  C7  UNL     1      18.166  68.310  19.069  1.00  0.00     0.298 C 
HETATM   42  C8  UNL     1      18.637  68.782  17.696  1.00  0.00     0.198 C 
HETATM   43  O1  UNL     1      18.877  67.724  16.840  1.00  0.00    -0.388 OA
HETATM   44  C9  UNL     1      18.148  66.585  17.141  1.00  0.00     0.198 C 
HETATM   45  C10 UNL     1      16.802  66.944  17.720  1.00  0.00     0.298 C 
ENDBRANCH  39  40
ENDBRANCH  38  39
ENDBRANCH  36  38
ENDBRANCH   4  36
TORSDOF 13
ENDMDL
MODEL 2
REMARK VINA RESULT: -9.331096165      1.498      9.096
REMARK  13 active torsions:
REMARK  status: ('A' for Active; 'I' for Inactive)
REMARK    1  A    between atoms: C2_2  and  C3_3 
REMARK    2  A    between atoms: C4_6  and  N2_7 
REMARK    3  A    between atoms: N2_7  and  C5_9 
REMARK    4  A    between atoms: C5_9  and  C6_10 
REMARK    5  A    between atoms: C6_10  and  N3_11 
REMARK    6  A    between atoms: C11_19  and  N5_20 
REMARK    7  A    between atoms: N5_20  and  C12_22 
REMARK    8  A    between atoms: C20_31  and  N7_32 
REMARK    9  A    between atoms: N7_32  and  C21_34 
REMARK   10  A    between atoms: C21_34  and  C22_35 
REMARK   11  A    between atoms: C22_35  and  C23_36 
REMARK   12  A    between atoms: C26_39  and  O2_40 
REMARK   13  A    between atoms: C28_42  and  O3_43 
ROOT
HETATM    1  C3  UNL     1      13.289  62.427  16.699  1.00  0.00     0.056 A 
HETATM    2  N1  UNL     1      12.528  61.692  15.838  1.00  0.00    -0.193 N 
ATOM      3  H1  UNL     1      12.710  61.720  14.836  1.00  0.00     0.184 HD
HETATM    4  C4  UNL     1      11.538  60.934  16.327  1.00  0.00     0.680 A 
HETATM    5  N4  UNL     1      11.311  60.911  17.662  1.00  0.00    -0.175 N 
ATOM      6  H4  UNL     1      10.552  60.328  18.014  1.00  0.00     0.186 HD
HETATM    7  C11 UNL     1      12.026  61.610  18.535  1.00  0.00     0.146 A 
HETATM    8  C20 UNL     1      13.073  62.416  18.048  1.00  0.00     0.096 A 
ENDROOT
BRANCH   8   9
HETATM    9  N7  UNL     1      13.851  63.194  18.922  1.00  0.00    -0.385 N 
ATOM     10  H7  UNL     1      14.755  62.800  19.187  1.00  0.00     0.159 HD
BRANCH   9  11
HETATM   11  C21 UNL     1      13.536  64.462  19.483  1.00  0.00     0.124 C 
BRANCH  11  12
HETATM   12  C22 UNL     1      13.406  65.589  18.506  1.00  0.00     0.058 C 
BRANCH  12  13
HETATM   13  C23 UNL     1      14.525  66.558  18.529  1.00  0.00    -0.054 A 
HETATM   14  C24 UNL     1      14.364  67.916  18.690  1.00  0.00     0.010 A 
HETATM   15  C25 UNL     1      15.436  68.785  18.700  1.00  0.00     0.040 A 
HETATM   16  C26 UNL     1      16.736  68.349  18.549  1.00  0.00     0.101 A 
HETATM   17  C28 UNL     1      16.916  66.986  18.386  1.00  0.00     0.102 A 
HETATM   18  C30 UNL     1      15.845  66.118  18.375  1.00  0.00     0.046 A 
BRANCH  16  19
HETATM   19  O2  UNL     1      17.819  69.217  18.559  1.00  0.00    -0.353 OA
HETATM   20  C27 UNL     1      18.154  69.922  17.377  1.00  0.00     0.210 C 
ENDBRANCH  16  19
BRANCH  17  21
HETATM   21  O3  UNL     1      18.233  66.562  18.234  1.00  0.00    -0.353 OA
HETATM   22  C29 UNL     1      18.658  65.920  17.054  1.00  0.00     0.210 C 
ENDBRANCH  17  21
ENDBRANCH  12  13
ENDBRANCH  11  12
ENDBRANCH   9  11
ENDBRANCH   8   9
BRANCH   1  23
HETATM   23  C2  UNL     1      14.358  63.215  16.071  1.00  0.00     0.055 C 
HETATM   24  C1  UNL     1      13.857  64.223  15.073  1.00  0.00     0.011 C 
ENDBRANCH   1  23
BRANCH   7  25
HETATM   25  N5  UNL     1      11.860  61.628  19.797  1.00  0.00    -0.367 N 
ATOM     26  H5  UNL     1      12.620  61.238  20.354  1.00  0.00     0.161 HD
BRANCH  25  27
HETATM   27  C12 UNL     1      10.743  62.128  20.528  1.00  0.00     0.118 C 
HETATM   28  C13 UNL     1       9.858  61.033  21.107  1.00  0.00     0.068 C 
HETATM   29  C14 UNL     1       8.622  61.868  21.473  1.00  0.00     0.154 C 
HETATM   30  C15 UNL     1       8.922  62.711  22.713  1.00  0.00     0.049 C 
HETATM   31  C16 UNL     1       7.451  60.991  21.800  1.00  0.00     0.049 C 
HETATM   32  N6  UNL     1       8.453  62.682  20.313  1.00  0.00     0.099 N 
HETATM   33  C17 UNL     1       7.484  62.215  19.373  1.00  0.00     0.311 C 
HETATM   34  C18 UNL     1       9.724  62.863  19.669  1.00  0.00     0.242 C 
HETATM   35  C19 UNL     1      10.100  64.318  19.539  1.00  0.00     0.045 C 
ENDBRANCH  25  27
ENDBRANCH   7  25
BRANCH   4  36
HETATM   36  N2  UNL     1      10.801  60.230  15.519  1.00  0.00    -0.224 N 
ATOM     37  H2  UNL     1      10.804  59.213  15.601  1.00  0.00     0.177 HD
BRANCH  36  38
HETATM   38  C5  UNL     1       9.981  60.854  14.512  1.00  0.00     0.168 C 
BRANCH  38  39
HETATM   39  C6  UNL     1       8.561  61.031  14.933  1.00  0.00     0.292 C 
BRANCH  39  40
HETATM   40  N3  UNL     1       7.836  59.810  14.781  1.00  0.00     0.094 N 
HETATM   41  C7  UNL     1       8.485  58.783  14.037  1.00  0.00     0.298 C 
HETATM   42  C8  UNL     1       7.651  57.514  14.184  1.00  0.00     0.198 C 
HETATM   43  O1  UNL     1       7.684  57.021  15.476  1.00  0.00    -0.388 OA
HETATM   44  C9  UNL     1       7.936  57.988  16.436  1.00  0.00     0.198 C 
HETATM   45  C10 UNL     1       7.350  59.316  16.029  1.00  0.00     0.298 C 
ENDBRANCH  39  40
ENDBRANCH  38  39
ENDBRANCH  36  38
ENDBRANCH   4  36
TORSDOF 13
ENDMDL
MODEL 3
REMARK VINA RESULT: -9.154852445      1.550      5.201
REMARK  13 active torsions:
REMARK  status: ('A' for Active; 'I' for Inactive)
REMARK    1  A    between atoms: C2_2  and  C3_3 
REMARK    2  A    between atoms: C4_6  and  N2_7 
REMARK    3  A    between atoms: N2_7  and  C5_9 
REMARK    4  A    between atoms: C5_9  and  C6_10 
REMARK    5  A    between atoms: C6_10  and  N3_11 
REMARK    6  A    between atoms: C11_19  and  N5_20 
REMARK    7  A    between atoms: N5_20  and  C12_22 
REMARK    8  A    between atoms: C20_31  and  N7_32 
REMARK    9  A    between atoms: N7_32  and  C21_34 
REMARK   10  A    between atoms: C21_34  and  C22_35 
REMARK   11  A    between atoms: C22_35  and  C23_36 
REMARK   12  A    between atoms: C26_39  and  O2_40 
REMARK   13  A    between atoms: C28_42  and  O3_43 
ROOT
HETATM    1  C3  UNL     1      12.350  62.815  18.801  1.00  0.00     0.056 A 
HETATM    2  N1  UNL     1      12.925  63.663  19.701  1.00  0.00    -0.193 N 
ATOM      3  H1  UNL     1      12.837  63.491  20.702  1.00  0.00     0.184 HD
HETATM    4  C4  UNL     1      13.606  64.725  19.253  1.00  0.00     0.680 A 
HETATM    5  N4  UNL     1      13.712  64.937  17.920  1.00  0.00    -0.175 N 
ATOM      6  H4  UNL     1      14.236  65.752  17.599  1.00  0.00     0.186 HD
HETATM    7  C11 UNL     1      13.169  64.139  17.009  1.00  0.00     0.146 A 
HETATM    8  C20 UNL     1      12.446  63.015  17.452  1.00  0.00     0.096 A 
ENDROOT
BRANCH   8   9
HETATM    9  N7  UNL     1      11.831  62.145  16.536  1.00  0.00    -0.385 N 
ATOM     10  H7  UNL     1      12.436  61.442  16.112  1.00  0.00     0.159 HD
BRANCH   9  11
HETATM   11  C21 UNL     1      10.469  62.122  16.128  1.00  0.00     0.124 C 
BRANCH  11  12
HETATM   12  C22 UNL     1      10.194  61.445  14.821  1.00  0.00     0.058 C 
BRANCH  12  13
HETATM   13  C23 UNL     1       9.463  60.163  14.933  1.00  0.00    -0.054 A 
HETATM   14  C24 UNL     1       9.072  59.403  13.852  1.00  0.00     0.010 A 
HETATM   15  C25 UNL     1       8.387  58.215  14.002  1.00  0.00     0.040 A 
HETATM   16  C26 UNL     1       8.050  57.713  15.242  1.00  0.00     0.101 A 
HETATM   17  C28 UNL     1       8.435  58.464  16.339  1.00  0.00     0.102 A 
HETATM   18  C30 UNL     1       9.119  59.651  16.190  1.00  0.00     0.046 A 
BRANCH  16  19
HETATM   19  O2  UNL     1       7.361  56.517  15.399  1.00  0.00    -0.353 OA
HETATM   20  C27 UNL     1       5.976  56.472  15.109  1.00  0.00     0.210 C 
ENDBRANCH  16  19
BRANCH  17  21
HETATM   21  O3  UNL     1       8.087  57.944  17.582  1.00  0.00    -0.353 OA
HETATM   22  C29 UNL     1       7.783  58.792  18.665  1.00  0.00     0.210 C 
ENDBRANCH  17  21
ENDBRANCH  12  13
ENDBRANCH  11  12
ENDBRANCH   9  11
ENDBRANCH   8   9
BRANCH   1  23
HETATM   23  C2  UNL     1      11.636  61.673  19.387  1.00  0.00     0.055 C 
HETATM   24  C1  UNL     1      10.746  62.046  20.541  1.00  0.00     0.011 C 
ENDBRANCH   1  23
BRANCH   7  25
HETATM   25  N5  UNL     1      13.234  64.287  15.747  1.00  0.00    -0.367 N 
ATOM     26  H5  UNL     1      12.393  64.646  15.294  1.00  0.00     0.161 HD
BRANCH  25  27
HETATM   27  C12 UNL     1      14.338  64.014  14.887  1.00  0.00     0.118 C 
HETATM   28  C13 UNL     1      15.685  64.369  15.498  1.00  0.00     0.068 C 
HETATM   29  C14 UNL     1      16.562  64.314  14.238  1.00  0.00     0.154 C 
HETATM   30  C15 UNL     1      16.782  62.857  13.831  1.00  0.00     0.049 C 
HETATM   31  C16 UNL     1      17.911  64.919  14.488  1.00  0.00     0.049 C 
HETATM   32  N6  UNL     1      15.762  65.011  13.283  1.00  0.00     0.099 N 
HETATM   33  C17 UNL     1      16.098  66.386  13.089  1.00  0.00     0.311 C 
HETATM   34  C18 UNL     1      14.376  64.884  13.639  1.00  0.00     0.242 C 
HETATM   35  C19 UNL     1      13.556  64.258  12.538  1.00  0.00     0.045 C 
ENDBRANCH  25  27
ENDBRANCH   7  25
BRANCH   4  36
HETATM   36  N2  UNL     1      14.158  65.545  20.098  1.00  0.00    -0.224 N 
ATOM     37  H2  UNL     1      14.113  65.338  21.096  1.00  0.00     0.177 HD
BRANCH  36  38
HETATM   38  C5  UNL     1      14.832  66.740  19.657  1.00  0.00     0.168 C 
BRANCH  38  39
HETATM   39  C6  UNL     1      16.048  67.063  20.459  1.00  0.00     0.292 C 
BRANCH  39  40
HETATM   40  N3  UNL     1      17.194  67.167  19.614  1.00  0.00     0.094 N 
HETATM   41  C7  UNL     1      17.078  66.578  18.322  1.00  0.00     0.298 C 
HETATM   42  C8  UNL     1      18.307  66.991  17.518  1.00  0.00     0.198 C 
HETATM   43  O1  UNL     1      18.309  68.345  17.237  1.00  0.00    -0.388 OA
HETATM   44  C9  UNL     1      17.598  69.106  18.150  1.00  0.00     0.198 C 
HETATM   45  C10 UNL     1      17.679  68.507  19.531  1.00  0.00     0.298 C 
ENDBRANCH  39  40
ENDBRANCH  38  39
ENDBRANCH  36  38
ENDBRANCH   4  36
TORSDOF 13
ENDMDL
MODEL 4
REMARK VINA RESULT: -9.136980769      1.329      1.620
REMARK  13 active torsions:
REMARK  status: ('A' for Active; 'I' for Inactive)
REMARK    1  A    between atoms: C2_2  and  C3_3 
REMARK    2  A    between atoms: C4_6  and  N2_7 
REMARK    3  A    between atoms: N2_7  and  C5_9 
REMARK    4  A    between atoms: C5_9  and  C6_10 
REMARK    5  A    between atoms: C6_10  and  N3_11 
REMARK    6  A    between atoms: C11_19  and  N5_20 
REMARK    7  A    between atoms: N5_20  and  C12_22 
REMARK    8  A    between atoms: C20_31  and  N7_32 
REMARK    9  A    between atoms: N7_32  and  C21_34 
REMARK   10  A    between atoms: C21_34  and  C22_35 
REMARK   11  A    between atoms: C22_35  and  C23_36 
REMARK   12  A    between atoms: C26_39  and  O2_40 
REMARK   13  A    between atoms: C28_42  and  O3_43 
ROOT
HETATM    1  C3  UNL     1      12.629  62.943  16.189  1.00  0.00     0.056 A 
HETATM    2  N1  UNL     1      13.688  63.568  16.779  1.00  0.00    -0.193 N 
ATOM      3  H1  UNL     1      14.341  64.115  16.219  1.00  0.00     0.184 HD
HETATM    4  C4  UNL     1      13.859  63.453  18.102  1.00  0.00     0.680 A 
HETATM    5  N4  UNL     1      12.980  62.722  18.828  1.00  0.00    -0.175 N 
ATOM      6  H4  UNL     1      13.128  62.647  19.834  1.00  0.00     0.186 HD
HETATM    7  C11 UNL     1      11.937  62.097  18.296  1.00  0.00     0.146 A 
HETATM    8  C20 UNL     1      11.734  62.200  16.907  1.00  0.00     0.096 A 
ENDROOT
BRANCH   8   9
HETATM    9  N7  UNL     1      10.658  61.545  16.283  1.00  0.00    -0.385 N 
ATOM     10  H7  UNL     1      10.830  60.583  15.990  1.00  0.00     0.159 HD
BRANCH   9  11
HETATM   11  C21 UNL     1       9.360  62.057  16.012  1.00  0.00     0.124 C 
BRANCH  11  12
HETATM   12  C22 UNL     1       8.701  61.532  14.774  1.00  0.00     0.058 C 
BRANCH  12  13
HETATM   13  C23 UNL     1       8.179  60.152  14.891  1.00  0.00    -0.054 A 
HETATM   14  C24 UNL     1       8.397  59.165  13.954  1.00  0.00     0.010 A 
HETATM   15  C25 UNL     1       7.887  57.891  14.100  1.00  0.00     0.040 A 
HETATM   16  C26 UNL     1       7.129  57.525  15.193  1.00  0.00     0.101 A 
HETATM   17  C28 UNL     1       6.900  58.504  16.144  1.00  0.00     0.102 A 
HETATM   18  C30 UNL     1       7.409  59.777  15.999  1.00  0.00     0.046 A 
BRANCH  16  19
HETATM   19  O2  UNL     1       6.613  56.244  15.347  1.00  0.00    -0.353 OA
HETATM   20  C27 UNL     1       5.356  55.930  14.777  1.00  0.00     0.210 C 
ENDBRANCH  16  19
BRANCH  17  21
HETATM   21  O3  UNL     1       6.133  58.119  17.240  1.00  0.00    -0.353 OA
HETATM   22  C29 UNL     1       6.061  58.921  18.395  1.00  0.00     0.210 C 
ENDBRANCH  17  21
ENDBRANCH  12  13
ENDBRANCH  11  12
ENDBRANCH   9  11
ENDBRANCH   8   9
BRANCH   1  23
HETATM   23  C2  UNL     1      12.518  63.138  14.737  1.00  0.00     0.055 C 
HETATM   24  C1  UNL     1      13.529  64.102  14.179  1.00  0.00     0.011 C 
ENDBRANCH   1  23
BRANCH   7  25
HETATM   25  N5  UNL     1      11.080  61.398  18.926  1.00  0.00    -0.367 N 
ATOM     26  H5  UNL     1      10.965  60.436  18.605  1.00  0.00     0.161 HD
BRANCH  25  27
HETATM   27  C12 UNL     1      10.263  61.792  20.025  1.00  0.00     0.118 C 
HETATM   28  C13 UNL     1       9.382  60.671  20.557  1.00  0.00     0.068 C 
HETATM   29  C14 UNL     1       8.415  61.493  21.424  1.00  0.00     0.154 C 
HETATM   30  C15 UNL     1       9.132  61.954  22.694  1.00  0.00     0.049 C 
HETATM   31  C16 UNL     1       7.234  60.674  21.847  1.00  0.00     0.049 C 
HETATM   32  N6  UNL     1       8.105  62.593  20.569  1.00  0.00     0.099 N 
HETATM   33  C17 UNL     1       6.878  62.478  19.845  1.00  0.00     0.311 C 
HETATM   34  C18 UNL     1       9.197  62.816  19.663  1.00  0.00     0.242 C 
HETATM   35  C19 UNL     1       9.755  64.214  19.771  1.00  0.00     0.045 C 
ENDBRANCH  25  27
ENDBRANCH   7  25
BRANCH   4  36
HETATM   36  N2  UNL     1      14.866  64.041  18.679  1.00  0.00    -0.224 N 
ATOM     37  H2  UNL     1      15.812  63.716  18.482  1.00  0.00     0.177 HD
BRANCH  36  38
HETATM   38  C5  UNL     1      14.673  65.140  19.591  1.00  0.00     0.168 C 
BRANCH  38  39
HETATM   39  C6  UNL     1      14.437  66.442  18.904  1.00  0.00     0.292 C 
BRANCH  39  40
HETATM   40  N3  UNL     1      15.381  67.420  19.342  1.00  0.00     0.094 N 
HETATM   41  C7  UNL     1      15.883  67.261  20.665  1.00  0.00     0.298 C 
HETATM   42  C8  UNL     1      17.022  68.259  20.847  1.00  0.00     0.198 C 
HETATM   43  O1  UNL     1      18.117  67.941  20.065  1.00  0.00    -0.388 OA
HETATM   44  C9  UNL     1      17.801  67.212  18.931  1.00  0.00     0.198 C 
HETATM   45  C10 UNL     1      16.442  67.598  18.403  1.00  0.00     0.298 C 
ENDBRANCH  39  40
ENDBRANCH  38  39
ENDBRANCH  36  38
ENDBRANCH   4  36
TORSDOF 13
ENDMDL
MODEL 5
REMARK VINA RESULT: -9.092149064      2.250      9.025
REMARK  13 active torsions:
REMARK  status: ('A' for Active; 'I' for Inactive)
REMARK    1  A    between atoms: C2_2  and  C3_3 
REMARK    2  A    between atoms: C4_6  and  N2_7 
REMARK    3  A    between atoms: N2_7  and  C5_9 
REMARK    4  A    between atoms: C5_9  and  C6_10 
REMARK    5  A    between atoms: C6_10  and  N3_11 
REMARK    6  A    between atoms: C11_19  and  N5_20 
REMARK    7  A    between atoms: N5_20  and  C12_22 
REMARK    8  A    between atoms: C20_31  and  N7_32 
REMARK    9  A    between atoms: N7_32  and  C21_34 
REMARK   10  A    between atoms: C21_34  and  C22_35 
REMARK   11  A    between atoms: C22_35  and  C23_36 
REMARK   12  A    between atoms: C26_39  and  O2_40 
REMARK   13  A    between atoms: C28_42  and  O3_43 
ROOT
HETATM    1  C3  UNL     1      12.863  62.943  18.821  1.00  0.00     0.056 A 
HETATM    2  N1  UNL     1      12.065  62.897  19.926  1.00  0.00    -0.193 N 
ATOM      3  H1  UNL     1      12.268  63.485  20.734  1.00  0.00     0.184 HD
HETATM    4  C4  UNL     1      11.011  62.071  19.936  1.00  0.00     0.680 A 
HETATM    5  N4  UNL     1      10.758  61.298  18.853  1.00  0.00    -0.175 N 
ATOM      6  H4  UNL     1       9.951  60.675  18.881  1.00  0.00     0.186 HD
HETATM    7  C11 UNL     1      11.508  61.310  17.759  1.00  0.00     0.146 A 
HETATM    8  C20 UNL     1      12.622  62.169  17.721  1.00  0.00     0.096 A 
ENDROOT
BRANCH   8   9
HETATM    9  N7  UNL     1      13.464  62.211  16.596  1.00  0.00    -0.385 N 
ATOM     10  H7  UNL     1      14.285  61.606  16.629  1.00  0.00     0.159 HD
BRANCH   9  11
HETATM   11  C21 UNL     1      13.313  62.992  15.418  1.00  0.00     0.124 C 
BRANCH  11  12
HETATM   12  C22 UNL     1      13.467  64.471  15.595  1.00  0.00     0.058 C 
BRANCH  12  13
HETATM   13  C23 UNL     1      14.705  65.036  15.012  1.00  0.00    -0.054 A 
HETATM   14  C24 UNL     1      14.801  65.511  13.722  1.00  0.00     0.010 A 
HETATM   15  C25 UNL     1      15.977  66.026  13.217  1.00  0.00     0.040 A 
HETATM   16  C26 UNL     1      17.130  66.098  13.970  1.00  0.00     0.101 A 
HETATM   17  C28 UNL     1      17.052  65.625  15.269  1.00  0.00     0.102 A 
HETATM   18  C30 UNL     1      15.877  65.110  15.774  1.00  0.00     0.046 A 
BRANCH  16  19
HETATM   19  O2  UNL     1      18.317  66.615  13.468  1.00  0.00    -0.353 OA
HETATM   20  C27 UNL     1      18.297  67.850  12.775  1.00  0.00     0.210 C 
ENDBRANCH  16  19
BRANCH  17  21
HETATM   21  O3  UNL     1      18.224  65.703  16.015  1.00  0.00    -0.353 OA
HETATM   22  C29 UNL     1      18.245  66.343  17.269  1.00  0.00     0.210 C 
ENDBRANCH  17  21
ENDBRANCH  12  13
ENDBRANCH  11  12
ENDBRANCH   9  11
ENDBRANCH   8   9
BRANCH   1  23
HETATM   23  C2  UNL     1      13.984  63.888  18.899  1.00  0.00     0.055 C 
HETATM   24  C1  UNL     1      13.626  65.196  19.552  1.00  0.00     0.011 C 
ENDBRANCH   1  23
BRANCH   7  25
HETATM   25  N5  UNL     1      11.320  60.608  16.713  1.00  0.00    -0.367 N 
ATOM     26  H5  UNL     1      12.033  59.908  16.510  1.00  0.00     0.161 HD
BRANCH  25  27
HETATM   27  C12 UNL     1      10.234  60.679  15.792  1.00  0.00     0.118 C 
HETATM   28  C13 UNL     1       8.873  60.479  16.441  1.00  0.00     0.068 C 
HETATM   29  C14 UNL     1       8.020  60.244  15.185  1.00  0.00     0.154 C 
HETATM   30  C15 UNL     1       7.819  61.569  14.448  1.00  0.00     0.049 C 
HETATM   31  C16 UNL     1       6.662  59.718  15.541  1.00  0.00     0.049 C 
HETATM   32  N6  UNL     1       8.832  59.344  14.433  1.00  0.00     0.099 N 
HETATM   33  C17 UNL     1       8.489  57.962  14.555  1.00  0.00     0.311 C 
HETATM   34  C18 UNL     1      10.213  59.545  14.778  1.00  0.00     0.242 C 
HETATM   35  C19 UNL     1      11.058  59.897  13.578  1.00  0.00     0.045 C 
ENDBRANCH  25  27
ENDBRANCH   7  25
BRANCH   4  36
HETATM   36  N2  UNL     1      10.242  62.013  20.984  1.00  0.00    -0.224 N 
ATOM     37  H2  UNL     1      10.508  61.412  21.764  1.00  0.00     0.177 HD
BRANCH  36  38
HETATM   38  C5  UNL     1       9.024  62.779  21.066  1.00  0.00     0.168 C 
BRANCH  38  39
HETATM   39  C6  UNL     1       7.853  61.977  21.525  1.00  0.00     0.292 C 
BRANCH  39  40
HETATM   40  N3  UNL     1       7.973  60.621  21.093  1.00  0.00     0.094 N 
HETATM   41  C7  UNL     1       7.728  59.624  22.081  1.00  0.00     0.298 C 
HETATM   42  C8  UNL     1       7.688  58.275  21.370  1.00  0.00     0.198 C 
HETATM   43  O1  UNL     1       6.587  58.160  20.542  1.00  0.00    -0.388 OA
HETATM   44  C9  UNL     1       6.103  59.375  20.085  1.00  0.00     0.198 C 
HETATM   45  C10 UNL     1       7.223  60.368  19.905  1.00  0.00     0.298 C 
ENDBRANCH  39  40
ENDBRANCH  38  39
ENDBRANCH  36  38
ENDBRANCH   4  36
TORSDOF 13
ENDMDL
