MODEL 1
REMARK VINA RESULT: -7.075736985      0.000      0.000
REMARK  5 active torsions:
REMARK  status: ('A' for Active; 'I' for Inactive)
REMARK    1  A    between atoms: N1_1  and  C1_4 
REMARK    2  A    between atoms: N3_9  and  N4_10 
REMARK    3  A    between atoms: N4_10  and  N5_12 
REMARK    4  A    between atoms: C3_15  and  N6_16 
REMARK    5  A    between atoms: N6_16  and  N7_18 
ROOT
HETATM    1  C1  UNL     1      34.673  20.514  30.931  1.00  0.00     0.694 A 
HETATM    2  N2  UNL     1      33.473  20.810  30.398  1.00  0.00    -0.139 N 
ATOM      3  H2  UNL     1      33.333  20.839  29.389  1.00  0.00     0.189 HD
HETATM    4  C2  UNL     1      32.466  21.065  31.256  1.00  0.00     0.376 A 
HETATM    5  O1  UNL     1      31.333  21.345  30.773  1.00  0.00    -0.243 OA
HETATM    6  N3  UNL     1      32.606  21.039  32.591  1.00  0.00    -0.015 N 
HETATM    7  C3  UNL     1      33.813  20.742  33.106  1.00  0.00     0.737 A 
HETATM    8  N8  UNL     1      34.850  20.479  32.265  1.00  0.00    -0.019 N 
ATOM      9  H8  UNL     1      35.768  20.253  32.648  1.00  0.00     0.203 HD
ENDROOT
BRANCH   6  10
HETATM   10  N4  UNL     1      31.554  21.307  33.465  1.00  0.00    -0.224 N 
ATOM     11  H4  UNL     1      31.338  20.665  34.228  1.00  0.00     0.209 HD
BRANCH  10  12
HETATM   12  N5  UNL     1      30.800  22.467  33.281  1.00  0.00    -0.330 N 
ATOM     13  H52 UNL     1      31.269  23.373  33.251  1.00  0.00     0.178 HD
ATOM     14  H51 UNL     1      29.788  22.388  33.179  1.00  0.00     0.178 HD
ENDBRANCH  10  12
ENDBRANCH   6  10
BRANCH   7  15
HETATM   15  N6  UNL     1      33.947  20.716  34.379  1.00  0.00    -0.136 N 
ATOM     16  H6  UNL     1      33.232  21.183  34.937  1.00  0.00     0.205 HD
BRANCH  15  17
HETATM   17  N7  UNL     1      34.986  20.105  35.054  1.00  0.00    -0.331 N 
ATOM     18  H72 UNL     1      35.546  19.440  34.519  1.00  0.00     0.177 HD
ATOM     19  H71 UNL     1      35.225  20.269  36.032  1.00  0.00     0.177 HD
ENDBRANCH  15  17
ENDBRANCH   7  15
BRANCH   1  20
HETATM   20  N1  UNL     1      35.668  20.261  30.160  1.00  0.00    -0.234 N 
ATOM     21  H12 UNL     1      35.506  20.153  29.158  1.00  0.00     0.174 HD
ATOM     22  H11 UNL     1      36.605  20.172  30.553  1.00  0.00     0.174 HD
ENDBRANCH   1  20
TORSDOF 5
ENDMDL
MODEL 2
REMARK VINA RESULT: -7.051334134      2.316      2.805
REMARK  5 active torsions:
REMARK  status: ('A' for Active; 'I' for Inactive)
REMARK    1  A    between atoms: N1_1  and  C1_4 
REMARK    2  A    between atoms: N3_9  and  N4_10 
REMARK    3  A    between atoms: N4_10  and  N5_12 
REMARK    4  A    between atoms: C3_15  and  N6_16 
REMARK    5  A    between atoms: N6_16  and  N7_18 
ROOT
HETATM    1  C1  UNL     1      34.573  20.792  31.413  1.00  0.00     0.694 A 
HETATM    2  N2  UNL     1      34.594  22.133  31.309  1.00  0.00    -0.139 N 
ATOM      3  H2  UNL     1      34.540  22.597  30.402  1.00  0.00     0.189 HD
HETATM    4  C2  UNL     1      34.690  22.837  32.453  1.00  0.00     0.376 A 
HETATM    5  O1  UNL     1      34.712  24.098  32.373  1.00  0.00    -0.243 OA
HETATM    6  N3  UNL     1      34.765  22.270  33.668  1.00  0.00    -0.015 N 
HETATM    7  C3  UNL     1      34.743  20.927  33.752  1.00  0.00     0.737 A 
HETATM    8  N8  UNL     1      34.646  20.189  32.614  1.00  0.00    -0.019 N 
ATOM      9  H8  UNL     1      34.628  19.170  32.671  1.00  0.00     0.203 HD
ENDROOT
BRANCH   6  10
HETATM   10  N4  UNL     1      34.866  23.013  34.843  1.00  0.00    -0.224 N 
ATOM     11  H4  UNL     1      34.233  22.836  35.623  1.00  0.00     0.209 HD
BRANCH  10  12
HETATM   12  N5  UNL     1      35.846  24.002  34.935  1.00  0.00    -0.330 N 
ATOM     13  H52 UNL     1      36.503  23.988  35.716  1.00  0.00     0.178 HD
ATOM     14  H51 UNL     1      35.887  24.725  34.218  1.00  0.00     0.178 HD
ENDBRANCH  10  12
ENDBRANCH   6  10
BRANCH   7  15
HETATM   15  N6  UNL     1      34.814  20.385  34.910  1.00  0.00    -0.136 N 
ATOM     16  H6  UNL     1      33.953  20.011  35.309  1.00  0.00     0.205 HD
BRANCH  15  17
HETATM   17  N7  UNL     1      35.968  20.268  35.661  1.00  0.00    -0.331 N 
ATOM     18  H72 UNL     1      36.807  20.701  35.275  1.00  0.00     0.177 HD
ATOM     19  H71 UNL     1      36.035  19.788  36.559  1.00  0.00     0.177 HD
ENDBRANCH  15  17
ENDBRANCH   7  15
BRANCH   1  20
HETATM   20  N1  UNL     1      34.481  20.072  30.354  1.00  0.00    -0.234 N 
ATOM     21  H12 UNL     1      34.315  20.527  29.455  1.00  0.00     0.174 HD
ATOM     22  H11 UNL     1      34.574  19.058  30.421  1.00  0.00     0.174 HD
ENDBRANCH   1  20
TORSDOF 5
ENDMDL
MODEL 3
REMARK VINA RESULT: -6.863777057      1.395      3.419
REMARK  5 active torsions:
REMARK  status: ('A' for Active; 'I' for Inactive)
REMARK    1  A    between atoms: N1_1  and  C1_4 
REMARK    2  A    between atoms: N3_9  and  N4_10 
REMARK    3  A    between atoms: N4_10  and  N5_12 
REMARK    4  A    between atoms: C3_15  and  N6_16 
REMARK    5  A    between atoms: N6_16  and  N7_18 
ROOT
HETATM    1  C1  UNL     1      31.585  21.964  33.062  1.00  0.00     0.694 A 
HETATM    2  N2  UNL     1      32.051  22.571  31.955  1.00  0.00    -0.139 N 
ATOM      3  H2  UNL     1      31.494  23.265  31.456  1.00  0.00     0.189 HD
HETATM    4  C2  UNL     1      33.282  22.224  31.536  1.00  0.00     0.376 A 
HETATM    5  O1  UNL     1      33.735  22.784  30.498  1.00  0.00    -0.243 OA
HETATM    6  N3  UNL     1      34.049  21.316  32.161  1.00  0.00    -0.015 N 
HETATM    7  C3  UNL     1      33.567  20.718  33.265  1.00  0.00     0.737 A 
HETATM    8  N8  UNL     1      32.325  21.049  33.715  1.00  0.00    -0.019 N 
ATOM      9  H8  UNL     1      31.954  20.601  34.552  1.00  0.00     0.203 HD
ENDROOT
BRANCH   6  10
HETATM   10  N4  UNL     1      35.322  20.966  31.713  1.00  0.00    -0.224 N 
ATOM     11  H4  UNL     1      36.143  21.157  32.286  1.00  0.00     0.209 HD
BRANCH  10  12
HETATM   12  N5  UNL     1      35.455  20.349  30.467  1.00  0.00    -0.330 N 
ATOM     13  H52 UNL     1      34.914  19.509  30.262  1.00  0.00     0.178 HD
ATOM     14  H51 UNL     1      36.093  20.753  29.782  1.00  0.00     0.178 HD
ENDBRANCH  10  12
ENDBRANCH   6  10
BRANCH   7  15
HETATM   15  N6  UNL     1      34.297  19.853  33.862  1.00  0.00    -0.136 N 
ATOM     16  H6  UNL     1      34.361  18.923  33.447  1.00  0.00     0.205 HD
BRANCH  15  17
HETATM   17  N7  UNL     1      35.005  20.081  35.027  1.00  0.00    -0.331 N 
ATOM     18  H72 UNL     1      36.010  20.226  34.925  1.00  0.00     0.177 HD
ATOM     19  H71 UNL     1      34.599  20.114  35.962  1.00  0.00     0.177 HD
ENDBRANCH  15  17
ENDBRANCH   7  15
BRANCH   1  20
HETATM   20  N1  UNL     1      30.417  22.259  33.507  1.00  0.00    -0.234 N 
ATOM     21  H12 UNL     1      29.691  22.544  32.849  1.00  0.00     0.174 HD
ATOM     22  H11 UNL     1      30.228  22.206  34.508  1.00  0.00     0.174 HD
ENDBRANCH   1  20
TORSDOF 5
ENDMDL
MODEL 4
REMARK VINA RESULT: -6.840544043      2.719      3.794
REMARK  5 active torsions:
REMARK  status: ('A' for Active; 'I' for Inactive)
REMARK    1  A    between atoms: N1_1  and  C1_4 
REMARK    2  A    between atoms: N3_9  and  N4_10 
REMARK    3  A    between atoms: N4_10  and  N5_12 
REMARK    4  A    between atoms: C3_15  and  N6_16 
REMARK    5  A    between atoms: N6_16  and  N7_18 
ROOT
HETATM    1  C1  UNL     1      34.497  23.188  31.699  1.00  0.00     0.694 A 
HETATM    2  N2  UNL     1      35.163  23.710  32.746  1.00  0.00    -0.139 N 
ATOM      3  H2  UNL     1      35.610  24.625  32.688  1.00  0.00     0.189 HD
HETATM    4  C2  UNL     1      35.212  22.974  33.872  1.00  0.00     0.376 A 
HETATM    5  O1  UNL     1      35.833  23.449  34.864  1.00  0.00    -0.243 OA
HETATM    6  N3  UNL     1      34.639  21.766  33.993  1.00  0.00    -0.015 N 
HETATM    7  C3  UNL     1      33.978  21.259  32.937  1.00  0.00     0.737 A 
HETATM    8  N8  UNL     1      33.910  21.979  31.784  1.00  0.00    -0.019 N 
ATOM      9  H8  UNL     1      33.411  21.601  30.980  1.00  0.00     0.203 HD
ENDROOT
BRANCH   6  10
HETATM   10  N4  UNL     1      34.700  21.015  35.166  1.00  0.00    -0.224 N 
ATOM     11  H4  UNL     1      33.860  20.850  35.720  1.00  0.00     0.209 HD
BRANCH  10  12
HETATM   12  N5  UNL     1      35.930  20.494  35.572  1.00  0.00    -0.330 N 
ATOM     13  H52 UNL     1      36.733  20.554  34.946  1.00  0.00     0.178 HD
ATOM     14  H51 UNL     1      36.003  20.059  36.492  1.00  0.00     0.178 HD
ENDBRANCH  10  12
ENDBRANCH   6  10
BRANCH   7  15
HETATM   15  N6  UNL     1      33.431  20.107  33.051  1.00  0.00    -0.136 N 
ATOM     16  H6  UNL     1      34.038  19.316  33.266  1.00  0.00     0.205 HD
BRANCH  15  17
HETATM   17  N7  UNL     1      32.080  19.854  32.906  1.00  0.00    -0.331 N 
ATOM     18  H72 UNL     1      31.529  20.579  32.448  1.00  0.00     0.177 HD
ATOM     19  H71 UNL     1      31.607  19.006  33.221  1.00  0.00     0.177 HD
ENDBRANCH  15  17
ENDBRANCH   7  15
BRANCH   1  20
HETATM   20  N1  UNL     1      34.418  23.847  30.601  1.00  0.00    -0.234 N 
ATOM     21  H12 UNL     1      34.381  24.867  30.634  1.00  0.00     0.174 HD
ATOM     22  H11 UNL     1      34.392  23.349  29.711  1.00  0.00     0.174 HD
ENDBRANCH   1  20
TORSDOF 5
ENDMDL
MODEL 5
REMARK VINA RESULT: -6.713432589      1.691      3.366
REMARK  5 active torsions:
REMARK  status: ('A' for Active; 'I' for Inactive)
REMARK    1  A    between atoms: N1_1  and  C1_4 
REMARK    2  A    between atoms: N3_9  and  N4_10 
REMARK    3  A    between atoms: N4_10  and  N5_12 
REMARK    4  A    between atoms: C3_15  and  N6_16 
REMARK    5  A    between atoms: N6_16  and  N7_18 
ROOT
HETATM    1  C1  UNL     1      34.628  20.637  34.073  1.00  0.00     0.694 A 
HETATM    2  N2  UNL     1      35.137  20.255  32.887  1.00  0.00    -0.139 N 
ATOM      3  H2  UNL     1      35.974  19.673  32.831  1.00  0.00     0.189 HD
HETATM    4  C2  UNL     1      34.496  20.672  31.779  1.00  0.00     0.376 A 
HETATM    5  O1  UNL     1      34.961  20.323  30.658  1.00  0.00    -0.243 OA
HETATM    6  N3  UNL     1      33.394  21.439  31.806  1.00  0.00    -0.015 N 
HETATM    7  C3  UNL     1      32.899  21.812  33.000  1.00  0.00     0.737 A 
HETATM    8  N8  UNL     1      33.525  21.405  34.138  1.00  0.00    -0.019 N 
ATOM      9  H8  UNL     1      33.155  21.684  35.046  1.00  0.00     0.203 HD
ENDROOT
BRANCH   6  10
HETATM   10  N4  UNL     1      32.742  21.864  30.650  1.00  0.00    -0.224 N 
ATOM     11  H4  UNL     1      31.833  21.477  30.396  1.00  0.00     0.209 HD
BRANCH  10  12
HETATM   12  N5  UNL     1      33.353  22.827  29.844  1.00  0.00    -0.330 N 
ATOM     13  H52 UNL     1      34.367  22.933  29.868  1.00  0.00     0.178 HD
ATOM     14  H51 UNL     1      32.770  23.411  29.244  1.00  0.00     0.178 HD
ENDBRANCH  10  12
ENDBRANCH   6  10
BRANCH   7  15
HETATM   15  N6  UNL     1      31.848  22.542  33.026  1.00  0.00    -0.136 N 
ATOM     16  H6  UNL     1      31.926  23.493  32.666  1.00  0.00     0.205 HD
BRANCH  15  17
HETATM   17  N7  UNL     1      30.615  22.140  33.506  1.00  0.00    -0.331 N 
ATOM     18  H72 UNL     1      29.800  22.614  33.116  1.00  0.00     0.177 HD
ATOM     19  H71 UNL     1      30.469  21.416  34.209  1.00  0.00     0.177 HD
ENDBRANCH  15  17
ENDBRANCH   7  15
BRANCH   1  20
HETATM   20  N1  UNL     1      35.199  20.266  35.161  1.00  0.00    -0.234 N 
ATOM     21  H12 UNL     1      35.441  19.282  35.287  1.00  0.00     0.174 HD
ATOM     22  H11 UNL     1      35.404  20.954  35.886  1.00  0.00     0.174 HD
ENDBRANCH   1  20
TORSDOF 5
ENDMDL
