MODEL 1
REMARK VINA RESULT: -6.131299770      0.000      0.000
REMARK  5 active torsions:
REMARK  status: ('A' for Active; 'I' for Inactive)
REMARK    1  A    between atoms: N1_1  and  C1_4 
REMARK    2  A    between atoms: C2_7  and  N3_8 
REMARK    3  A    between atoms: N3_8  and  N4_10 
REMARK    4  A    between atoms: N4_10  and  C3_12 
REMARK    5  A    between atoms: C4_14  and  C5_15 
ROOT
HETATM    1  C1  UNL     1     -42.474   1.534   5.342  1.00  0.00     0.692 A 
HETATM    2  N2  UNL     1     -41.475   1.029   4.616  1.00  0.00    -0.172 N 
ATOM      3  H2  UNL     1     -41.046   1.620   3.903  1.00  0.00     0.186 HD
HETATM    4  C2  UNL     1     -40.996  -0.251   4.780  1.00  0.00     0.167 A 
HETATM    5  C4  UNL     1     -41.612  -0.990   5.748  1.00  0.00     0.132 A 
HETATM    6  N5  UNL     1     -42.645  -0.454   6.494  1.00  0.00    -0.280 N 
ATOM      7  H5  UNL     1     -43.091  -1.023   7.213  1.00  0.00     0.188 HD
HETATM    8  N6  UNL     1     -43.064   0.778   6.293  1.00  0.00    -0.132 N 
ATOM      9  H6  UNL     1     -43.828   1.159   6.852  1.00  0.00     0.205 HD
ENDROOT
BRANCH   4  10
HETATM   10  N3  UNL     1     -39.941  -0.704   3.971  1.00  0.00    -0.281 N 
ATOM     11  H3  UNL     1     -38.969  -0.645   4.275  1.00  0.00     0.188 HD
BRANCH  10  12
HETATM   12  N4  UNL     1     -40.295  -1.245   2.713  1.00  0.00    -0.276 N 
ATOM     13  H4  UNL     1     -41.169  -0.949   2.278  1.00  0.00     0.189 HD
BRANCH  12  14
HETATM   14  C3  UNL     1     -39.481  -2.177   2.042  1.00  0.00     0.368 C 
HETATM   15  O1  UNL     1     -38.470  -2.628   2.623  1.00  0.00    -0.282 OA
ENDBRANCH  12  14
ENDBRANCH  10  12
ENDBRANCH   4  10
BRANCH   5  16
HETATM   16  C5  UNL     1     -41.229  -2.350   6.048  1.00  0.00     0.293 C 
HETATM   17  O2  UNL     1     -40.830  -3.142   5.209  1.00  0.00    -0.300 OA
ENDBRANCH   5  16
BRANCH   1  18
HETATM   18  N1  UNL     1     -42.901   2.733   5.165  1.00  0.00    -0.233 N 
ATOM     19  H12 UNL     1     -42.228   3.498   5.215  1.00  0.00     0.174 HD
ATOM     20  H11 UNL     1     -43.883   2.931   4.977  1.00  0.00     0.174 HD
ENDBRANCH   1  18
TORSDOF 5
ENDMDL
MODEL 2
REMARK VINA RESULT: -6.095826484      2.429      4.441
REMARK  5 active torsions:
REMARK  status: ('A' for Active; 'I' for Inactive)
REMARK    1  A    between atoms: N1_1  and  C1_4 
REMARK    2  A    between atoms: C2_7  and  N3_8 
REMARK    3  A    between atoms: N3_8  and  N4_10 
REMARK    4  A    between atoms: N4_10  and  C3_12 
REMARK    5  A    between atoms: C4_14  and  C5_15 
ROOT
HETATM    1  C1  UNL     1     -39.889  -1.441   2.694  1.00  0.00     0.692 A 
HETATM    2  N2  UNL     1     -40.624  -0.470   3.240  1.00  0.00    -0.172 N 
ATOM      3  H2  UNL     1     -40.916   0.309   2.649  1.00  0.00     0.186 HD
HETATM    4  C2  UNL     1     -41.007  -0.468   4.562  1.00  0.00     0.167 A 
HETATM    5  C4  UNL     1     -40.585  -1.537   5.298  1.00  0.00     0.132 A 
HETATM    6  N5  UNL     1     -39.825  -2.536   4.719  1.00  0.00    -0.280 N 
ATOM      7  H5  UNL     1     -39.521  -3.327   5.287  1.00  0.00     0.188 HD
HETATM    8  N6  UNL     1     -39.487  -2.487   3.448  1.00  0.00    -0.132 N 
ATOM      9  H6  UNL     1     -38.926  -3.232   3.036  1.00  0.00     0.205 HD
ENDROOT
BRANCH   4  10
HETATM   10  N3  UNL     1     -41.780   0.595   5.057  1.00  0.00    -0.281 N 
ATOM     11  H3  UNL     1     -42.799   0.568   5.042  1.00  0.00     0.188 HD
BRANCH  10  12
HETATM   12  N4  UNL     1     -41.072   1.703   5.577  1.00  0.00    -0.276 N 
ATOM     13  H4  UNL     1     -40.059   1.640   5.675  1.00  0.00     0.189 HD
BRANCH  12  14
HETATM   14  C3  UNL     1     -41.720   2.892   5.964  1.00  0.00     0.368 C 
HETATM   15  O1  UNL     1     -41.269   3.986   5.564  1.00  0.00    -0.282 OA
ENDBRANCH  12  14
ENDBRANCH  10  12
ENDBRANCH   4  10
BRANCH   5  16
HETATM   16  C5  UNL     1     -40.902  -1.688   6.699  1.00  0.00     0.293 C 
HETATM   17  O2  UNL     1     -40.096  -2.052   7.541  1.00  0.00    -0.300 OA
ENDBRANCH   5  16
BRANCH   1  18
HETATM   18  N1  UNL     1     -39.547  -1.414   1.455  1.00  0.00    -0.233 N 
ATOM     19  H12 UNL     1     -38.818  -0.761   1.169  1.00  0.00     0.174 HD
ATOM     20  H11 UNL     1     -39.983  -2.024   0.764  1.00  0.00     0.174 HD
ENDBRANCH   1  18
TORSDOF 5
ENDMDL
MODEL 3
REMARK VINA RESULT: -5.850519624      3.723      5.616
REMARK  5 active torsions:
REMARK  status: ('A' for Active; 'I' for Inactive)
REMARK    1  A    between atoms: N1_1  and  C1_4 
REMARK    2  A    between atoms: C2_7  and  N3_8 
REMARK    3  A    between atoms: N3_8  and  N4_10 
REMARK    4  A    between atoms: N4_10  and  C3_12 
REMARK    5  A    between atoms: C4_14  and  C5_15 
ROOT
HETATM    1  C1  UNL     1     -41.692  -0.539   5.995  1.00  0.00     0.692 A 
HETATM    2  N2  UNL     1     -42.753   0.272   6.009  1.00  0.00    -0.172 N 
ATOM      3  H2  UNL     1     -43.683  -0.147   6.019  1.00  0.00     0.186 HD
HETATM    4  C2  UNL     1     -42.652   1.644   6.011  1.00  0.00     0.167 A 
HETATM    5  C4  UNL     1     -41.381   2.140   5.998  1.00  0.00     0.132 A 
HETATM    6  N5  UNL     1     -40.291   1.289   5.984  1.00  0.00    -0.280 N 
ATOM      7  H5  UNL     1     -39.349   1.681   5.975  1.00  0.00     0.188 HD
HETATM    8  N6  UNL     1     -40.446  -0.018   5.982  1.00  0.00    -0.132 N 
ATOM      9  H6  UNL     1     -39.632  -0.633   5.972  1.00  0.00     0.205 HD
ENDROOT
BRANCH   4  10
HETATM   10  N3  UNL     1     -43.819   2.424   6.025  1.00  0.00    -0.281 N 
ATOM     11  H3  UNL     1     -44.354   2.573   6.881  1.00  0.00     0.188 HD
BRANCH  10  12
HETATM   12  N4  UNL     1     -44.216   2.991   4.792  1.00  0.00    -0.276 N 
ATOM     13  H4  UNL     1     -43.767   2.671   3.935  1.00  0.00     0.189 HD
BRANCH  12  14
HETATM   14  C3  UNL     1     -45.213   3.983   4.710  1.00  0.00     0.368 C 
HETATM   15  O1  UNL     1     -44.892   5.179   4.872  1.00  0.00    -0.282 OA
ENDBRANCH  12  14
ENDBRANCH  10  12
ENDBRANCH   4  10
BRANCH   5  16
HETATM   16  C5  UNL     1     -41.100   3.557   5.999  1.00  0.00     0.293 C 
HETATM   17  O2  UNL     1     -41.675   4.363   5.284  1.00  0.00    -0.300 OA
ENDBRANCH   5  16
BRANCH   1  18
HETATM   18  N1  UNL     1     -41.819  -1.818   5.992  1.00  0.00    -0.233 N 
ATOM     19  H12 UNL     1     -41.981  -2.290   6.882  1.00  0.00     0.174 HD
ATOM     20  H11 UNL     1     -41.761  -2.362   5.131  1.00  0.00     0.174 HD
ENDBRANCH   1  18
TORSDOF 5
ENDMDL
MODEL 4
REMARK VINA RESULT: -5.760031094      2.838      4.537
REMARK  5 active torsions:
REMARK  status: ('A' for Active; 'I' for Inactive)
REMARK    1  A    between atoms: N1_1  and  C1_4 
REMARK    2  A    between atoms: C2_7  and  N3_8 
REMARK    3  A    between atoms: N3_8  and  N4_10 
REMARK    4  A    between atoms: N4_10  and  C3_12 
REMARK    5  A    between atoms: C4_14  and  C5_15 
ROOT
HETATM    1  C1  UNL     1     -39.872  -1.974   3.993  1.00  0.00     0.692 A 
HETATM    2  N2  UNL     1     -40.211  -0.683   3.971  1.00  0.00    -0.172 N 
ATOM      3  H2  UNL     1     -39.769  -0.077   3.279  1.00  0.00     0.186 HD
HETATM    4  C2  UNL     1     -41.127  -0.129   4.837  1.00  0.00     0.167 A 
HETATM    5  C4  UNL     1     -41.682  -0.992   5.737  1.00  0.00     0.132 A 
HETATM    6  N5  UNL     1     -41.322  -2.328   5.748  1.00  0.00    -0.280 N 
ATOM      7  H5  UNL     1     -41.749  -2.956   6.429  1.00  0.00     0.188 HD
HETATM    8  N6  UNL     1     -40.439  -2.804   4.896  1.00  0.00    -0.132 N 
ATOM      9  H6  UNL     1     -40.185  -3.791   4.917  1.00  0.00     0.205 HD
ENDROOT
BRANCH   4  10
HETATM   10  N3  UNL     1     -41.425   1.239   4.746  1.00  0.00    -0.281 N 
ATOM     11  H3  UNL     1     -42.049   1.606   4.028  1.00  0.00     0.188 HD
BRANCH  10  12
HETATM   12  N4  UNL     1     -40.815   2.084   5.702  1.00  0.00    -0.276 N 
ATOM     13  H4  UNL     1     -39.896   1.833   6.067  1.00  0.00     0.189 HD
BRANCH  12  14
HETATM   14  C3  UNL     1     -41.433   3.261   6.166  1.00  0.00     0.368 C 
HETATM   15  O1  UNL     1     -41.494   4.253   5.408  1.00  0.00    -0.282 OA
ENDBRANCH  12  14
ENDBRANCH  10  12
ENDBRANCH   4  10
BRANCH   5  16
HETATM   16  C5  UNL     1     -42.660  -0.573   6.713  1.00  0.00     0.293 C 
HETATM   17  O2  UNL     1     -43.363   0.416   6.586  1.00  0.00    -0.300 OA
ENDBRANCH   5  16
BRANCH   1  18
HETATM   18  N1  UNL     1     -39.013  -2.461   3.171  1.00  0.00    -0.233 N 
ATOM     19  H12 UNL     1     -38.044  -2.153   3.246  1.00  0.00     0.174 HD
ATOM     20  H11 UNL     1     -39.277  -3.141   2.458  1.00  0.00     0.174 HD
ENDBRANCH   1  18
TORSDOF 5
ENDMDL
MODEL 5
REMARK VINA RESULT: -5.643137638      2.311      4.674
REMARK  5 active torsions:
REMARK  status: ('A' for Active; 'I' for Inactive)
REMARK    1  A    between atoms: N1_1  and  C1_4 
REMARK    2  A    between atoms: C2_7  and  N3_8 
REMARK    3  A    between atoms: N3_8  and  N4_10 
REMARK    4  A    between atoms: N4_10  and  C3_12 
REMARK    5  A    between atoms: C4_14  and  C5_15 
ROOT
HETATM    1  C1  UNL     1     -39.087  -2.132   2.086  1.00  0.00     0.692 A 
HETATM    2  N2  UNL     1     -39.986  -1.204   2.423  1.00  0.00    -0.172 N 
ATOM      3  H2  UNL     1     -40.276  -0.529   1.715  1.00  0.00     0.186 HD
HETATM    4  C2  UNL     1     -40.539  -1.112   3.680  1.00  0.00     0.167 A 
HETATM    5  C4  UNL     1     -40.109  -2.043   4.581  1.00  0.00     0.132 A 
HETATM    6  N5  UNL     1     -39.179  -2.999   4.218  1.00  0.00    -0.280 N 
ATOM      7  H5  UNL     1     -38.872  -3.686   4.907  1.00  0.00     0.188 HD
HETATM    8  N6  UNL     1     -38.682  -3.040   3.000  1.00  0.00    -0.132 N 
ATOM      9  H6  UNL     1     -37.996  -3.752   2.747  1.00  0.00     0.205 HD
ENDROOT
BRANCH   4  10
HETATM   10  N3  UNL     1     -41.477  -0.103   3.951  1.00  0.00    -0.281 N 
ATOM     11  H3  UNL     1     -42.389  -0.083   3.496  1.00  0.00     0.188 HD
BRANCH  10  12
HETATM   12  N4  UNL     1     -41.092   0.884   4.888  1.00  0.00    -0.276 N 
ATOM     13  H4  UNL     1     -40.140   0.872   5.253  1.00  0.00     0.189 HD
BRANCH  12  14
HETATM   14  C3  UNL     1     -41.979   1.883   5.331  1.00  0.00     0.368 C 
HETATM   15  O1  UNL     1     -42.719   2.450   4.499  1.00  0.00    -0.282 OA
ENDBRANCH  12  14
ENDBRANCH  10  12
ENDBRANCH   4  10
BRANCH   5  16
HETATM   16  C5  UNL     1     -40.591  -2.086   5.942  1.00  0.00     0.293 C 
HETATM   17  O2  UNL     1     -40.302  -1.257   6.790  1.00  0.00    -0.300 OA
ENDBRANCH   5  16
BRANCH   1  18
HETATM   18  N1  UNL     1     -38.588  -2.191   0.903  1.00  0.00    -0.233 N 
ATOM     19  H12 UNL     1     -38.351  -1.317   0.434  1.00  0.00     0.174 HD
ATOM     20  H11 UNL     1     -38.428  -3.082   0.432  1.00  0.00     0.174 HD
ENDBRANCH   1  18
TORSDOF 5
ENDMDL
