MODEL 1
REMARK VINA RESULT: -7.515252340      0.000      0.000
REMARK  14 active torsions:
REMARK  status: ('A' for Active; 'I' for Inactive)
REMARK    1  A    between atoms: C3_3  and  C4_4 
REMARK    2  A    between atoms: C5_5  and  O1_6 
REMARK    3  A    between atoms: C12_14  and  O2_15 
REMARK    4  A    between atoms: C12_14  and  C13_17 
REMARK    5  A    between atoms: C13_17  and  C15_19 
REMARK    6  A    between atoms: C15_19  and  N1_21 
REMARK    7  A    between atoms: N1_21  and  C16_23 
REMARK    8  A    between atoms: C16_23  and  C17_24 
REMARK    9  A    between atoms: C20_28  and  O3_29 
REMARK   10  A    between atoms: O3_29  and  C21_30 
REMARK   11  A    between atoms: C23_33  and  O5_34 
REMARK   12  A    between atoms: O5_34  and  C24_35 
REMARK   13  A    between atoms: C24_35  and  O7_37 
REMARK   14  A    between atoms: O7_37  and  C25_38 
ROOT
HETATM    1  C4  UNL     1       0.459   7.717  49.165  1.00  0.00     0.028 C 
HETATM    2  C5  UNL     1      -0.135   6.926  47.986  1.00  0.00     0.124 C 
HETATM    3  C6  UNL     1       0.987   7.090  46.970  1.00  0.00     0.044 C 
HETATM    4  C7  UNL     1       2.175   6.696  47.824  1.00  0.00    -0.006 C 
HETATM    5  C8  UNL     1       2.231   5.195  47.965  1.00  0.00     0.019 C 
HETATM    6  C9  UNL     1       1.892   7.380  49.176  1.00  0.00     0.004 C 
HETATM    7  C10 UNL     1       2.758   8.634  49.167  1.00  0.00     0.009 C 
HETATM    8  C11 UNL     1       3.399   8.731  47.806  1.00  0.00     0.040 C 
HETATM    9  C12 UNL     1       3.424   7.309  47.307  1.00  0.00     0.075 C 
ENDROOT
BRANCH   1  10
HETATM   10  C3  UNL     1      -0.375   7.388  50.345  1.00  0.00     0.026 C 
HETATM   11  C2  UNL     1      -0.182   8.104  51.563  1.00  0.00    -0.053 C 
HETATM   12  C1  UNL     1       0.190   9.382  51.822  1.00  0.00     0.017 C 
HETATM   13  C23 UNL     1      -0.485   7.213  52.695  1.00  0.00     0.192 C 
HETATM   14  C20 UNL     1      -1.004   5.966  52.097  1.00  0.00     0.166 C 
HETATM   15  C19 UNL     1      -0.356   5.922  50.697  1.00  0.00     0.045 C 
BRANCH  13  16
HETATM   16  O5  UNL     1       0.541   7.068  53.618  1.00  0.00    -0.286 OA
BRANCH  16  17
HETATM   17  C24 UNL     1       0.551   7.530  54.918  1.00  0.00     0.407 C 
HETATM   18  O6  UNL     1       1.474   7.149  55.662  1.00  0.00    -0.229 OA
BRANCH  17  19
HETATM   19  O7  UNL     1      -0.403   8.388  55.433  1.00  0.00    -0.298 OA
BRANCH  19  20
HETATM   20  C25 UNL     1      -0.193   9.781  55.336  1.00  0.00     0.176 C 
HETATM   21  C26 UNL     1      -1.540  10.405  54.978  1.00  0.00     0.034 C 
ENDBRANCH  19  20
ENDBRANCH  17  19
ENDBRANCH  16  17
ENDBRANCH  13  16
BRANCH  14  22
HETATM   22  O3  UNL     1      -0.721   4.799  52.827  1.00  0.00    -0.313 OA
BRANCH  22  23
HETATM   23  C21 UNL     1      -1.413   3.633  52.737  1.00  0.00     0.255 C 
HETATM   24  C22 UNL     1      -0.965   2.574  51.811  1.00  0.00     0.126 C 
HETATM   25  O4  UNL     1      -2.432   3.452  53.438  1.00  0.00    -0.266 OA
ENDBRANCH  22  23
ENDBRANCH  14  22
ENDBRANCH   1  10
BRANCH   2  26
HETATM   26  O1  UNL     1      -1.267   7.556  47.531  1.00  0.00    -0.395 OA
ATOM     27  H1  UNL     1      -1.568   7.137  46.734  1.00  0.00     0.210 HD
ENDBRANCH   2  26
BRANCH   9  28
HETATM   28  O2  UNL     1       4.491   6.598  47.901  1.00  0.00    -0.388 OA
ATOM     29  H2  UNL     1       4.976   6.200  47.188  1.00  0.00     0.210 HD
ENDBRANCH   9  28
BRANCH   9  30
HETATM   30  C13 UNL     1       3.622   7.284  45.832  1.00  0.00     0.078 C 
HETATM   31  C14 UNL     1       2.482   7.929  45.060  1.00  0.00     0.020 C 
BRANCH  30  32
HETATM   32  C15 UNL     1       3.777   5.916  45.280  1.00  0.00     0.080 C 
HETATM   33  S1  UNL     1       2.638   5.324  44.238  1.00  0.00    -0.065 SA
BRANCH  32  34
HETATM   34  N1  UNL     1       4.864   5.062  45.594  1.00  0.00    -0.381 N 
ATOM     35  H1  UNL     1       5.638   5.430  46.149  1.00  0.00     0.160 HD
BRANCH  34  36
HETATM   36  C16 UNL     1       4.910   3.675  45.149  1.00  0.00     0.157 C 
BRANCH  36  37
HETATM   37  C17 UNL     1       4.794   2.703  46.273  1.00  0.00     0.183 C 
HETATM   38  C18 UNL     1       3.422   2.084  46.295  1.00  0.00     0.046 C 
HETATM   39  F1  UNL     1       4.939   3.409  47.455  1.00  0.00    -0.248 F 
ENDBRANCH  36  37
ENDBRANCH  34  36
ENDBRANCH  32  34
ENDBRANCH  30  32
ENDBRANCH   9  30
TORSDOF 14
ENDMDL
MODEL 2
REMARK VINA RESULT: -7.463889294      1.059      1.151
REMARK  14 active torsions:
REMARK  status: ('A' for Active; 'I' for Inactive)
REMARK    1  A    between atoms: C3_3  and  C4_4 
REMARK    2  A    between atoms: C5_5  and  O1_6 
REMARK    3  A    between atoms: C12_14  and  O2_15 
REMARK    4  A    between atoms: C12_14  and  C13_17 
REMARK    5  A    between atoms: C13_17  and  C15_19 
REMARK    6  A    between atoms: C15_19  and  N1_21 
REMARK    7  A    between atoms: N1_21  and  C16_23 
REMARK    8  A    between atoms: C16_23  and  C17_24 
REMARK    9  A    between atoms: C20_28  and  O3_29 
REMARK   10  A    between atoms: O3_29  and  C21_30 
REMARK   11  A    between atoms: C23_33  and  O5_34 
REMARK   12  A    between atoms: O5_34  and  C24_35 
REMARK   13  A    between atoms: C24_35  and  O7_37 
REMARK   14  A    between atoms: O7_37  and  C25_38 
ROOT
HETATM    1  C4  UNL     1       0.472   7.718  49.175  1.00  0.00     0.028 C 
HETATM    2  C5  UNL     1      -0.096   6.912  47.993  1.00  0.00     0.124 C 
HETATM    3  C6  UNL     1       1.035   7.092  46.989  1.00  0.00     0.044 C 
HETATM    4  C7  UNL     1       2.219   6.721  47.858  1.00  0.00    -0.006 C 
HETATM    5  C8  UNL     1       2.300   5.222  48.006  1.00  0.00     0.019 C 
HETATM    6  C9  UNL     1       1.910   7.405  49.204  1.00  0.00     0.004 C 
HETATM    7  C10 UNL     1       2.755   8.674  49.199  1.00  0.00     0.009 C 
HETATM    8  C11 UNL     1       3.409   8.776  47.844  1.00  0.00     0.040 C 
HETATM    9  C12 UNL     1       3.463   7.353  47.352  1.00  0.00     0.075 C 
ENDROOT
BRANCH   1  10
HETATM   10  C3  UNL     1      -0.370   7.380  50.347  1.00  0.00     0.026 C 
HETATM   11  C2  UNL     1      -0.193   8.095  51.569  1.00  0.00    -0.053 C 
HETATM   12  C1  UNL     1       0.165   9.376  51.833  1.00  0.00     0.017 C 
HETATM   13  C23 UNL     1      -0.499   7.199  52.695  1.00  0.00     0.192 C 
HETATM   14  C20 UNL     1      -1.002   5.949  52.091  1.00  0.00     0.166 C 
HETATM   15  C19 UNL     1      -0.342   5.914  50.697  1.00  0.00     0.045 C 
BRANCH  13  16
HETATM   16  O5  UNL     1       0.520   7.061  53.627  1.00  0.00    -0.286 OA
BRANCH  16  17
HETATM   17  C24 UNL     1       0.522   7.537  54.923  1.00  0.00     0.407 C 
HETATM   18  O6  UNL     1       1.360   7.063  55.713  1.00  0.00    -0.229 OA
BRANCH  17  19
HETATM   19  O7  UNL     1      -0.352   8.504  55.385  1.00  0.00    -0.298 OA
BRANCH  19  20
HETATM   20  C25 UNL     1       0.040   9.859  55.331  1.00  0.00     0.176 C 
HETATM   21  C26 UNL     1      -1.225  10.672  55.060  1.00  0.00     0.034 C 
ENDBRANCH  19  20
ENDBRANCH  17  19
ENDBRANCH  16  17
ENDBRANCH  13  16
BRANCH  14  22
HETATM   22  O3  UNL     1      -0.715   4.783  52.821  1.00  0.00    -0.313 OA
BRANCH  22  23
HETATM   23  C21 UNL     1      -1.406   3.616  52.735  1.00  0.00     0.255 C 
HETATM   24  C22 UNL     1      -0.965   2.559  51.803  1.00  0.00     0.126 C 
HETATM   25  O4  UNL     1      -2.419   3.433  53.444  1.00  0.00    -0.266 OA
ENDBRANCH  22  23
ENDBRANCH  14  22
ENDBRANCH   1  10
BRANCH   2  26
HETATM   26  O1  UNL     1      -1.233   7.522  47.522  1.00  0.00    -0.395 OA
ATOM     27  H1  UNL     1      -1.021   8.390  47.203  1.00  0.00     0.210 HD
ENDBRANCH   2  26
BRANCH   9  28
HETATM   28  O2  UNL     1       4.536   6.663  47.960  1.00  0.00    -0.388 OA
ATOM     29  H2  UNL     1       5.236   7.295  48.066  1.00  0.00     0.210 HD
ENDBRANCH   9  28
BRANCH   9  30
HETATM   30  C13 UNL     1       3.679   7.325  45.879  1.00  0.00     0.078 C 
HETATM   31  C14 UNL     1       2.569   8.009  45.095  1.00  0.00     0.020 C 
BRANCH  30  32
HETATM   32  C15 UNL     1       3.797   5.954  45.325  1.00  0.00     0.080 C 
HETATM   33  S1  UNL     1       2.692   5.428  44.213  1.00  0.00    -0.065 SA
BRANCH  32  34
HETATM   34  N1  UNL     1       4.818   5.044  45.695  1.00  0.00    -0.381 N 
ATOM     35  H1  UNL     1       4.621   4.343  46.410  1.00  0.00     0.160 HD
BRANCH  34  36
HETATM   36  C16 UNL     1       6.142   5.080  45.086  1.00  0.00     0.157 C 
BRANCH  36  37
HETATM   37  C17 UNL     1       7.241   5.060  46.093  1.00  0.00     0.183 C 
HETATM   38  C18 UNL     1       6.897   4.137  47.231  1.00  0.00     0.046 C 
HETATM   39  F1  UNL     1       7.349   6.334  46.623  1.00  0.00    -0.248 F 
ENDBRANCH  36  37
ENDBRANCH  34  36
ENDBRANCH  32  34
ENDBRANCH  30  32
ENDBRANCH   9  30
TORSDOF 14
ENDMDL
MODEL 3
REMARK VINA RESULT: -7.454262364      4.380      7.556
REMARK  14 active torsions:
REMARK  status: ('A' for Active; 'I' for Inactive)
REMARK    1  A    between atoms: C3_3  and  C4_4 
REMARK    2  A    between atoms: C5_5  and  O1_6 
REMARK    3  A    between atoms: C12_14  and  O2_15 
REMARK    4  A    between atoms: C12_14  and  C13_17 
REMARK    5  A    between atoms: C13_17  and  C15_19 
REMARK    6  A    between atoms: C15_19  and  N1_21 
REMARK    7  A    between atoms: N1_21  and  C16_23 
REMARK    8  A    between atoms: C16_23  and  C17_24 
REMARK    9  A    between atoms: C20_28  and  O3_29 
REMARK   10  A    between atoms: O3_29  and  C21_30 
REMARK   11  A    between atoms: C23_33  and  O5_34 
REMARK   12  A    between atoms: O5_34  and  C24_35 
REMARK   13  A    between atoms: C24_35  and  O7_37 
REMARK   14  A    between atoms: O7_37  and  C25_38 
ROOT
HETATM    1  C4  UNL     1       2.277   4.768  47.591  1.00  0.00     0.028 C 
HETATM    2  C5  UNL     1       2.450   4.015  48.923  1.00  0.00     0.124 C 
HETATM    3  C6  UNL     1       2.743   2.617  48.396  1.00  0.00     0.044 C 
HETATM    4  C7  UNL     1       3.825   2.939  47.386  1.00  0.00    -0.006 C 
HETATM    5  C8  UNL     1       5.135   3.182  48.094  1.00  0.00     0.019 C 
HETATM    6  C9  UNL     1       3.310   4.219  46.699  1.00  0.00     0.004 C 
HETATM    7  C10 UNL     1       2.710   3.740  45.382  1.00  0.00     0.009 C 
HETATM    8  C11 UNL     1       2.756   2.232  45.386  1.00  0.00     0.040 C 
HETATM    9  C12 UNL     1       3.885   1.901  46.327  1.00  0.00     0.075 C 
ENDROOT
BRANCH   1  10
HETATM   10  C3  UNL     1       2.296   6.211  47.928  1.00  0.00     0.026 C 
HETATM   11  C2  UNL     1       1.625   7.139  47.077  1.00  0.00    -0.053 C 
HETATM   12  C1  UNL     1       0.507   7.037  46.317  1.00  0.00     0.017 C 
HETATM   13  C23 UNL     1       2.341   8.424  47.113  1.00  0.00     0.192 C 
HETATM   14  C20 UNL     1       3.397   8.268  48.133  1.00  0.00     0.166 C 
HETATM   15  C19 UNL     1       3.686   6.752  48.146  1.00  0.00     0.045 C 
BRANCH  13  16
HETATM   16  O5  UNL     1       2.750   8.901  45.876  1.00  0.00    -0.286 OA
BRANCH  16  17
HETATM   17  C24 UNL     1       3.279   8.158  44.840  1.00  0.00     0.407 C 
HETATM   18  O6  UNL     1       2.779   8.302  43.709  1.00  0.00    -0.229 OA
BRANCH  17  19
HETATM   19  O7  UNL     1       4.326   7.267  44.993  1.00  0.00    -0.298 OA
BRANCH  19  20
HETATM   20  C25 UNL     1       4.772   6.540  43.868  1.00  0.00     0.176 C 
HETATM   21  C26 UNL     1       5.772   5.506  44.381  1.00  0.00     0.034 C 
ENDBRANCH  19  20
ENDBRANCH  17  19
ENDBRANCH  16  17
ENDBRANCH  13  16
BRANCH  14  22
HETATM   22  O3  UNL     1       4.567   9.008  47.889  1.00  0.00    -0.313 OA
BRANCH  22  23
HETATM   23  C21 UNL     1       5.046  10.000  48.685  1.00  0.00     0.255 C 
HETATM   24  C22 UNL     1       4.130  11.025  49.224  1.00  0.00     0.126 C 
HETATM   25  O4  UNL     1       6.263  10.049  48.964  1.00  0.00    -0.266 OA
ENDBRANCH  22  23
ENDBRANCH  14  22
ENDBRANCH   1  10
BRANCH   2  26
HETATM   26  O1  UNL     1       1.260   4.010  49.609  1.00  0.00    -0.395 OA
ATOM     27  H1  UNL     1       0.680   3.357  49.237  1.00  0.00     0.210 HD
ENDBRANCH   2  26
BRANCH   9  28
HETATM   28  O2  UNL     1       5.130   2.065  45.679  1.00  0.00    -0.388 OA
ATOM     29  H2  UNL     1       5.030   1.696  44.810  1.00  0.00     0.210 HD
ENDBRANCH   9  28
BRANCH   9  30
HETATM   30  C13 UNL     1       3.785   0.483  46.772  1.00  0.00     0.078 C 
HETATM   31  C14 UNL     1       5.062  -0.311  46.546  1.00  0.00     0.020 C 
BRANCH  30  32
HETATM   32  C15 UNL     1       2.700  -0.272  46.098  1.00  0.00     0.080 C 
HETATM   33  S1  UNL     1       2.998  -1.000  44.644  1.00  0.00    -0.065 SA
BRANCH  32  34
HETATM   34  N1  UNL     1       1.395  -0.413  46.631  1.00  0.00    -0.381 N 
ATOM     35  H1  UNL     1       0.684   0.278  46.390  1.00  0.00     0.160 HD
BRANCH  34  36
HETATM   36  C16 UNL     1       1.037  -1.516  47.515  1.00  0.00     0.157 C 
BRANCH  36  37
HETATM   37  C17 UNL     1       0.989  -1.115  48.950  1.00  0.00     0.183 C 
HETATM   38  C18 UNL     1       0.179   0.143  49.119  1.00  0.00     0.046 C 
HETATM   39  F1  UNL     1       2.283  -0.819  49.346  1.00  0.00    -0.248 F 
ENDBRANCH  36  37
ENDBRANCH  34  36
ENDBRANCH  32  34
ENDBRANCH  30  32
ENDBRANCH   9  30
TORSDOF 14
ENDMDL
MODEL 4
REMARK VINA RESULT: -7.171346050      7.343     11.110
REMARK  14 active torsions:
REMARK  status: ('A' for Active; 'I' for Inactive)
REMARK    1  A    between atoms: C3_3  and  C4_4 
REMARK    2  A    between atoms: C5_5  and  O1_6 
REMARK    3  A    between atoms: C12_14  and  O2_15 
REMARK    4  A    between atoms: C12_14  and  C13_17 
REMARK    5  A    between atoms: C13_17  and  C15_19 
REMARK    6  A    between atoms: C15_19  and  N1_21 
REMARK    7  A    between atoms: N1_21  and  C16_23 
REMARK    8  A    between atoms: C16_23  and  C17_24 
REMARK    9  A    between atoms: C20_28  and  O3_29 
REMARK   10  A    between atoms: O3_29  and  C21_30 
REMARK   11  A    between atoms: C23_33  and  O5_34 
REMARK   12  A    between atoms: O5_34  and  C24_35 
REMARK   13  A    between atoms: C24_35  and  O7_37 
REMARK   14  A    between atoms: O7_37  and  C25_38 
ROOT
HETATM    1  C4  UNL     1       4.426  12.515  57.592  1.00  0.00     0.028 C 
HETATM    2  C5  UNL     1       3.351  11.889  58.499  1.00  0.00     0.124 C 
HETATM    3  C6  UNL     1       2.114  12.597  57.964  1.00  0.00     0.044 C 
HETATM    4  C7  UNL     1       2.300  12.364  56.478  1.00  0.00    -0.006 C 
HETATM    5  C8  UNL     1       1.908  10.951  56.126  1.00  0.00     0.019 C 
HETATM    6  C9  UNL     1       3.807  12.603  56.260  1.00  0.00     0.004 C 
HETATM    7  C10 UNL     1       3.899  14.016  55.695  1.00  0.00     0.009 C 
HETATM    8  C11 UNL     1       2.512  14.607  55.725  1.00  0.00     0.040 C 
HETATM    9  C12 UNL     1       1.600  13.408  55.689  1.00  0.00     0.075 C 
ENDROOT
BRANCH   1  10
HETATM   10  C3  UNL     1       5.647  11.697  57.775  1.00  0.00     0.026 C 
HETATM   11  C2  UNL     1       6.897  12.182  57.286  1.00  0.00    -0.053 C 
HETATM   12  C1  UNL     1       7.405  13.433  57.162  1.00  0.00     0.017 C 
HETATM   13  C23 UNL     1       7.730  11.037  56.884  1.00  0.00     0.192 C 
HETATM   14  C20 UNL     1       6.976   9.832  57.282  1.00  0.00     0.166 C 
HETATM   15  C19 UNL     1       5.502  10.287  57.262  1.00  0.00     0.045 C 
BRANCH  13  16
HETATM   16  O5  UNL     1       8.179  11.073  55.571  1.00  0.00    -0.286 OA
BRANCH  16  17
HETATM   17  C24 UNL     1       9.477  10.891  55.139  1.00  0.00     0.407 C 
HETATM   18  O6  UNL     1      10.390  11.019  55.976  1.00  0.00    -0.229 OA
BRANCH  17  19
HETATM   19  O7  UNL     1       9.814  10.576  53.835  1.00  0.00    -0.298 OA
BRANCH  19  20
HETATM   20  C25 UNL     1      10.028   9.223  53.493  1.00  0.00     0.176 C 
HETATM   21  C26 UNL     1       9.132   8.925  52.293  1.00  0.00     0.034 C 
ENDBRANCH  19  20
ENDBRANCH  17  19
ENDBRANCH  16  17
ENDBRANCH  13  16
BRANCH  14  22
HETATM   22  O3  UNL     1       7.174   8.712  56.456  1.00  0.00    -0.313 OA
BRANCH  22  23
HETATM   23  C21 UNL     1       8.198   7.825  56.573  1.00  0.00     0.255 C 
HETATM   24  C22 UNL     1       8.266   6.650  55.682  1.00  0.00     0.126 C 
HETATM   25  O4  UNL     1       9.085   8.001  57.435  1.00  0.00    -0.266 OA
ENDBRANCH  22  23
ENDBRANCH  14  22
ENDBRANCH   1  10
BRANCH   2  26
HETATM   26  O1  UNL     1       3.571  12.264  59.802  1.00  0.00    -0.395 OA
ATOM     27  H1  UNL     1       4.383  12.752  59.861  1.00  0.00     0.210 HD
ENDBRANCH   2  26
BRANCH   9  28
HETATM   28  O2  UNL     1       1.497  12.908  54.371  1.00  0.00    -0.388 OA
ATOM     29  H2  UNL     1       2.338  12.516  54.167  1.00  0.00     0.210 HD
ENDBRANCH   9  28
BRANCH   9  30
HETATM   30  C13 UNL     1       0.233  13.787  56.141  1.00  0.00     0.078 C 
HETATM   31  C14 UNL     1       0.142  14.037  57.638  1.00  0.00     0.020 C 
BRANCH  30  32
HETATM   32  C15 UNL     1      -0.798  12.768  55.826  1.00  0.00     0.080 C 
HETATM   33  S1  UNL     1      -1.882  12.319  56.990  1.00  0.00    -0.065 SA
BRANCH  32  34
HETATM   34  N1  UNL     1      -0.917  12.139  54.562  1.00  0.00    -0.381 N 
ATOM     35  H1  UNL     1      -0.719  12.680  53.719  1.00  0.00     0.160 HD
BRANCH  34  36
HETATM   36  C16 UNL     1      -1.316  10.743  54.428  1.00  0.00     0.157 C 
BRANCH  36  37
HETATM   37  C17 UNL     1      -0.316   9.925  53.685  1.00  0.00     0.183 C 
HETATM   38  C18 UNL     1      -0.154  10.439  52.279  1.00  0.00     0.046 C 
HETATM   39  F1  UNL     1      -0.815   8.637  53.590  1.00  0.00    -0.248 F 
ENDBRANCH  36  37
ENDBRANCH  34  36
ENDBRANCH  32  34
ENDBRANCH  30  32
ENDBRANCH   9  30
TORSDOF 14
ENDMDL
MODEL 5
REMARK VINA RESULT: -7.139479280      7.426     11.118
REMARK  14 active torsions:
REMARK  status: ('A' for Active; 'I' for Inactive)
REMARK    1  A    between atoms: C3_3  and  C4_4 
REMARK    2  A    between atoms: C5_5  and  O1_6 
REMARK    3  A    between atoms: C12_14  and  O2_15 
REMARK    4  A    between atoms: C12_14  and  C13_17 
REMARK    5  A    between atoms: C13_17  and  C15_19 
REMARK    6  A    between atoms: C15_19  and  N1_21 
REMARK    7  A    between atoms: N1_21  and  C16_23 
REMARK    8  A    between atoms: C16_23  and  C17_24 
REMARK    9  A    between atoms: C20_28  and  O3_29 
REMARK   10  A    between atoms: O3_29  and  C21_30 
REMARK   11  A    between atoms: C23_33  and  O5_34 
REMARK   12  A    between atoms: O5_34  and  C24_35 
REMARK   13  A    between atoms: C24_35  and  O7_37 
REMARK   14  A    between atoms: O7_37  and  C25_38 
ROOT
HETATM    1  C4  UNL     1       4.419  12.430  57.591  1.00  0.00     0.028 C 
HETATM    2  C5  UNL     1       3.308  11.849  58.484  1.00  0.00     0.124 C 
HETATM    3  C6  UNL     1       2.103  12.581  57.909  1.00  0.00     0.044 C 
HETATM    4  C7  UNL     1       2.315  12.316  56.432  1.00  0.00    -0.006 C 
HETATM    5  C8  UNL     1       1.892  10.908  56.096  1.00  0.00     0.019 C 
HETATM    6  C9  UNL     1       3.833  12.509  56.243  1.00  0.00     0.004 C 
HETATM    7  C10 UNL     1       3.977  13.909  55.656  1.00  0.00     0.009 C 
HETATM    8  C11 UNL     1       2.606  14.538  55.645  1.00  0.00     0.040 C 
HETATM    9  C12 UNL     1       1.662  13.364  55.608  1.00  0.00     0.075 C 
ENDROOT
BRANCH   1  10
HETATM   10  C3  UNL     1       5.613  11.581  57.815  1.00  0.00     0.026 C 
HETATM   11  C2  UNL     1       6.897  12.053  57.408  1.00  0.00    -0.053 C 
HETATM   12  C1  UNL     1       7.435  13.296  57.345  1.00  0.00     0.017 C 
HETATM   13  C23 UNL     1       7.727  10.902  57.019  1.00  0.00     0.192 C 
HETATM   14  C20 UNL     1       6.930   9.702  57.344  1.00  0.00     0.166 C 
HETATM   15  C19 UNL     1       5.468  10.188  57.258  1.00  0.00     0.045 C 
BRANCH  13  16
HETATM   16  O5  UNL     1       8.247  10.963  55.733  1.00  0.00    -0.286 OA
BRANCH  16  17
HETATM   17  C24 UNL     1       9.568  11.157  55.387  1.00  0.00     0.407 C 
HETATM   18  O6  UNL     1      10.441  10.716  56.159  1.00  0.00    -0.229 OA
BRANCH  17  19
HETATM   19  O7  UNL     1       9.971  11.811  54.236  1.00  0.00    -0.298 OA
BRANCH  19  20
HETATM   20  C25 UNL     1      10.418  13.146  54.331  1.00  0.00     0.176 C 
HETATM   21  C26 UNL     1       9.186  14.034  54.171  1.00  0.00     0.034 C 
ENDBRANCH  19  20
ENDBRANCH  17  19
ENDBRANCH  16  17
ENDBRANCH  13  16
BRANCH  14  22
HETATM   22  O3  UNL     1       7.151   8.601  56.499  1.00  0.00    -0.313 OA
BRANCH  22  23
HETATM   23  C21 UNL     1       8.230   7.776  56.555  1.00  0.00     0.255 C 
HETATM   24  C22 UNL     1       8.360   6.659  55.598  1.00  0.00     0.126 C 
HETATM   25  O4  UNL     1       9.116   7.960  57.417  1.00  0.00    -0.266 OA
ENDBRANCH  22  23
ENDBRANCH  14  22
ENDBRANCH   1  10
BRANCH   2  26
HETATM   26  O1  UNL     1       3.509  12.242  59.785  1.00  0.00    -0.395 OA
ATOM     27  H1  UNL     1       2.752  12.725  60.093  1.00  0.00     0.210 HD
ENDBRANCH   2  26
BRANCH   9  28
HETATM   28  O2  UNL     1       1.575  12.843  54.298  1.00  0.00    -0.388 OA
ATOM     29  H2  UNL     1       2.397  12.397  54.132  1.00  0.00     0.210 HD
ENDBRANCH   9  28
BRANCH   9  30
HETATM   30  C13 UNL     1       0.297  13.789  56.023  1.00  0.00     0.078 C 
HETATM   31  C14 UNL     1       0.198  14.144  57.498  1.00  0.00     0.020 C 
BRANCH  30  32
HETATM   32  C15 UNL     1      -0.743  12.761  55.771  1.00  0.00     0.080 C 
HETATM   33  S1  UNL     1      -1.753  12.308  56.999  1.00  0.00    -0.065 SA
BRANCH  32  34
HETATM   34  N1  UNL     1      -0.932  12.127  54.518  1.00  0.00    -0.381 N 
ATOM     35  H1  UNL     1      -0.803  12.671  53.664  1.00  0.00     0.160 HD
BRANCH  34  36
HETATM   36  C16 UNL     1      -1.307  10.722  54.412  1.00  0.00     0.157 C 
BRANCH  36  37
HETATM   37  C17 UNL     1      -0.303   9.912  53.666  1.00  0.00     0.183 C 
HETATM   38  C18 UNL     1      -0.146  10.429  52.261  1.00  0.00     0.046 C 
HETATM   39  F1  UNL     1      -0.795   8.621  53.569  1.00  0.00    -0.248 F 
ENDBRANCH  36  37
ENDBRANCH  34  36
ENDBRANCH  32  34
ENDBRANCH  30  32
ENDBRANCH   9  30
TORSDOF 14
ENDMDL
