MODEL 1
REMARK VINA RESULT: -4.745719320      0.000      0.000
REMARK  3 active torsions:
REMARK  status: ('A' for Active; 'I' for Inactive)
REMARK    1  A    between atoms: C2_2  and  N1_5 
REMARK    2  A    between atoms: N1_5  and  C5_8 
REMARK    3  A    between atoms: C5_8  and  C6_9 
ROOT
HETATM    1  C5  UNL     1     -24.214   6.049 -11.873  1.00  0.00     0.294 C 
ENDROOT
BRANCH   1   2
HETATM    2  N1  UNL     1     -24.899   6.768 -12.935  1.00  0.00    -0.063 N 
ATOM      3  H12 UNL     1     -25.910   6.740 -12.806  1.00  0.00     0.278 HD
ATOM      4  H11 UNL     1     -24.834   6.267 -13.821  1.00  0.00     0.278 HD
BRANCH   2   5
HETATM    5  C2  UNL     1     -24.430   8.117 -13.067  1.00  0.00     0.115 C 
HETATM    6  C1  UNL     1     -22.917   8.149 -13.320  1.00  0.00     0.045 C 
HETATM    7  C3  UNL     1     -24.621   8.924 -11.791  1.00  0.00     0.045 C 
HETATM    8  C4  UNL     1     -25.101   8.753 -14.251  1.00  0.00     0.045 C 
ENDBRANCH   2   5
ENDBRANCH   1   2
BRANCH   1   9
HETATM    9  C6  UNL     1     -23.826   4.694 -12.465  1.00  0.00     0.346 C 
HETATM   10  N2  UNL     1     -22.531   4.245 -12.076  1.00  0.00    -0.045 N 
HETATM   11  C7  UNL     1     -21.714   4.476 -13.237  1.00  0.00     0.261 C 
ATOM     12  H22 UNL     1     -22.177   4.679 -11.223  1.00  0.00     0.280 HD
ATOM     13  H21 UNL     1     -22.507   3.285 -11.731  1.00  0.00     0.280 HD
HETATM   14  C8  UNL     1     -22.687   4.530 -14.389  1.00  0.00     0.198 C 
HETATM   15  O1  UNL     1     -23.892   4.839 -13.825  1.00  0.00    -0.356 OA
ENDBRANCH   1   9
TORSDOF 3
ENDMDL
MODEL 2
REMARK VINA RESULT: -4.728836794      0.974      1.635
REMARK  3 active torsions:
REMARK  status: ('A' for Active; 'I' for Inactive)
REMARK    1  A    between atoms: C2_2  and  N1_5 
REMARK    2  A    between atoms: N1_5  and  C5_8 
REMARK    3  A    between atoms: C5_8  and  C6_9 
ROOT
HETATM    1  C5  UNL     1     -23.752   6.376 -12.813  1.00  0.00     0.294 C 
ENDROOT
BRANCH   1   2
HETATM    2  N1  UNL     1     -23.828   6.978 -14.134  1.00  0.00    -0.063 N 
ATOM      3  H12 UNL     1     -24.565   6.549 -14.693  1.00  0.00     0.278 HD
ATOM      4  H11 UNL     1     -23.022   6.722 -14.703  1.00  0.00     0.278 HD
BRANCH   2   5
HETATM    5  C2  UNL     1     -23.987   8.403 -14.072  1.00  0.00     0.115 C 
HETATM    6  C1  UNL     1     -24.740   8.815 -12.800  1.00  0.00     0.045 C 
HETATM    7  C3  UNL     1     -24.840   8.940 -15.211  1.00  0.00     0.045 C 
HETATM    8  C4  UNL     1     -22.629   9.043 -14.024  1.00  0.00     0.045 C 
ENDBRANCH   2   5
ENDBRANCH   1   2
BRANCH   1   9
HETATM    9  C6  UNL     1     -23.426   4.900 -13.042  1.00  0.00     0.346 C 
HETATM   10  N2  UNL     1     -22.179   4.493 -12.483  1.00  0.00    -0.045 N 
HETATM   11  C7  UNL     1     -21.300   4.395 -13.617  1.00  0.00     0.261 C 
ATOM     12  H22 UNL     1     -21.836   5.100 -11.739  1.00  0.00     0.280 HD
ATOM     13  H21 UNL     1     -22.231   3.644 -11.920  1.00  0.00     0.280 HD
HETATM   14  C8  UNL     1     -22.216   4.219 -14.803  1.00  0.00     0.198 C 
HETATM   15  O1  UNL     1     -23.422   4.717 -14.399  1.00  0.00    -0.356 OA
ENDBRANCH   1   9
TORSDOF 3
ENDMDL
MODEL 3
REMARK VINA RESULT: -4.669204110      0.423      1.364
REMARK  3 active torsions:
REMARK  status: ('A' for Active; 'I' for Inactive)
REMARK    1  A    between atoms: C2_2  and  N1_5 
REMARK    2  A    between atoms: N1_5  and  C5_8 
REMARK    3  A    between atoms: C5_8  and  C6_9 
ROOT
HETATM    1  C5  UNL     1     -23.880   6.343 -12.174  1.00  0.00     0.294 C 
ENDROOT
BRANCH   1   2
HETATM    2  N1  UNL     1     -24.722   6.958 -13.186  1.00  0.00    -0.063 N 
ATOM      3  H12 UNL     1     -25.706   6.921 -12.919  1.00  0.00     0.278 HD
ATOM      4  H11 UNL     1     -24.761   6.386 -14.030  1.00  0.00     0.278 HD
BRANCH   2   5
HETATM    5  C2  UNL     1     -24.317   8.301 -13.488  1.00  0.00     0.115 C 
HETATM    6  C1  UNL     1     -25.121   8.864 -14.667  1.00  0.00     0.045 C 
HETATM    7  C3  UNL     1     -22.867   8.378 -13.942  1.00  0.00     0.045 C 
HETATM    8  C4  UNL     1     -24.590   9.172 -12.295  1.00  0.00     0.045 C 
ENDBRANCH   2   5
ENDBRANCH   1   2
BRANCH   1   9
HETATM    9  C6  UNL     1     -23.638   4.908 -12.643  1.00  0.00     0.346 C 
HETATM   10  N2  UNL     1     -22.367   4.386 -12.265  1.00  0.00    -0.045 N 
HETATM   11  C7  UNL     1     -21.592   4.431 -13.476  1.00  0.00     0.261 C 
ATOM     12  H22 UNL     1     -21.935   4.866 -11.475  1.00  0.00     0.280 HD
ATOM     13  H21 UNL     1     -22.406   3.465 -11.827  1.00  0.00     0.280 HD
HETATM   14  C8  UNL     1     -22.614   4.459 -14.586  1.00  0.00     0.198 C 
HETATM   15  O1  UNL     1     -23.759   4.928 -14.006  1.00  0.00    -0.356 OA
ENDBRANCH   1   9
TORSDOF 3
ENDMDL
MODEL 4
REMARK VINA RESULT: -4.624776838      1.332      1.864
REMARK  3 active torsions:
REMARK  status: ('A' for Active; 'I' for Inactive)
REMARK    1  A    between atoms: C2_2  and  N1_5 
REMARK    2  A    between atoms: N1_5  and  C5_8 
REMARK    3  A    between atoms: C5_8  and  C6_9 
ROOT
HETATM    1  C5  UNL     1     -24.037   7.531 -12.315  1.00  0.00     0.294 C 
ENDROOT
BRANCH   1   2
HETATM    2  N1  UNL     1     -25.020   8.465 -12.839  1.00  0.00    -0.063 N 
ATOM      3  H12 UNL     1     -25.502   8.955 -12.085  1.00  0.00     0.278 HD
ATOM      4  H11 UNL     1     -25.815   7.973 -13.247  1.00  0.00     0.278 HD
BRANCH   2   5
HETATM    5  C2  UNL     1     -24.446   9.389 -13.774  1.00  0.00     0.115 C 
HETATM    6  C1  UNL     1     -24.857   9.040 -15.211  1.00  0.00     0.045 C 
HETATM    7  C3  UNL     1     -22.927   9.330 -13.786  1.00  0.00     0.045 C 
HETATM    8  C4  UNL     1     -24.963  10.768 -13.477  1.00  0.00     0.045 C 
ENDBRANCH   2   5
ENDBRANCH   1   2
BRANCH   1   9
HETATM    9  C6  UNL     1     -24.456   6.151 -12.823  1.00  0.00     0.346 C 
HETATM   10  N2  UNL     1     -24.276   5.107 -11.869  1.00  0.00    -0.045 N 
HETATM   11  C7  UNL     1     -23.099   4.416 -12.321  1.00  0.00     0.261 C 
ATOM     12  H22 UNL     1     -24.227   5.429 -10.902  1.00  0.00     0.280 HD
ATOM     13  H21 UNL     1     -25.093   4.508 -11.746  1.00  0.00     0.280 HD
HETATM   14  C8  UNL     1     -22.991   4.755 -13.788  1.00  0.00     0.198 C 
HETATM   15  O1  UNL     1     -23.702   5.911 -13.940  1.00  0.00    -0.356 OA
ENDBRANCH   1   9
TORSDOF 3
ENDMDL
MODEL 5
REMARK VINA RESULT: -4.620022244      2.199      4.546
REMARK  3 active torsions:
REMARK  status: ('A' for Active; 'I' for Inactive)
REMARK    1  A    between atoms: C2_2  and  N1_5 
REMARK    2  A    between atoms: N1_5  and  C5_8 
REMARK    3  A    between atoms: C5_8  and  C6_9 
ROOT
HETATM    1  C5  UNL     1     -23.636   7.008 -13.805  1.00  0.00     0.294 C 
ENDROOT
BRANCH   1   2
HETATM    2  N1  UNL     1     -22.342   6.509 -13.368  1.00  0.00    -0.063 N 
ATOM      3  H12 UNL     1     -22.069   6.924 -12.478  1.00  0.00     0.278 HD
ATOM      4  H11 UNL     1     -21.590   6.871 -13.955  1.00  0.00     0.278 HD
BRANCH   2   5
HETATM    5  C2  UNL     1     -22.307   5.076 -13.305  1.00  0.00     0.115 C 
HETATM    6  C1  UNL     1     -22.884   4.457 -14.586  1.00  0.00     0.045 C 
HETATM    7  C3  UNL     1     -23.179   4.524 -12.188  1.00  0.00     0.045 C 
HETATM    8  C4  UNL     1     -20.878   4.628 -13.189  1.00  0.00     0.045 C 
ENDBRANCH   2   5
ENDBRANCH   1   2
BRANCH   1   9
HETATM    9  C6  UNL     1     -23.375   8.397 -14.389  1.00  0.00     0.346 C 
HETATM   10  N2  UNL     1     -22.116   8.952 -14.013  1.00  0.00    -0.045 N 
HETATM   11  C7  UNL     1     -22.448   9.932 -13.014  1.00  0.00     0.261 C 
ATOM     12  H22 UNL     1     -21.429   8.262 -13.710  1.00  0.00     0.280 HD
ATOM     13  H21 UNL     1     -21.571   9.318 -14.794  1.00  0.00     0.280 HD
HETATM   14  C8  UNL     1     -23.898  10.266 -13.267  1.00  0.00     0.198 C 
HETATM   15  O1  UNL     1     -24.397   9.194 -13.950  1.00  0.00    -0.356 OA
ENDBRANCH   1   9
TORSDOF 3
ENDMDL
