MODEL 1
REMARK VINA RESULT: -5.556333872      0.000      0.000
REMARK  3 active torsions:
REMARK  status: ('A' for Active; 'I' for Inactive)
REMARK    1  A    between atoms: N1_1  and  C1_5 
REMARK    2  A    between atoms: C3_7  and  C4_8 
REMARK    3  A    between atoms: C5_9  and  C6_10 
ROOT
HETATM    1  C4  UNL     1     -23.158   6.969 -13.312  1.00  0.00    -0.021 C 
HETATM    2  C5  UNL     1     -23.796   7.744 -12.459  1.00  0.00     0.003 C 
ENDROOT
BRANCH   2   3
HETATM    3  C6  UNL     1     -24.555   8.911 -12.942  1.00  0.00     0.169 C 
HETATM    4  C7  UNL     1     -23.641  10.048 -13.255  1.00  0.00     0.268 C 
HETATM    5  N2  UNL     1     -24.220  11.100 -14.015  1.00  0.00    -0.070 N 
HETATM    6  C8  UNL     1     -25.385  10.707 -14.774  1.00  0.00     0.258 C 
ATOM      7  H22 UNL     1     -24.435  11.897 -13.416  1.00  0.00     0.277 HD
ATOM      8  H21 UNL     1     -23.522  11.527 -14.625  1.00  0.00     0.277 HD
HETATM    9  C9  UNL     1     -25.214   9.248 -15.136  1.00  0.00     0.196 C 
HETATM   10  O1  UNL     1     -25.349   8.507 -13.992  1.00  0.00    -0.379 OA
ENDBRANCH   2   3
BRANCH   1  11
HETATM   11  C3  UNL     1     -22.375   5.777 -12.900  1.00  0.00     0.040 A 
HETATM   12  C1  UNL     1     -22.393   4.627 -13.861  1.00  0.00     0.191 A 
HETATM   13  C2  UNL     1     -23.025   4.512 -12.526  1.00  0.00     0.044 A 
BRANCH  12  14
HETATM   14  N1  UNL     1     -21.149   3.991 -14.179  1.00  0.00    -0.074 N 
ATOM     15  H13 UNL     1     -20.855   4.331 -15.095  1.00  0.00     0.274 HD
ATOM     16  H12 UNL     1     -20.436   4.383 -13.564  1.00  0.00     0.274 HD
ATOM     17  H11 UNL     1     -21.037   2.977 -14.175  1.00  0.00     0.274 HD
ENDBRANCH  12  14
ENDBRANCH   1  11
TORSDOF 3
ENDMDL
MODEL 2
REMARK VINA RESULT: -5.473444405      1.383      1.594
REMARK  3 active torsions:
REMARK  status: ('A' for Active; 'I' for Inactive)
REMARK    1  A    between atoms: N1_1  and  C1_5 
REMARK    2  A    between atoms: C3_7  and  C4_8 
REMARK    3  A    between atoms: C5_9  and  C6_10 
ROOT
HETATM    1  C4  UNL     1     -22.751   7.220 -13.228  1.00  0.00    -0.021 C 
HETATM    2  C5  UNL     1     -22.311   8.313 -12.641  1.00  0.00     0.003 C 
ENDROOT
BRANCH   2   3
HETATM    3  C6  UNL     1     -22.802   9.635 -13.071  1.00  0.00     0.169 C 
HETATM    4  C7  UNL     1     -23.510   9.540 -14.380  1.00  0.00     0.268 C 
HETATM    5  N2  UNL     1     -24.288  10.675 -14.733  1.00  0.00    -0.070 N 
HETATM    6  C8  UNL     1     -24.679  11.494 -13.610  1.00  0.00     0.258 C 
ATOM      7  H22 UNL     1     -23.804  11.237 -15.434  1.00  0.00     0.277 HD
ATOM      8  H21 UNL     1     -25.107  10.394 -15.274  1.00  0.00     0.277 HD
HETATM    9  C9  UNL     1     -24.811  10.580 -12.411  1.00  0.00     0.196 C 
HETATM   10  O1  UNL     1     -23.555  10.170 -12.049  1.00  0.00    -0.379 OA
ENDBRANCH   2   3
BRANCH   1  11
HETATM   11  C3  UNL     1     -22.303   5.856 -12.848  1.00  0.00     0.040 A 
HETATM   12  C1  UNL     1     -22.333   4.836 -13.946  1.00  0.00     0.191 A 
HETATM   13  C2  UNL     1     -23.238   4.722 -12.779  1.00  0.00     0.044 A 
BRANCH  12  14
HETATM   14  N1  UNL     1     -21.188   3.991 -14.116  1.00  0.00    -0.074 N 
ATOM     15  H13 UNL     1     -20.927   3.637 -13.196  1.00  0.00     0.274 HD
ATOM     16  H12 UNL     1     -21.498   3.145 -14.594  1.00  0.00     0.274 HD
ATOM     17  H11 UNL     1     -20.336   4.311 -14.577  1.00  0.00     0.274 HD
ENDBRANCH  12  14
ENDBRANCH   1  11
TORSDOF 3
ENDMDL
MODEL 3
REMARK VINA RESULT: -5.385598847      1.506      5.516
REMARK  3 active torsions:
REMARK  status: ('A' for Active; 'I' for Inactive)
REMARK    1  A    between atoms: N1_1  and  C1_5 
REMARK    2  A    between atoms: C3_7  and  C4_8 
REMARK    3  A    between atoms: C5_9  and  C6_10 
ROOT
HETATM    1  C4  UNL     1     -24.304   8.303 -14.281  1.00  0.00    -0.021 C 
HETATM    2  C5  UNL     1     -23.248   7.539 -14.096  1.00  0.00     0.003 C 
ENDROOT
BRANCH   2   3
HETATM    3  C6  UNL     1     -23.413   6.127 -13.709  1.00  0.00     0.169 C 
HETATM    4  C7  UNL     1     -22.207   5.628 -12.988  1.00  0.00     0.268 C 
HETATM    5  N2  UNL     1     -22.377   4.396 -12.300  1.00  0.00    -0.070 N 
HETATM    6  C8  UNL     1     -23.751   4.083 -11.983  1.00  0.00     0.258 C 
ATOM      7  H22 UNL     1     -21.947   3.633 -12.823  1.00  0.00     0.277 HD
ATOM      8  H21 UNL     1     -21.801   4.373 -11.458  1.00  0.00     0.277 HD
HETATM    9  C9  UNL     1     -24.478   5.395 -11.786  1.00  0.00     0.196 C 
HETATM   10  O1  UNL     1     -24.593   6.005 -13.008  1.00  0.00    -0.379 OA
ENDBRANCH   2   3
BRANCH   1  11
HETATM   11  C3  UNL     1     -24.216   9.733 -14.672  1.00  0.00     0.040 A 
HETATM   12  C1  UNL     1     -24.974  10.690 -13.802  1.00  0.00     0.191 A 
HETATM   13  C2  UNL     1     -25.373  10.464 -15.211  1.00  0.00     0.044 A 
BRANCH  12  14
HETATM   14  N1  UNL     1     -24.311  11.886 -13.374  1.00  0.00    -0.074 N 
ATOM     15  H13 UNL     1     -23.414  11.614 -12.971  1.00  0.00     0.274 HD
ATOM     16  H12 UNL     1     -24.026  12.396 -14.210  1.00  0.00     0.274 HD
ATOM     17  H11 UNL     1     -24.746  12.554 -12.738  1.00  0.00     0.274 HD
ENDBRANCH  12  14
ENDBRANCH   1  11
TORSDOF 3
ENDMDL
MODEL 4
REMARK VINA RESULT: -5.032266046      1.726      5.518
REMARK  3 active torsions:
REMARK  status: ('A' for Active; 'I' for Inactive)
REMARK    1  A    between atoms: N1_1  and  C1_5 
REMARK    2  A    between atoms: C3_7  and  C4_8 
REMARK    3  A    between atoms: C5_9  and  C6_10 
ROOT
HETATM    1  C4  UNL     1     -24.156   9.232 -12.936  1.00  0.00    -0.021 C 
HETATM    2  C5  UNL     1     -24.770   8.070 -13.027  1.00  0.00     0.003 C 
ENDROOT
BRANCH   2   3
HETATM    3  C6  UNL     1     -24.026   6.868 -13.441  1.00  0.00     0.169 C 
HETATM    4  C7  UNL     1     -22.602   6.947 -13.004  1.00  0.00     0.268 C 
HETATM    5  N2  UNL     1     -21.878   5.725 -13.068  1.00  0.00    -0.070 N 
HETATM    6  C8  UNL     1     -22.711   4.546 -13.052  1.00  0.00     0.258 C 
ATOM      7  H22 UNL     1     -21.262   5.717 -13.882  1.00  0.00     0.277 HD
ATOM      8  H21 UNL     1     -21.182   5.682 -12.324  1.00  0.00     0.277 HD
HETATM    9  C9  UNL     1     -23.951   4.881 -12.252  1.00  0.00     0.196 C 
HETATM   10  O1  UNL     1     -24.705   5.760 -12.985  1.00  0.00    -0.379 OA
ENDBRANCH   2   3
BRANCH   1  11
HETATM   11  C3  UNL     1     -24.841  10.484 -12.526  1.00  0.00     0.040 A 
HETATM   12  C1  UNL     1     -23.939  11.628 -12.173  1.00  0.00     0.191 A 
HETATM   13  C2  UNL     1     -24.785  10.982 -11.142  1.00  0.00     0.044 A 
BRANCH  12  14
HETATM   14  N1  UNL     1     -24.241  12.920 -12.715  1.00  0.00    -0.074 N 
ATOM     15  H13 UNL     1     -24.627  12.780 -13.649  1.00  0.00     0.274 HD
ATOM     16  H12 UNL     1     -25.043  13.289 -12.204  1.00  0.00     0.274 HD
ATOM     17  H11 UNL     1     -23.545  13.663 -12.776  1.00  0.00     0.274 HD
ENDBRANCH  12  14
ENDBRANCH   1  11
TORSDOF 3
ENDMDL
MODEL 5
REMARK VINA RESULT: -4.895833506      2.091      2.564
REMARK  3 active torsions:
REMARK  status: ('A' for Active; 'I' for Inactive)
REMARK    1  A    between atoms: N1_1  and  C1_5 
REMARK    2  A    between atoms: C3_7  and  C4_8 
REMARK    3  A    between atoms: C5_9  and  C6_10 
ROOT
HETATM    1  C4  UNL     1     -23.660   7.417 -12.806  1.00  0.00    -0.021 C 
HETATM    2  C5  UNL     1     -24.084   8.406 -13.565  1.00  0.00     0.003 C 
ENDROOT
BRANCH   2   3
HETATM    3  C6  UNL     1     -23.737   9.799 -13.231  1.00  0.00     0.169 C 
HETATM    4  C7  UNL     1     -24.585  10.757 -13.998  1.00  0.00     0.268 C 
HETATM    5  N2  UNL     1     -24.558  12.099 -13.531  1.00  0.00    -0.070 N 
HETATM    6  C8  UNL     1     -24.149  12.236 -12.152  1.00  0.00     0.258 C 
ATOM      7  H22 UNL     1     -23.974  12.676 -14.136  1.00  0.00     0.277 HD
ATOM      8  H21 UNL     1     -25.461  12.549 -13.683  1.00  0.00     0.277 HD
HETATM    9  C9  UNL     1     -24.584  10.980 -11.428  1.00  0.00     0.196 C 
HETATM   10  O1  UNL     1     -23.799   9.944 -11.863  1.00  0.00    -0.379 OA
ENDBRANCH   2   3
BRANCH   1  11
HETATM   11  C3  UNL     1     -23.969   5.991 -13.080  1.00  0.00     0.040 A 
HETATM   12  C1  UNL     1     -24.365   5.174 -11.887  1.00  0.00     0.191 A 
HETATM   13  C2  UNL     1     -23.098   4.903 -12.607  1.00  0.00     0.044 A 
BRANCH  12  14
HETATM   14  N1  UNL     1     -25.510   4.321 -12.001  1.00  0.00    -0.074 N 
ATOM     15  H13 UNL     1     -25.631   3.847 -11.106  1.00  0.00     0.274 HD
ATOM     16  H12 UNL     1     -26.336   4.918 -12.042  1.00  0.00     0.274 HD
ATOM     17  H11 UNL     1     -25.600   3.621 -12.737  1.00  0.00     0.274 HD
ENDBRANCH  12  14
ENDBRANCH   1  11
TORSDOF 3
ENDMDL
