MODEL 1
REMARK VINA RESULT: -5.508897882      0.000      0.000
REMARK  2 active torsions:
REMARK  status: ('A' for Active; 'I' for Inactive)
REMARK    1  A    between atoms: C4_4  and  C5_5 
REMARK    2  A    between atoms: C5_5  and  C6_6 
ROOT
HETATM    1  C1  UNL     1     -20.892 -16.832  15.404  1.00  0.00     0.012 C 
HETATM    2  C2  UNL     1     -19.641 -16.518  16.149  1.00  0.00     0.014 C 
HETATM    3  C3  UNL     1     -18.654 -17.668  15.975  1.00  0.00     0.039 C 
HETATM    4  C4  UNL     1     -18.552 -18.329  17.330  1.00  0.00     0.188 C 
HETATM    5  N2  UNL     1     -19.593 -17.776  18.146  1.00  0.00    -0.067 N 
ATOM      6  H21 UNL     1     -19.401 -17.809  19.148  1.00  0.00     0.278 HD
ATOM      7  H22 UNL     1     -20.443 -18.338  18.178  1.00  0.00     0.278 HD
HETATM    8  C9  UNL     1     -19.780 -16.453  17.625  1.00  0.00     0.186 C 
HETATM    9  C10 UNL     1     -21.078 -15.871  18.105  1.00  0.00     0.040 C 
ENDROOT
BRANCH   4  10
HETATM   10  C5  UNL     1     -17.218 -18.115  17.972  1.00  0.00     0.066 C 
BRANCH  10  11
HETATM   11  C6  UNL     1     -16.199 -17.577  17.011  1.00  0.00     0.189 C 
HETATM   12  C7  UNL     1     -14.835 -18.180  17.014  1.00  0.00     0.060 C 
HETATM   13  C8  UNL     1     -14.349 -16.735  16.804  1.00  0.00     0.235 C 
HETATM   14  N1  UNL     1     -15.592 -16.327  17.445  1.00  0.00    -0.071 N 
ATOM     15  H12 UNL     1     -16.025 -15.434  17.209  1.00  0.00     0.277 HD
ATOM     16  H11 UNL     1     -15.602 -16.063  18.430  1.00  0.00     0.277 HD
ENDBRANCH  10  11
ENDBRANCH   4  10
TORSDOF 2
ENDMDL
MODEL 2
REMARK VINA RESULT: -5.133920484      1.547      4.901
REMARK  2 active torsions:
REMARK  status: ('A' for Active; 'I' for Inactive)
REMARK    1  A    between atoms: C4_4  and  C5_5 
REMARK    2  A    between atoms: C5_5  and  C6_6 
ROOT
HETATM    1  C1  UNL     1     -14.693 -16.974  17.400  1.00  0.00     0.012 C 
HETATM    2  C2  UNL     1     -15.810 -17.829  16.911  1.00  0.00     0.014 C 
HETATM    3  C3  UNL     1     -17.005 -16.943  16.570  1.00  0.00     0.039 C 
HETATM    4  C4  UNL     1     -18.055 -17.254  17.612  1.00  0.00     0.188 C 
HETATM    5  N2  UNL     1     -17.422 -18.050  18.622  1.00  0.00    -0.067 N 
ATOM      6  H21 UNL     1     -18.061 -18.653  19.140  1.00  0.00     0.278 HD
ATOM      7  H22 UNL     1     -17.092 -17.520  19.428  1.00  0.00     0.278 HD
HETATM    8  C9  UNL     1     -16.390 -18.753  17.917  1.00  0.00     0.186 C 
HETATM    9  C10 UNL     1     -15.393 -19.337  18.876  1.00  0.00     0.040 C 
ENDROOT
BRANCH   4  10
HETATM   10  C5  UNL     1     -19.232 -17.978  17.040  1.00  0.00     0.066 C 
BRANCH  10  11
HETATM   11  C6  UNL     1     -19.965 -17.161  16.016  1.00  0.00     0.189 C 
HETATM   12  C7  UNL     1     -21.212 -16.458  16.433  1.00  0.00     0.060 C 
HETATM   13  C8  UNL     1     -21.738 -16.864  15.045  1.00  0.00     0.235 C 
HETATM   14  N1  UNL     1     -20.779 -17.958  15.109  1.00  0.00    -0.071 N 
ATOM     15  H12 UNL     1     -20.374 -18.341  14.254  1.00  0.00     0.277 HD
ATOM     16  H11 UNL     1     -21.082 -18.895  15.375  1.00  0.00     0.277 HD
ENDBRANCH  10  11
ENDBRANCH   4  10
TORSDOF 2
ENDMDL
MODEL 3
REMARK VINA RESULT: -5.128064230      1.350      1.654
REMARK  2 active torsions:
REMARK  status: ('A' for Active; 'I' for Inactive)
REMARK    1  A    between atoms: C4_4  and  C5_5 
REMARK    2  A    between atoms: C5_5  and  C6_6 
ROOT
HETATM    1  C1  UNL     1     -21.786 -17.028  15.580  1.00  0.00     0.012 C 
HETATM    2  C2  UNL     1     -20.396 -16.517  15.732  1.00  0.00     0.014 C 
HETATM    3  C3  UNL     1     -19.414 -17.600  15.294  1.00  0.00     0.039 C 
HETATM    4  C4  UNL     1     -18.717 -18.056  16.555  1.00  0.00     0.188 C 
HETATM    5  N2  UNL     1     -19.425 -17.478  17.659  1.00  0.00    -0.067 N 
ATOM      6  H21 UNL     1     -18.861 -17.356  18.500  1.00  0.00     0.278 HD
ATOM      7  H22 UNL     1     -20.120 -18.094  18.080  1.00  0.00     0.278 HD
HETATM    8  C9  UNL     1     -19.964 -16.259  17.129  1.00  0.00     0.186 C 
HETATM    9  C10 UNL     1     -21.040 -15.718  18.025  1.00  0.00     0.040 C 
ENDROOT
BRANCH   4  10
HETATM   10  C5  UNL     1     -17.278 -17.652  16.591  1.00  0.00     0.066 C 
BRANCH  10  11
HETATM   11  C6  UNL     1     -16.607 -18.034  17.878  1.00  0.00     0.189 C 
HETATM   12  C7  UNL     1     -15.147 -18.337  17.853  1.00  0.00     0.060 C 
HETATM   13  C8  UNL     1     -15.504 -19.449  18.855  1.00  0.00     0.235 C 
HETATM   14  N1  UNL     1     -16.836 -19.418  18.266  1.00  0.00    -0.071 N 
ATOM     15  H12 UNL     1     -17.653 -19.670  18.823  1.00  0.00     0.277 HD
ATOM     16  H11 UNL     1     -17.108 -20.111  17.569  1.00  0.00     0.277 HD
ENDBRANCH  10  11
ENDBRANCH   4  10
TORSDOF 2
ENDMDL
MODEL 4
REMARK VINA RESULT: -5.041901349      1.567      4.992
REMARK  2 active torsions:
REMARK  status: ('A' for Active; 'I' for Inactive)
REMARK    1  A    between atoms: C4_4  and  C5_5 
REMARK    2  A    between atoms: C5_5  and  C6_6 
ROOT
HETATM    1  C1  UNL     1     -15.855 -19.451  18.553  1.00  0.00     0.012 C 
HETATM    2  C2  UNL     1     -16.621 -18.182  18.404  1.00  0.00     0.014 C 
HETATM    3  C3  UNL     1     -17.998 -18.495  17.827  1.00  0.00     0.039 C 
HETATM    4  C4  UNL     1     -17.996 -17.927  16.427  1.00  0.00     0.188 C 
HETATM    5  N2  UNL     1     -16.644 -17.556  16.127  1.00  0.00    -0.067 N 
ATOM      6  H21 UNL     1     -16.558 -16.818  15.428  1.00  0.00     0.278 HD
ATOM      7  H22 UNL     1     -16.122 -18.262  15.607  1.00  0.00     0.278 HD
HETATM    8  C9  UNL     1     -16.079 -17.228  17.403  1.00  0.00     0.186 C 
HETATM    9  C10 UNL     1     -14.581 -17.186  17.328  1.00  0.00     0.040 C 
ENDROOT
BRANCH   4  10
HETATM   10  C5  UNL     1     -18.902 -16.745  16.287  1.00  0.00     0.066 C 
BRANCH  10  11
HETATM   11  C6  UNL     1     -20.349 -17.138  16.214  1.00  0.00     0.189 C 
HETATM   12  C7  UNL     1     -20.805 -17.943  15.045  1.00  0.00     0.060 C 
HETATM   13  C8  UNL     1     -22.067 -17.064  15.111  1.00  0.00     0.235 C 
HETATM   14  N1  UNL     1     -21.220 -16.067  15.753  1.00  0.00    -0.071 N 
ATOM     15  H12 UNL     1     -21.618 -15.402  16.417  1.00  0.00     0.277 HD
ATOM     16  H11 UNL     1     -20.841 -15.289  15.214  1.00  0.00     0.277 HD
ENDBRANCH  10  11
ENDBRANCH   4  10
TORSDOF 2
ENDMDL
MODEL 5
REMARK VINA RESULT: -4.759042672      1.916      2.628
REMARK  2 active torsions:
REMARK  status: ('A' for Active; 'I' for Inactive)
REMARK    1  A    between atoms: C4_4  and  C5_5 
REMARK    2  A    between atoms: C5_5  and  C6_6 
ROOT
HETATM    1  C1  UNL     1     -20.485 -16.206  17.716  1.00  0.00     0.012 C 
HETATM    2  C2  UNL     1     -19.514 -17.333  17.651  1.00  0.00     0.014 C 
HETATM    3  C3  UNL     1     -18.140 -16.836  18.090  1.00  0.00     0.039 C 
HETATM    4  C4  UNL     1     -17.282 -16.849  16.845  1.00  0.00     0.188 C 
HETATM    5  N2  UNL     1     -18.159 -17.078  15.734  1.00  0.00    -0.067 N 
ATOM      6  H21 UNL     1     -17.707 -17.507  14.927  1.00  0.00     0.278 HD
ATOM      7  H22 UNL     1     -18.459 -16.229  15.255  1.00  0.00     0.278 HD
HETATM    8  C9  UNL     1     -19.232 -17.851  16.289  1.00  0.00     0.186 C 
HETATM    9  C10 UNL     1     -20.416 -17.856  15.366  1.00  0.00     0.040 C 
ENDROOT
BRANCH   4  10
HETATM   10  C5  UNL     1     -16.219 -17.900  16.894  1.00  0.00     0.066 C 
BRANCH  10  11
HETATM   11  C6  UNL     1     -16.066 -18.497  18.263  1.00  0.00     0.189 C 
HETATM   12  C7  UNL     1     -14.689 -18.664  18.811  1.00  0.00     0.060 C 
HETATM   13  C8  UNL     1     -15.226 -19.994  19.369  1.00  0.00     0.235 C 
HETATM   14  N1  UNL     1     -16.196 -19.946  18.284  1.00  0.00    -0.071 N 
ATOM     15  H12 UNL     1     -17.113 -20.381  18.391  1.00  0.00     0.277 HD
ATOM     16  H11 UNL     1     -16.046 -20.490  17.434  1.00  0.00     0.277 HD
ENDBRANCH  10  11
ENDBRANCH   4  10
TORSDOF 2
ENDMDL
