MODEL 1
REMARK VINA RESULT: -6.461938970      0.000      0.000
REMARK  4 active torsions:
REMARK  status: ('A' for Active; 'I' for Inactive)
REMARK    1  A    between atoms: O1_2  and  C2_3 
REMARK    2  A    between atoms: C7_14  and  N4_15 
REMARK    3  A    between atoms: C8_17  and  N5_18 
REMARK       I    between atoms: N5_18  and  C9_20 
REMARK       I    between atoms: C9_20  and  N6_22 
REMARK    4  A    between atoms: N6_22  and  O3_24 
ROOT
HETATM    1  C2  UNL     1       9.946  54.031   3.340  1.00  0.00     0.175 A 
HETATM    2  N1  UNL     1      11.287  54.113   3.289  1.00  0.00    -0.325 N 
ATOM      3  H1  UNL     1      11.819  53.310   2.955  1.00  0.00     0.169 HD
HETATM    4  C3  UNL     1      11.951  55.226   3.668  1.00  0.00     0.080 A 
HETATM    5  C4  UNL     1      13.429  55.294   3.603  1.00  0.00     0.089 C 
HETATM    6  N2  UNL     1      11.266  56.286   4.108  1.00  0.00    -0.329 N 
ATOM      7  H2  UNL     1      11.783  57.119   4.390  1.00  0.00     0.168 HD
HETATM    8  C5  UNL     1       9.915  56.301   4.196  1.00  0.00     0.154 A 
HETATM    9  C6  UNL     1       9.260  55.132   3.797  1.00  0.00     0.145 A 
HETATM   10  N3  UNL     1       7.838  55.146   3.888  1.00  0.00    -0.182 N 
ATOM     11  H3  UNL     1       7.296  54.327   3.613  1.00  0.00     0.184 HD
HETATM   12  C7  UNL     1       7.179  56.312   4.367  1.00  0.00     0.698 A 
HETATM   13  N7  UNL     1       7.821  57.372   4.727  1.00  0.00    -0.130 N 
ATOM     14  H7  UNL     1       7.301  58.182   5.064  1.00  0.00     0.205 HD
HETATM   15  N8  UNL     1       9.205  57.429   4.664  1.00  0.00    -0.269 N 
ATOM     16  H8  UNL     1       9.703  58.272   4.950  1.00  0.00     0.189 HD
ENDROOT
BRANCH  12  17
HETATM   17  N4  UNL     1       5.767  56.304   4.450  1.00  0.00    -0.186 N 
HETATM   18  C8  UNL     1       5.039  57.096   3.760  1.00  0.00     0.202 C 
ATOM     19  H4  UNL     1       5.315  55.644   5.082  1.00  0.00     0.185 HD
BRANCH  18  20
HETATM   20  N5  UNL     1       5.644  58.016   2.882  1.00  0.00    -0.303 N 
HETATM   21  C9  UNL     1       4.905  58.515   1.779  1.00  0.00     0.346 C 
HETATM   22  O2  UNL     1       3.725  58.138   1.590  1.00  0.00    -0.245 OA
HETATM   23  N6  UNL     1       5.483  59.436   0.883  1.00  0.00    -0.215 N 
HETATM   24  C10 UNL     1       4.711  59.929  -0.232  1.00  0.00     0.190 C 
ATOM     25  H5  UNL     1       6.604  58.321   3.038  1.00  0.00     0.171 HD
BRANCH  23  26
HETATM   26  O3  UNL     1       6.739  59.847   1.069  1.00  0.00    -0.284 OA
ATOM     27  H3  UNL     1       7.279  60.076   0.321  1.00  0.00     0.245 HD
ENDBRANCH  23  26
ENDBRANCH  18  20
ENDBRANCH  12  17
BRANCH   1  28
HETATM   28  O1  UNL     1       9.263  52.894   2.954  1.00  0.00    -0.339 OA
HETATM   29  C1  UNL     1       9.837  51.777   2.356  1.00  0.00     0.211 C 
ENDBRANCH   1  28
TORSDOF 4
ENDMDL
MODEL 2
REMARK VINA RESULT: -5.069708549      8.660      9.675
REMARK  4 active torsions:
REMARK  status: ('A' for Active; 'I' for Inactive)
REMARK    1  A    between atoms: O1_2  and  C2_3 
REMARK    2  A    between atoms: C7_14  and  N4_15 
REMARK    3  A    between atoms: C8_17  and  N5_18 
REMARK       I    between atoms: N5_18  and  C9_20 
REMARK       I    between atoms: C9_20  and  N6_22 
REMARK    4  A    between atoms: N6_22  and  O3_24 
ROOT
HETATM    1  C2  UNL     1      14.724  60.466  11.180  1.00  0.00     0.175 A 
HETATM    2  N1  UNL     1      15.768  61.260  11.474  1.00  0.00    -0.325 N 
ATOM      3  H1  UNL     1      16.688  60.839  11.603  1.00  0.00     0.169 HD
HETATM    4  C3  UNL     1      15.638  62.597  11.604  1.00  0.00     0.080 A 
HETATM    5  C4  UNL     1      16.803  63.452  11.928  1.00  0.00     0.089 C 
HETATM    6  N2  UNL     1      14.439  63.163  11.437  1.00  0.00    -0.329 N 
ATOM      7  H2  UNL     1      14.357  64.174  11.538  1.00  0.00     0.168 HD
HETATM    8  C5  UNL     1      13.326  62.449  11.139  1.00  0.00     0.154 A 
HETATM    9  C6  UNL     1      13.498  61.068  11.013  1.00  0.00     0.145 A 
HETATM   10  N3  UNL     1      12.328  60.316  10.699  1.00  0.00    -0.182 N 
ATOM     11  H3  UNL     1      12.382  59.302  10.593  1.00  0.00     0.184 HD
HETATM   12  C7  UNL     1      11.086  60.988  10.537  1.00  0.00     0.698 A 
HETATM   13  N7  UNL     1      10.969  62.268  10.662  1.00  0.00    -0.130 N 
ATOM     14  H7  UNL     1      10.055  62.702  10.536  1.00  0.00     0.205 HD
HETATM   15  N8  UNL     1      12.065  63.061  10.966  1.00  0.00    -0.269 N 
ATOM     16  H8  UNL     1      11.962  64.072  11.062  1.00  0.00     0.189 HD
ENDROOT
BRANCH  12  17
HETATM   17  N4  UNL     1       9.939  60.222  10.226  1.00  0.00    -0.186 N 
HETATM   18  C8  UNL     1       9.282  60.387   9.143  1.00  0.00     0.202 C 
ATOM     19  H4  UNL     1       9.625  59.514  10.889  1.00  0.00     0.185 HD
BRANCH  18  20
HETATM   20  N5  UNL     1       9.698  61.360   8.213  1.00  0.00    -0.303 N 
HETATM   21  C9  UNL     1       8.728  62.182   7.584  1.00  0.00     0.346 C 
HETATM   22  O2  UNL     1       7.513  62.041   7.856  1.00  0.00    -0.245 OA
HETATM   23  N6  UNL     1       9.114  63.163   6.649  1.00  0.00    -0.215 N 
HETATM   24  C10 UNL     1       8.108  63.988   6.023  1.00  0.00     0.190 C 
ATOM     25  H5  UNL     1      10.687  61.472   7.994  1.00  0.00     0.171 HD
BRANCH  23  26
HETATM   26  O3  UNL     1      10.404  63.327   6.349  1.00  0.00    -0.284 OA
ATOM     27  H3  UNL     1      10.978  63.782   6.954  1.00  0.00     0.245 HD
ENDBRANCH  23  26
ENDBRANCH  18  20
ENDBRANCH  12  17
BRANCH   1  28
HETATM   28  O1  UNL     1      14.853  59.097  11.047  1.00  0.00    -0.339 OA
HETATM   29  C1  UNL     1      15.446  58.253  11.980  1.00  0.00     0.211 C 
ENDBRANCH   1  28
TORSDOF 4
ENDMDL
MODEL 3
REMARK VINA RESULT: -4.812152578      8.766     10.239
REMARK  4 active torsions:
REMARK  status: ('A' for Active; 'I' for Inactive)
REMARK    1  A    between atoms: O1_2  and  C2_3 
REMARK    2  A    between atoms: C7_14  and  N4_15 
REMARK    3  A    between atoms: C8_17  and  N5_18 
REMARK       I    between atoms: N5_18  and  C9_20 
REMARK       I    between atoms: C9_20  and  N6_22 
REMARK    4  A    between atoms: N6_22  and  O3_24 
ROOT
HETATM    1  C2  UNL     1      11.879  61.199  10.177  1.00  0.00     0.175 A 
HETATM    2  N1  UNL     1      11.928  60.076  10.915  1.00  0.00    -0.325 N 
ATOM      3  H1  UNL     1      12.765  59.883  11.465  1.00  0.00     0.169 HD
HETATM    4  C3  UNL     1      10.904  59.198  10.951  1.00  0.00     0.080 A 
HETATM    5  C4  UNL     1      10.980  57.967  11.772  1.00  0.00     0.089 C 
HETATM    6  N2  UNL     1       9.801  59.439  10.236  1.00  0.00    -0.329 N 
ATOM      7  H2  UNL     1       9.037  58.766  10.274  1.00  0.00     0.168 HD
HETATM    8  C5  UNL     1       9.656  60.541   9.462  1.00  0.00     0.154 A 
HETATM    9  C6  UNL     1      10.736  61.429   9.447  1.00  0.00     0.145 A 
HETATM   10  N3  UNL     1      10.584  62.589   8.633  1.00  0.00    -0.182 N 
ATOM     11  H3  UNL     1      11.334  63.279   8.577  1.00  0.00     0.184 HD
HETATM   12  C7  UNL     1       9.380  62.778   7.900  1.00  0.00     0.698 A 
HETATM   13  N7  UNL     1       8.406  61.933   7.940  1.00  0.00    -0.130 N 
ATOM     14  H7  UNL     1       7.563  62.114   7.394  1.00  0.00     0.205 HD
HETATM   15  N8  UNL     1       8.484  60.783   8.711  1.00  0.00    -0.269 N 
ATOM     16  H8  UNL     1       7.708  60.121   8.735  1.00  0.00     0.189 HD
ENDROOT
BRANCH  12  17
HETATM   17  N4  UNL     1       9.252  63.936   7.099  1.00  0.00    -0.186 N 
HETATM   18  C8  UNL     1       9.098  65.099   7.603  1.00  0.00     0.202 C 
ATOM     19  H4  UNL     1       9.283  63.839   6.084  1.00  0.00     0.185 HD
BRANCH  18  20
HETATM   20  N5  UNL     1       9.051  65.256   9.002  1.00  0.00    -0.303 N 
HETATM   21  C9  UNL     1      10.263  65.350   9.733  1.00  0.00     0.346 C 
HETATM   22  O2  UNL     1      11.363  65.294   9.137  1.00  0.00    -0.245 OA
HETATM   23  N6  UNL     1      10.248  65.506  11.134  1.00  0.00    -0.215 N 
HETATM   24  C10 UNL     1      11.494  65.599  11.855  1.00  0.00     0.190 C 
ATOM     25  H5  UNL     1       8.154  65.300   9.485  1.00  0.00     0.171 HD
BRANCH  23  26
HETATM   26  O3  UNL     1       9.084  65.567  11.785  1.00  0.00    -0.284 OA
ATOM     27  H3  UNL     1       8.908  64.964  12.498  1.00  0.00     0.245 HD
ENDBRANCH  23  26
ENDBRANCH  18  20
ENDBRANCH  12  17
BRANCH   1  28
HETATM   28  O1  UNL     1      12.925  62.101  10.137  1.00  0.00    -0.339 OA
HETATM   29  C1  UNL     1      13.526  62.682  11.248  1.00  0.00     0.211 C 
ENDBRANCH   1  28
TORSDOF 4
ENDMDL
MODEL 4
REMARK VINA RESULT: -4.638560076      9.040     11.799
REMARK  4 active torsions:
REMARK  status: ('A' for Active; 'I' for Inactive)
REMARK    1  A    between atoms: O1_2  and  C2_3 
REMARK    2  A    between atoms: C7_14  and  N4_15 
REMARK    3  A    between atoms: C8_17  and  N5_18 
REMARK       I    between atoms: N5_18  and  C9_20 
REMARK       I    between atoms: C9_20  and  N6_22 
REMARK    4  A    between atoms: N6_22  and  O3_24 
ROOT
HETATM    1  C2  UNL     1      10.814  61.757   9.535  1.00  0.00     0.175 A 
HETATM    2  N1  UNL     1      10.468  63.012   9.195  1.00  0.00    -0.325 N 
ATOM      3  H1  UNL     1       9.653  63.156   8.600  1.00  0.00     0.169 HD
HETATM    4  C3  UNL     1      11.167  64.086   9.618  1.00  0.00     0.080 A 
HETATM    5  C4  UNL     1      10.768  65.460   9.232  1.00  0.00     0.089 C 
HETATM    6  N2  UNL     1      12.237  63.912  10.399  1.00  0.00    -0.329 N 
ATOM      7  H2  UNL     1      12.754  64.734  10.711  1.00  0.00     0.168 HD
HETATM    8  C5  UNL     1      12.665  62.690  10.795  1.00  0.00     0.154 A 
HETATM    9  C6  UNL     1      11.918  61.600  10.338  1.00  0.00     0.145 A 
HETATM   10  N3  UNL     1      12.367  60.312  10.755  1.00  0.00    -0.182 N 
ATOM     11  H3  UNL     1      11.869  59.473  10.458  1.00  0.00     0.184 HD
HETATM   12  C7  UNL     1      13.516  60.206  11.587  1.00  0.00     0.698 A 
HETATM   13  N7  UNL     1      14.179  61.239  11.987  1.00  0.00    -0.130 N 
ATOM     14  H7  UNL     1      14.996  61.109  12.583  1.00  0.00     0.205 HD
HETATM   15  N8  UNL     1      13.799  62.521  11.621  1.00  0.00    -0.269 N 
ATOM     16  H8  UNL     1      14.329  63.331  11.944  1.00  0.00     0.189 HD
ENDROOT
BRANCH  12  17
HETATM   17  N4  UNL     1      13.943  58.919  11.987  1.00  0.00    -0.186 N 
HETATM   18  C8  UNL     1      14.808  58.252  11.326  1.00  0.00     0.202 C 
ATOM     19  H4  UNL     1      13.548  58.510  12.833  1.00  0.00     0.185 HD
BRANCH  18  20
HETATM   20  N5  UNL     1      15.366  58.798  10.154  1.00  0.00    -0.303 N 
HETATM   21  C9  UNL     1      16.762  59.042  10.095  1.00  0.00     0.346 C 
HETATM   22  O2  UNL     1      17.489  58.773  11.080  1.00  0.00    -0.245 OA
HETATM   23  N6  UNL     1      17.350  59.589   8.937  1.00  0.00    -0.215 N 
HETATM   24  C10 UNL     1      18.773  59.828   8.902  1.00  0.00     0.190 C 
ATOM     25  H5  UNL     1      14.772  59.016   9.354  1.00  0.00     0.171 HD
BRANCH  23  26
HETATM   26  O3  UNL     1      16.590  59.882   7.879  1.00  0.00    -0.284 OA
ATOM     27  H3  UNL     1      16.900  59.683   7.003  1.00  0.00     0.245 HD
ENDBRANCH  23  26
ENDBRANCH  18  20
ENDBRANCH  12  17
BRANCH   1  28
HETATM   28  O1  UNL     1      10.102  60.655   9.103  1.00  0.00    -0.339 OA
HETATM   29  C1  UNL     1       9.026  60.689   8.222  1.00  0.00     0.211 C 
ENDBRANCH   1  28
TORSDOF 4
ENDMDL
MODEL 5
REMARK VINA RESULT: -4.514830148      0.991      1.024
REMARK  4 active torsions:
REMARK  status: ('A' for Active; 'I' for Inactive)
REMARK    1  A    between atoms: O1_2  and  C2_3 
REMARK    2  A    between atoms: C7_14  and  N4_15 
REMARK    3  A    between atoms: C8_17  and  N5_18 
REMARK       I    between atoms: N5_18  and  C9_20 
REMARK       I    between atoms: C9_20  and  N6_22 
REMARK    4  A    between atoms: N6_22  and  O3_24 
ROOT
HETATM    1  C2  UNL     1       9.209  54.575   3.275  1.00  0.00     0.175 A 
HETATM    2  N1  UNL     1      10.540  54.714   3.413  1.00  0.00    -0.325 N 
ATOM      3  H1  UNL     1      11.150  53.961   3.098  1.00  0.00     0.169 HD
HETATM    4  C3  UNL     1      11.091  55.819   3.956  1.00  0.00     0.080 A 
HETATM    5  C4  UNL     1      12.560  55.951   4.099  1.00  0.00     0.089 C 
HETATM    6  N2  UNL     1      10.303  56.815   4.373  1.00  0.00    -0.329 N 
ATOM      7  H2  UNL     1      10.736  57.643   4.780  1.00  0.00     0.168 HD
HETATM    8  C5  UNL     1       8.952  56.769   4.277  1.00  0.00     0.154 A 
HETATM    9  C6  UNL     1       8.415  55.610   3.710  1.00  0.00     0.145 A 
HETATM   10  N3  UNL     1       6.994  55.561   3.608  1.00  0.00    -0.182 N 
ATOM     11  H3  UNL     1       6.535  54.744   3.204  1.00  0.00     0.184 HD
HETATM   12  C7  UNL     1       6.221  56.660   4.073  1.00  0.00     0.698 A 
HETATM   13  N7  UNL     1       6.756  57.714   4.592  1.00  0.00    -0.130 N 
ATOM     14  H7  UNL     1       6.157  58.474   4.911  1.00  0.00     0.205 HD
HETATM   15  N8  UNL     1       8.132  57.830   4.722  1.00  0.00    -0.269 N 
ATOM     16  H8  UNL     1       8.545  58.667   5.132  1.00  0.00     0.189 HD
ENDROOT
BRANCH  12  17
HETATM   17  N4  UNL     1       4.813  56.590   3.962  1.00  0.00    -0.186 N 
HETATM   18  C8  UNL     1       4.161  57.281   3.108  1.00  0.00     0.202 C 
ATOM     19  H4  UNL     1       4.300  55.967   4.585  1.00  0.00     0.185 HD
BRANCH  18  20
HETATM   20  N5  UNL     1       4.850  58.148   2.238  1.00  0.00    -0.303 N 
HETATM   21  C9  UNL     1       4.139  58.802   1.199  1.00  0.00     0.346 C 
HETATM   22  O2  UNL     1       2.909  58.607   1.060  1.00  0.00    -0.245 OA
HETATM   23  N6  UNL     1       4.801  59.675   0.313  1.00  0.00    -0.215 N 
HETATM   24  C10 UNL     1       4.055  60.329  -0.736  1.00  0.00     0.190 C 
ATOM     25  H5  UNL     1       5.851  58.305   2.354  1.00  0.00     0.171 HD
BRANCH  23  26
HETATM   26  O3  UNL     1       6.110  59.894   0.448  1.00  0.00    -0.284 OA
ATOM     27  H3  UNL     1       6.659  59.976  -0.324  1.00  0.00     0.245 HD
ENDBRANCH  23  26
ENDBRANCH  18  20
ENDBRANCH  12  17
BRANCH   1  28
HETATM   28  O1  UNL     1       8.641  53.445   2.720  1.00  0.00    -0.339 OA
HETATM   29  C1  UNL     1       9.344  52.398   2.133  1.00  0.00     0.211 C 
ENDBRANCH   1  28
TORSDOF 4
ENDMDL
