MODEL 1
REMARK VINA RESULT: -7.373639595      0.000      0.000
REMARK  13 active torsions:
REMARK  status: ('A' for Active; 'I' for Inactive)
REMARK    1  A    between atoms: C1_4  and  N2_5 
REMARK    2  A    between atoms: C1_4  and  C7_16 
REMARK    3  A    between atoms: N2_5  and  C2_7 
REMARK    4  A    between atoms: N4_18  and  C9_19 
REMARK    5  A    between atoms: C9_19  and  C10_20 
REMARK    6  A    between atoms: C10_20  and  C11_21 
REMARK    7  A    between atoms: C11_21  and  C12_22 
REMARK    8  A    between atoms: C12_22  and  C13_23 
REMARK    9  A    between atoms: C13_23  and  C14_24 
REMARK   10  A    between atoms: C14_24  and  C15_25 
REMARK   11  A    between atoms: C15_25  and  N5_26 
REMARK   12  A    between atoms: N5_26  and  C16_27 
REMARK   13  A    between atoms: N5_26  and  C20_35 
ROOT
HETATM    1  C9  UNL     1     -14.928   4.261  44.221  1.00  0.00     0.272 C 
ENDROOT
BRANCH   1   2
HETATM    2  N4  UNL     1     -14.065   5.276  43.702  1.00  0.00     0.090 N 
HETATM    3  C8  UNL     1     -14.671   6.399  43.065  1.00  0.00     0.286 C 
HETATM    4  C7  UNL     1     -13.530   7.246  43.585  1.00  0.00     0.109 C 
HETATM    5  C25 UNL     1     -13.435   6.153  44.630  1.00  0.00     0.286 C 
BRANCH   4   6
HETATM    6  C1  UNL     1     -12.332   7.311  42.723  1.00  0.00     0.082 C 
HETATM    7  N1  UNL     1     -11.184   7.320  43.304  1.00  0.00    -0.388 N 
ATOM      8  H12 UNL     1     -10.357   7.365  42.708  1.00  0.00     0.157 HD
ATOM      9  H11 UNL     1     -11.084   7.281  44.318  1.00  0.00     0.157 HD
BRANCH   6  10
HETATM   10  N2  UNL     1     -12.470   7.365  41.312  1.00  0.00    -0.345 N 
ATOM     11  H2  UNL     1     -12.364   6.503  40.776  1.00  0.00     0.167 HD
BRANCH  10  12
HETATM   12  C2  UNL     1     -12.747   8.563  40.622  1.00  0.00     0.050 A 
HETATM   13  C3  UNL     1     -12.424   8.781  39.300  1.00  0.00     0.121 A 
HETATM   14  N3  UNL     1     -12.717   9.959  38.695  1.00  0.00    -0.330 N 
HETATM   15  C4  UNL     1     -13.330  10.943  39.369  1.00  0.00     0.267 A 
ATOM     16  H3  UNL     1     -12.469  10.098  37.715  1.00  0.00     0.168 HD
HETATM   17  O1  UNL     1     -13.595  12.027  38.795  1.00  0.00    -0.266 OA
HETATM   18  C5  UNL     1     -13.681  10.791  40.690  1.00  0.00     0.104 A 
HETATM   19 CL1  UNL     1     -14.476  12.032  41.614  1.00  0.00    -0.078 Cl
HETATM   20  C6  UNL     1     -13.376   9.589  41.290  1.00  0.00     0.060 A 
ENDBRANCH  10  12
ENDBRANCH   6  10
ENDBRANCH   4   6
ENDBRANCH   1   2
BRANCH   1  21
HETATM   21  C10 UNL     1     -16.170   4.763  44.869  1.00  0.00     0.030 C 
BRANCH  21  22
HETATM   22  C11 UNL     1     -15.998   4.547  46.379  1.00  0.00     0.002 C 
BRANCH  22  23
HETATM   23  C12 UNL     1     -16.685   5.665  47.091  1.00  0.00     0.000 C 
BRANCH  23  24
HETATM   24  C13 UNL     1     -15.777   6.725  47.603  1.00  0.00     0.002 C 
BRANCH  24  25
HETATM   25  C14 UNL     1     -15.765   7.945  46.756  1.00  0.00     0.020 C 
BRANCH  25  26
HETATM   26  C15 UNL     1     -15.719   9.245  47.469  1.00  0.00     0.141 C 
BRANCH  26  27
HETATM   27  N5  UNL     1     -14.627  10.124  47.039  1.00  0.00    -0.213 N 
BRANCH  27  28
HETATM   28  C16 UNL     1     -13.313   9.630  47.093  1.00  0.00     0.672 C 
HETATM   29  N6  UNL     1     -12.459   9.668  46.101  1.00  0.00    -0.226 N 
HETATM   30  C17 UNL     1     -11.141   9.117  46.318  1.00  0.00     0.139 C 
ATOM     31  H6  UNL     1     -12.716  10.075  45.203  1.00  0.00     0.177 HD
HETATM   32  C18 UNL     1     -11.197   7.769  47.003  1.00  0.00     0.040 C 
HETATM   33  C19 UNL     1     -12.017   7.820  48.274  1.00  0.00     0.139 C 
HETATM   34  N7  UNL     1     -12.797   9.041  48.293  1.00  0.00    -0.226 N 
ATOM     35  H7  UNL     1     -12.984   9.495  49.187  1.00  0.00     0.177 HD
ENDBRANCH  27  28
BRANCH  27  36
HETATM   36  C20 UNL     1     -15.044  11.439  46.629  1.00  0.00     0.102 C 
HETATM   37  C21 UNL     1     -14.375  12.587  47.277  1.00  0.00     0.026 C 
HETATM   38  C22 UNL     1     -15.401  13.271  48.164  1.00  0.00     0.002 C 
HETATM   39  C23 UNL     1     -16.746  12.918  47.557  1.00  0.00     0.002 C 
HETATM   40  C24 UNL     1     -16.535  11.598  46.844  1.00  0.00     0.026 C 
ENDBRANCH  27  36
ENDBRANCH  26  27
ENDBRANCH  25  26
ENDBRANCH  24  25
ENDBRANCH  23  24
ENDBRANCH  22  23
ENDBRANCH  21  22
ENDBRANCH   1  21
TORSDOF 13
ENDMDL
MODEL 2
REMARK VINA RESULT: -7.306728453      2.052      5.073
REMARK  13 active torsions:
REMARK  status: ('A' for Active; 'I' for Inactive)
REMARK    1  A    between atoms: C1_4  and  N2_5 
REMARK    2  A    between atoms: C1_4  and  C7_16 
REMARK    3  A    between atoms: N2_5  and  C2_7 
REMARK    4  A    between atoms: N4_18  and  C9_19 
REMARK    5  A    between atoms: C9_19  and  C10_20 
REMARK    6  A    between atoms: C10_20  and  C11_21 
REMARK    7  A    between atoms: C11_21  and  C12_22 
REMARK    8  A    between atoms: C12_22  and  C13_23 
REMARK    9  A    between atoms: C13_23  and  C14_24 
REMARK   10  A    between atoms: C14_24  and  C15_25 
REMARK   11  A    between atoms: C15_25  and  N5_26 
REMARK   12  A    between atoms: N5_26  and  C16_27 
REMARK   13  A    between atoms: N5_26  and  C20_35 
ROOT
HETATM    1  C9  UNL     1     -12.614  10.441  45.470  1.00  0.00     0.272 C 
ENDROOT
BRANCH   1   2
HETATM    2  N4  UNL     1     -12.268   9.435  44.514  1.00  0.00     0.090 N 
HETATM    3  C8  UNL     1     -11.230   8.521  44.859  1.00  0.00     0.286 C 
HETATM    4  C7  UNL     1     -11.961   7.466  44.058  1.00  0.00     0.109 C 
HETATM    5  C25 UNL     1     -13.164   8.342  44.346  1.00  0.00     0.286 C 
BRANCH   4   6
HETATM    6  C1  UNL     1     -11.632   7.408  42.619  1.00  0.00     0.082 C 
HETATM    7  N1  UNL     1     -10.390   7.300  42.299  1.00  0.00    -0.388 N 
ATOM      8  H12 UNL     1     -10.164   7.260  41.305  1.00  0.00     0.157 HD
ATOM      9  H11 UNL     1      -9.648   7.252  42.997  1.00  0.00     0.157 HD
BRANCH   6  10
HETATM   10  N2  UNL     1     -12.663   7.474  41.648  1.00  0.00    -0.345 N 
ATOM     11  H2  UNL     1     -13.272   6.665  41.523  1.00  0.00     0.167 HD
BRANCH  10  12
HETATM   12  C2  UNL     1     -12.880   8.615  40.848  1.00  0.00     0.050 A 
HETATM   13  C3  UNL     1     -12.470   8.724  39.537  1.00  0.00     0.121 A 
HETATM   14  N3  UNL     1     -12.708   9.853  38.822  1.00  0.00    -0.330 N 
HETATM   15  C4  UNL     1     -13.350  10.892  39.375  1.00  0.00     0.267 A 
ATOM     16  H3  UNL     1     -12.396   9.911  37.852  1.00  0.00     0.168 HD
HETATM   17  O1  UNL     1     -13.563  11.929  38.701  1.00  0.00    -0.266 OA
HETATM   18  C5  UNL     1     -13.786  10.850  40.679  1.00  0.00     0.104 A 
HETATM   19 CL1  UNL     1     -14.622  12.167  41.447  1.00  0.00    -0.078 Cl
HETATM   20  C6  UNL     1     -13.536   9.697  41.390  1.00  0.00     0.060 A 
ENDBRANCH  10  12
ENDBRANCH   6  10
ENDBRANCH   4   6
ENDBRANCH   1   2
BRANCH   1  21
HETATM   21  C10 UNL     1     -13.698  11.366  45.045  1.00  0.00     0.030 C 
BRANCH  21  22
HETATM   22  C11 UNL     1     -14.866  11.156  46.019  1.00  0.00     0.002 C 
BRANCH  22  23
HETATM   23  C12 UNL     1     -14.341  10.465  47.233  1.00  0.00     0.000 C 
BRANCH  23  24
HETATM   24  C13 UNL     1     -15.283   9.493  47.848  1.00  0.00     0.002 C 
BRANCH  24  25
HETATM   25  C14 UNL     1     -15.938   8.604  46.855  1.00  0.00     0.020 C 
BRANCH  25  26
HETATM   26  C15 UNL     1     -15.441   7.207  46.788  1.00  0.00     0.141 C 
BRANCH  26  27
HETATM   27  N5  UNL     1     -16.502   6.196  46.782  1.00  0.00    -0.213 N 
BRANCH  27  28
HETATM   28  C16 UNL     1     -17.536   6.306  47.726  1.00  0.00     0.672 C 
HETATM   29  N6  UNL     1     -18.801   6.474  47.435  1.00  0.00    -0.226 N 
HETATM   30  C17 UNL     1     -19.743   6.570  48.526  1.00  0.00     0.139 C 
ATOM     31  H6  UNL     1     -19.113   6.535  46.466  1.00  0.00     0.177 HD
HETATM   32  C18 UNL     1     -19.257   7.500  49.615  1.00  0.00     0.040 C 
HETATM   33  C19 UNL     1     -17.865   7.134  50.084  1.00  0.00     0.139 C 
HETATM   34  N7  UNL     1     -17.261   6.225  49.131  1.00  0.00    -0.226 N 
ATOM     35  H7  UNL     1     -16.621   5.507  49.469  1.00  0.00     0.177 HD
ENDBRANCH  27  28
BRANCH  27  36
HETATM   36  C20 UNL     1     -16.336   5.161  45.795  1.00  0.00     0.102 C 
HETATM   37  C21 UNL     1     -15.143   4.297  45.924  1.00  0.00     0.026 C 
HETATM   38  C22 UNL     1     -14.217   4.622  44.764  1.00  0.00     0.002 C 
HETATM   39  C23 UNL     1     -15.122   5.176  43.680  1.00  0.00     0.002 C 
HETATM   40  C24 UNL     1     -16.311   5.770  44.408  1.00  0.00     0.026 C 
ENDBRANCH  27  36
ENDBRANCH  26  27
ENDBRANCH  25  26
ENDBRANCH  24  25
ENDBRANCH  23  24
ENDBRANCH  22  23
ENDBRANCH  21  22
ENDBRANCH   1  21
TORSDOF 13
ENDMDL
MODEL 3
REMARK VINA RESULT: -7.254650653      2.353      5.432
REMARK  13 active torsions:
REMARK  status: ('A' for Active; 'I' for Inactive)
REMARK    1  A    between atoms: C1_4  and  N2_5 
REMARK    2  A    between atoms: C1_4  and  C7_16 
REMARK    3  A    between atoms: N2_5  and  C2_7 
REMARK    4  A    between atoms: N4_18  and  C9_19 
REMARK    5  A    between atoms: C9_19  and  C10_20 
REMARK    6  A    between atoms: C10_20  and  C11_21 
REMARK    7  A    between atoms: C11_21  and  C12_22 
REMARK    8  A    between atoms: C12_22  and  C13_23 
REMARK    9  A    between atoms: C13_23  and  C14_24 
REMARK   10  A    between atoms: C14_24  and  C15_25 
REMARK   11  A    between atoms: C15_25  and  N5_26 
REMARK   12  A    between atoms: N5_26  and  C16_27 
REMARK   13  A    between atoms: N5_26  and  C20_35 
ROOT
HETATM    1  C9  UNL     1     -12.097  10.576  48.220  1.00  0.00     0.272 C 
ENDROOT
BRANCH   1   2
HETATM    2  N4  UNL     1     -12.183  10.000  46.914  1.00  0.00     0.090 N 
HETATM    3  C8  UNL     1     -12.248  10.890  45.801  1.00  0.00     0.286 C 
HETATM    4  C7  UNL     1     -11.482   9.861  44.999  1.00  0.00     0.109 C 
HETATM    5  C25 UNL     1     -11.007   9.414  46.367  1.00  0.00     0.286 C 
BRANCH   4   6
HETATM    6  C1  UNL     1     -12.299   8.835  44.319  1.00  0.00     0.082 C 
HETATM    7  N1  UNL     1     -11.852   7.629  44.315  1.00  0.00    -0.388 N 
ATOM      8  H12 UNL     1     -12.417   6.921  43.845  1.00  0.00     0.157 HD
ATOM      9  H11 UNL     1     -10.971   7.371  44.759  1.00  0.00     0.157 HD
BRANCH   6  10
HETATM   10  N2  UNL     1     -13.525   9.193  43.701  1.00  0.00    -0.345 N 
ATOM     11  H2  UNL     1     -14.399   8.937  44.161  1.00  0.00     0.167 HD
BRANCH  10  12
HETATM   12  C2  UNL     1     -13.582   9.889  42.476  1.00  0.00     0.050 A 
HETATM   13  C3  UNL     1     -14.097  11.161  42.338  1.00  0.00     0.121 A 
HETATM   14  N3  UNL     1     -14.124  11.775  41.129  1.00  0.00    -0.330 N 
HETATM   15  C4  UNL     1     -13.650  11.160  40.036  1.00  0.00     0.267 A 
ATOM     16  H3  UNL     1     -14.510  12.717  41.050  1.00  0.00     0.168 HD
HETATM   17  O1  UNL     1     -13.682  11.742  38.924  1.00  0.00    -0.266 OA
HETATM   18  C5  UNL     1     -13.122   9.892  40.103  1.00  0.00     0.104 A 
HETATM   19 CL1  UNL     1     -12.493   9.046  38.720  1.00  0.00    -0.078 Cl
HETATM   20  C6  UNL     1     -13.102   9.282  41.338  1.00  0.00     0.060 A 
ENDBRANCH  10  12
ENDBRANCH   6  10
ENDBRANCH   4   6
ENDBRANCH   1   2
BRANCH   1  21
HETATM   21  C10 UNL     1     -13.283  10.344  49.088  1.00  0.00     0.030 C 
BRANCH  21  22
HETATM   22  C11 UNL     1     -13.259   8.861  49.483  1.00  0.00     0.002 C 
BRANCH  22  23
HETATM   23  C12 UNL     1     -14.470   8.206  48.907  1.00  0.00     0.000 C 
BRANCH  23  24
HETATM   24  C13 UNL     1     -15.451   9.142  48.299  1.00  0.00     0.002 C 
BRANCH  24  25
HETATM   25  C14 UNL     1     -15.894   8.727  46.944  1.00  0.00     0.020 C 
BRANCH  25  26
HETATM   26  C15 UNL     1     -15.397   7.415  46.458  1.00  0.00     0.141 C 
BRANCH  26  27
HETATM   27  N5  UNL     1     -16.443   6.400  46.306  1.00  0.00    -0.213 N 
BRANCH  27  28
HETATM   28  C16 UNL     1     -17.491   6.375  47.241  1.00  0.00     0.672 C 
HETATM   29  N6  UNL     1     -18.714   6.777  47.005  1.00  0.00    -0.226 N 
HETATM   30  C17 UNL     1     -19.679   6.686  48.077  1.00  0.00     0.139 C 
ATOM     31  H6  UNL     1     -18.979   7.144  46.091  1.00  0.00     0.177 HD
HETATM   32  C18 UNL     1     -19.124   7.206  49.384  1.00  0.00     0.040 C 
HETATM   33  C19 UNL     1     -17.806   6.549  49.735  1.00  0.00     0.139 C 
HETATM   34  N7  UNL     1     -17.282   5.873  48.567  1.00  0.00    -0.226 N 
ATOM     35  H7  UNL     1     -16.747   5.012  48.691  1.00  0.00     0.177 HD
ENDBRANCH  27  28
BRANCH  27  36
HETATM   36  C20 UNL     1     -16.248   5.503  45.197  1.00  0.00     0.102 C 
HETATM   37  C21 UNL     1     -15.722   4.156  45.508  1.00  0.00     0.026 C 
HETATM   38  C22 UNL     1     -14.310   4.079  44.950  1.00  0.00     0.002 C 
HETATM   39  C23 UNL     1     -14.275   5.095  43.823  1.00  0.00     0.002 C 
HETATM   40  C24 UNL     1     -15.319   6.133  44.180  1.00  0.00     0.026 C 
ENDBRANCH  27  36
ENDBRANCH  26  27
ENDBRANCH  25  26
ENDBRANCH  24  25
ENDBRANCH  23  24
ENDBRANCH  22  23
ENDBRANCH  21  22
ENDBRANCH   1  21
TORSDOF 13
ENDMDL
MODEL 4
REMARK VINA RESULT: -7.208428838      2.050      4.902
REMARK  13 active torsions:
REMARK  status: ('A' for Active; 'I' for Inactive)
REMARK    1  A    between atoms: C1_4  and  N2_5 
REMARK    2  A    between atoms: C1_4  and  C7_16 
REMARK    3  A    between atoms: N2_5  and  C2_7 
REMARK    4  A    between atoms: N4_18  and  C9_19 
REMARK    5  A    between atoms: C9_19  and  C10_20 
REMARK    6  A    between atoms: C10_20  and  C11_21 
REMARK    7  A    between atoms: C11_21  and  C12_22 
REMARK    8  A    between atoms: C12_22  and  C13_23 
REMARK    9  A    between atoms: C13_23  and  C14_24 
REMARK   10  A    between atoms: C14_24  and  C15_25 
REMARK   11  A    between atoms: C15_25  and  N5_26 
REMARK   12  A    between atoms: N5_26  and  C16_27 
REMARK   13  A    between atoms: N5_26  and  C20_35 
ROOT
HETATM    1  C9  UNL     1     -12.926  11.141  47.215  1.00  0.00     0.272 C 
ENDROOT
BRANCH   1   2
HETATM    2  N4  UNL     1     -12.704  10.185  46.174  1.00  0.00     0.090 N 
HETATM    3  C8  UNL     1     -11.591  10.396  45.309  1.00  0.00     0.286 C 
HETATM    4  C7  UNL     1     -11.451   8.893  45.206  1.00  0.00     0.109 C 
HETATM    5  C25 UNL     1     -12.171   8.917  46.539  1.00  0.00     0.286 C 
BRANCH   4   6
HETATM    6  C1  UNL     1     -12.247   8.244  44.144  1.00  0.00     0.082 C 
HETATM    7  N1  UNL     1     -11.799   7.139  43.659  1.00  0.00    -0.388 N 
ATOM      8  H12 UNL     1     -12.348   6.691  42.926  1.00  0.00     0.157 HD
ATOM      9  H11 UNL     1     -10.931   6.712  43.983  1.00  0.00     0.157 HD
BRANCH   6  10
HETATM   10  N2  UNL     1     -13.454   8.837  43.692  1.00  0.00    -0.345 N 
ATOM     11  H2  UNL     1     -14.302   8.703  44.243  1.00  0.00     0.167 HD
BRANCH  10  12
HETATM   12  C2  UNL     1     -13.526   9.603  42.511  1.00  0.00     0.050 A 
HETATM   13  C3  UNL     1     -14.035  10.884  42.456  1.00  0.00     0.121 A 
HETATM   14  N3  UNL     1     -14.078  11.568  41.285  1.00  0.00    -0.330 N 
HETATM   15  C4  UNL     1     -13.626  11.015  40.150  1.00  0.00     0.267 A 
ATOM     16  H3  UNL     1     -14.458  12.515  41.268  1.00  0.00     0.168 HD
HETATM   17  O1  UNL     1     -13.672  11.660  39.075  1.00  0.00    -0.266 OA
HETATM   18  C5  UNL     1     -13.106   9.741  40.134  1.00  0.00     0.104 A 
HETATM   19 CL1  UNL     1     -12.506   8.974  38.694  1.00  0.00    -0.078 Cl
HETATM   20  C6  UNL     1     -13.069   9.060  41.331  1.00  0.00     0.060 A 
ENDBRANCH  10  12
ENDBRANCH   6  10
ENDBRANCH   4   6
ENDBRANCH   1   2
BRANCH   1  21
HETATM   21  C10 UNL     1     -14.168  11.948  47.072  1.00  0.00     0.030 C 
BRANCH  21  22
HETATM   22  C11 UNL     1     -15.098  11.166  46.134  1.00  0.00     0.002 C 
BRANCH  22  23
HETATM   23  C12 UNL     1     -16.363  10.873  46.869  1.00  0.00     0.000 C 
BRANCH  23  24
HETATM   24  C13 UNL     1     -16.302   9.681  47.756  1.00  0.00     0.002 C 
BRANCH  24  25
HETATM   25  C14 UNL     1     -15.793   8.466  47.069  1.00  0.00     0.020 C 
BRANCH  25  26
HETATM   26  C15 UNL     1     -15.520   7.287  47.927  1.00  0.00     0.141 C 
BRANCH  26  27
HETATM   27  N5  UNL     1     -16.265   6.084  47.543  1.00  0.00    -0.213 N 
BRANCH  27  28
HETATM   28  C16 UNL     1     -15.869   5.394  46.385  1.00  0.00     0.672 C 
HETATM   29  N6  UNL     1     -14.786   4.667  46.281  1.00  0.00    -0.226 N 
HETATM   30  C17 UNL     1     -14.521   4.020  45.016  1.00  0.00     0.139 C 
ATOM     31  H6  UNL     1     -14.148   4.559  47.069  1.00  0.00     0.177 HD
HETATM   32  C18 UNL     1     -14.722   4.958  43.847  1.00  0.00     0.040 C 
HETATM   33  C19 UNL     1     -16.084   5.617  43.884  1.00  0.00     0.139 C 
HETATM   34  N7  UNL     1     -16.669   5.434  45.196  1.00  0.00    -0.226 N 
ATOM     35  H7  UNL     1     -17.681   5.331  45.277  1.00  0.00     0.177 HD
ENDBRANCH  27  28
BRANCH  27  36
HETATM   36  C20 UNL     1     -17.366   5.760  48.412  1.00  0.00     0.102 C 
HETATM   37  C21 UNL     1     -18.661   6.413  48.125  1.00  0.00     0.026 C 
HETATM   38  C22 UNL     1     -18.936   7.396  49.251  1.00  0.00     0.002 C 
HETATM   39  C23 UNL     1     -18.156   6.863  50.439  1.00  0.00     0.002 C 
HETATM   40  C24 UNL     1     -17.001   6.080  49.848  1.00  0.00     0.026 C 
ENDBRANCH  27  36
ENDBRANCH  26  27
ENDBRANCH  25  26
ENDBRANCH  24  25
ENDBRANCH  23  24
ENDBRANCH  22  23
ENDBRANCH  21  22
ENDBRANCH   1  21
TORSDOF 13
ENDMDL
MODEL 5
REMARK VINA RESULT: -7.112327026      1.356      2.804
REMARK  13 active torsions:
REMARK  status: ('A' for Active; 'I' for Inactive)
REMARK    1  A    between atoms: C1_4  and  N2_5 
REMARK    2  A    between atoms: C1_4  and  C7_16 
REMARK    3  A    between atoms: N2_5  and  C2_7 
REMARK    4  A    between atoms: N4_18  and  C9_19 
REMARK    5  A    between atoms: C9_19  and  C10_20 
REMARK    6  A    between atoms: C10_20  and  C11_21 
REMARK    7  A    between atoms: C11_21  and  C12_22 
REMARK    8  A    between atoms: C12_22  and  C13_23 
REMARK    9  A    between atoms: C13_23  and  C14_24 
REMARK   10  A    between atoms: C14_24  and  C15_25 
REMARK   11  A    between atoms: C15_25  and  N5_26 
REMARK   12  A    between atoms: N5_26  and  C16_27 
REMARK   13  A    between atoms: N5_26  and  C20_35 
ROOT
HETATM    1  C9  UNL     1     -14.622   4.264  44.928  1.00  0.00     0.272 C 
ENDROOT
BRANCH   1   2
HETATM    2  N4  UNL     1     -13.931   5.249  44.154  1.00  0.00     0.090 N 
HETATM    3  C8  UNL     1     -14.707   6.076  43.290  1.00  0.00     0.286 C 
HETATM    4  C7  UNL     1     -13.721   7.192  43.556  1.00  0.00     0.109 C 
HETATM    5  C25 UNL     1     -13.457   6.410  44.826  1.00  0.00     0.286 C 
BRANCH   4   6
HETATM    6  C1  UNL     1     -12.545   7.238  42.663  1.00  0.00     0.082 C 
HETATM    7  N1  UNL     1     -11.382   7.212  43.213  1.00  0.00    -0.388 N 
ATOM      8  H12 UNL     1     -10.570   7.244  42.596  1.00  0.00     0.157 HD
ATOM      9  H11 UNL     1     -11.257   7.161  44.224  1.00  0.00     0.157 HD
BRANCH   6  10
HETATM   10  N2  UNL     1     -12.718   7.309  41.257  1.00  0.00    -0.345 N 
ATOM     11  H2  UNL     1     -12.719   6.442  40.718  1.00  0.00     0.167 HD
BRANCH  10  12
HETATM   12  C2  UNL     1     -12.889   8.531  40.575  1.00  0.00     0.050 A 
HETATM   13  C3  UNL     1     -12.488   8.747  39.273  1.00  0.00     0.121 A 
HETATM   14  N3  UNL     1     -12.681   9.950  38.674  1.00  0.00    -0.330 N 
HETATM   15  C4  UNL     1     -13.266  10.960  39.335  1.00  0.00     0.267 A 
ATOM     16  H3  UNL     1     -12.377  10.087  37.710  1.00  0.00     0.168 HD
HETATM   17  O1  UNL     1     -13.437  12.065  38.768  1.00  0.00    -0.266 OA
HETATM   18  C5  UNL     1     -13.689  10.811  40.635  1.00  0.00     0.104 A 
HETATM   19 CL1  UNL     1     -14.454  12.084  41.540  1.00  0.00    -0.078 Cl
HETATM   20  C6  UNL     1     -13.487   9.584  41.229  1.00  0.00     0.060 A 
ENDBRANCH  10  12
ENDBRANCH   6  10
ENDBRANCH   4   6
ENDBRANCH   1   2
BRANCH   1  21
HETATM   21  C10 UNL     1     -16.085   4.492  45.073  1.00  0.00     0.030 C 
BRANCH  21  22
HETATM   22  C11 UNL     1     -16.295   5.162  46.438  1.00  0.00     0.002 C 
BRANCH  22  23
HETATM   23  C12 UNL     1     -16.973   6.472  46.215  1.00  0.00     0.000 C 
BRANCH  23  24
HETATM   24  C13 UNL     1     -16.960   7.384  47.389  1.00  0.00     0.002 C 
BRANCH  24  25
HETATM   25  C14 UNL     1     -16.207   8.641  47.144  1.00  0.00     0.020 C 
BRANCH  25  26
HETATM   26  C15 UNL     1     -15.756   9.387  48.345  1.00  0.00     0.141 C 
BRANCH  26  27
HETATM   27  N5  UNL     1     -14.325   9.704  48.349  1.00  0.00    -0.213 N 
BRANCH  27  28
HETATM   28  C16 UNL     1     -13.892  10.844  47.651  1.00  0.00     0.672 C 
HETATM   29  N6  UNL     1     -13.501  10.853  46.402  1.00  0.00    -0.226 N 
HETATM   30  C17 UNL     1     -13.084  12.112  45.830  1.00  0.00     0.139 C 
ATOM     31  H6  UNL     1     -13.490   9.996  45.850  1.00  0.00     0.177 HD
HETATM   32  C18 UNL     1     -12.154  12.873  46.749  1.00  0.00     0.040 C 
HETATM   33  C19 UNL     1     -12.744  13.035  48.133  1.00  0.00     0.139 C 
HETATM   34  N7  UNL     1     -13.863  12.128  48.287  1.00  0.00    -0.226 N 
ATOM     35  H7  UNL     1     -14.654  12.412  48.865  1.00  0.00     0.177 HD
ENDBRANCH  27  28
BRANCH  27  36
HETATM   36  C20 UNL     1     -13.506   8.763  49.067  1.00  0.00     0.102 C 
HETATM   37  C21 UNL     1     -12.812   7.731  48.266  1.00  0.00     0.026 C 
HETATM   38  C22 UNL     1     -13.457   6.394  48.590  1.00  0.00     0.002 C 
HETATM   39  C23 UNL     1     -14.050   6.567  49.976  1.00  0.00     0.002 C 
HETATM   40  C24 UNL     1     -14.337   8.048  50.112  1.00  0.00     0.026 C 
ENDBRANCH  27  36
ENDBRANCH  26  27
ENDBRANCH  25  26
ENDBRANCH  24  25
ENDBRANCH  23  24
ENDBRANCH  22  23
ENDBRANCH  21  22
ENDBRANCH   1  21
TORSDOF 13
ENDMDL
