MODEL 1
REMARK VINA RESULT: -6.861219025      0.000      0.000
REMARK  15 active torsions:
REMARK  status: ('A' for Active; 'I' for Inactive)
REMARK    1  A    between atoms: N1_1  and  S1_4 
REMARK    2  A    between atoms: S1_4  and  C1_7 
REMARK    3  A    between atoms: C1_7  and  C2_8 
REMARK    4  A    between atoms: C2_8  and  C3_9 
REMARK    5  A    between atoms: C3_9  and  C4_10 
REMARK    6  A    between atoms: C4_10  and  C5_11 
REMARK    7  A    between atoms: C5_11  and  C6_12 
REMARK    8  A    between atoms: C6_12  and  S2_13 
REMARK    9  A    between atoms: S2_13  and  C7_14 
REMARK       I    between atoms: C7_14  and  N2_16 
REMARK   10  A    between atoms: N2_16  and  C8_18 
REMARK   11  A    between atoms: C8_18  and  C9_19 
REMARK   12  A    between atoms: C9_19  and  C10_20 
REMARK   13  A    between atoms: C10_20  and  C11_21 
REMARK   14  A    between atoms: C11_21  and  C12_22 
REMARK   15  A    between atoms: C17_28  and  O4_29 
ROOT
HETATM    1  C8  UNL     1     -11.365   7.720  42.781  1.00  0.00     0.123 C 
ENDROOT
BRANCH   1   2
HETATM    2  N2  UNL     1     -11.726   8.578  43.903  1.00  0.00    -0.352 N 
HETATM    3  C7  UNL     1     -11.007   8.575  45.121  1.00  0.00     0.279 C 
HETATM    4  O3  UNL     1     -10.006   7.851  45.345  1.00  0.00    -0.260 OA
ATOM      5  H2  UNL     1     -12.526   9.203  43.806  1.00  0.00     0.163 HD
BRANCH   3   6
HETATM    6  S2  UNL     1     -11.535   9.663  46.438  1.00  0.00    -0.069 SA
BRANCH   6   7
HETATM    7  C6  UNL     1     -12.240  11.196  45.777  1.00  0.00     0.084 C 
BRANCH   7   8
HETATM    8  C5  UNL     1     -13.732  11.067  45.800  1.00  0.00     0.010 C 
BRANCH   8   9
HETATM    9  C4  UNL     1     -14.334  10.885  44.441  1.00  0.00     0.001 C 
BRANCH   9  10
HETATM   10  C3  UNL     1     -13.629  11.709  43.380  1.00  0.00     0.001 C 
BRANCH  10  11
HETATM   11  C2  UNL     1     -14.032  11.194  42.037  1.00  0.00     0.017 C 
BRANCH  11  12
HETATM   12  C1  UNL     1     -12.908  10.702  41.197  1.00  0.00     0.163 C 
BRANCH  12  13
HETATM   13  S1  UNL     1     -13.090  11.002  39.479  1.00  0.00     0.224 S 
HETATM   14  O1  UNL     1     -12.219  12.123  39.040  1.00  0.00    -0.206 OA
HETATM   15  O2  UNL     1     -14.511  11.344  39.080  1.00  0.00    -0.206 OA
BRANCH  13  16
HETATM   16  N1  UNL     1     -12.654   9.534  38.633  1.00  0.00    -0.328 N 
ATOM     17  H12 UNL     1     -11.975   9.492  37.872  1.00  0.00     0.168 HD
ATOM     18  H11 UNL     1     -13.174   8.742  39.013  1.00  0.00     0.168 HD
ENDBRANCH  13  16
ENDBRANCH  12  13
ENDBRANCH  11  12
ENDBRANCH  10  11
ENDBRANCH   9  10
ENDBRANCH   8   9
ENDBRANCH   7   8
ENDBRANCH   6   7
ENDBRANCH   3   6
ENDBRANCH   1   2
BRANCH   1  19
HETATM   19  C9  UNL     1     -12.623   7.151  42.084  1.00  0.00     0.020 C 
BRANCH  19  20
HETATM   20  C10 UNL     1     -13.841   7.469  42.865  1.00  0.00     0.002 C 
BRANCH  20  21
HETATM   21  C11 UNL     1     -14.649   6.323  43.295  1.00  0.00     0.014 C 
BRANCH  21  22
HETATM   22  C12 UNL     1     -14.972   6.164  44.737  1.00  0.00     0.082 C 
HETATM   23  C13 UNL     1     -14.549   7.195  45.691  1.00  0.00     0.055 C 
HETATM   24  C14 UNL     1     -15.553   7.543  46.751  1.00  0.00    -0.029 A 
HETATM   25  C15 UNL     1     -15.118   8.417  47.730  1.00  0.00     0.036 A 
HETATM   26  C19 UNL     1     -16.820   7.079  46.821  1.00  0.00     0.043 A 
HETATM   27  C16 UNL     1     -15.946   8.822  48.769  1.00  0.00     0.067 A 
HETATM   28 CL1  UNL     1     -15.397   9.923  50.003  1.00  0.00    -0.081 Cl
HETATM   29  C17 UNL     1     -17.236   8.353  48.846  1.00  0.00     0.089 A 
HETATM   30  C18 UNL     1     -17.649   7.487  47.865  1.00  0.00     0.068 A 
HETATM   31  N3  UNL     1     -17.275   6.193  45.837  1.00  0.00    -0.326 N 
HETATM   32  C20 UNL     1     -16.426   5.795  44.798  1.00  0.00     0.226 C 
ATOM     33  H3  UNL     1     -18.229   5.835  45.879  1.00  0.00     0.169 HD
HETATM   34  O5  UNL     1     -16.879   5.100  43.864  1.00  0.00    -0.273 OA
BRANCH  29  35
HETATM   35  O4  UNL     1     -18.102   8.738  49.880  1.00  0.00    -0.359 OA
ATOM     36  H4  UNL     1     -18.464   8.107  50.491  1.00  0.00     0.217 HD
ENDBRANCH  29  35
ENDBRANCH  21  22
ENDBRANCH  20  21
ENDBRANCH  19  20
ENDBRANCH   1  19
TORSDOF 15
ENDMDL
MODEL 2
REMARK VINA RESULT: -6.835911152      2.597      4.475
REMARK  15 active torsions:
REMARK  status: ('A' for Active; 'I' for Inactive)
REMARK    1  A    between atoms: N1_1  and  S1_4 
REMARK    2  A    between atoms: S1_4  and  C1_7 
REMARK    3  A    between atoms: C1_7  and  C2_8 
REMARK    4  A    between atoms: C2_8  and  C3_9 
REMARK    5  A    between atoms: C3_9  and  C4_10 
REMARK    6  A    between atoms: C4_10  and  C5_11 
REMARK    7  A    between atoms: C5_11  and  C6_12 
REMARK    8  A    between atoms: C6_12  and  S2_13 
REMARK    9  A    between atoms: S2_13  and  C7_14 
REMARK       I    between atoms: C7_14  and  N2_16 
REMARK   10  A    between atoms: N2_16  and  C8_18 
REMARK   11  A    between atoms: C8_18  and  C9_19 
REMARK   12  A    between atoms: C9_19  and  C10_20 
REMARK   13  A    between atoms: C10_20  and  C11_21 
REMARK   14  A    between atoms: C11_21  and  C12_22 
REMARK   15  A    between atoms: C17_28  and  O4_29 
ROOT
HETATM    1  C8  UNL     1     -13.838  12.779  47.604  1.00  0.00     0.123 C 
ENDROOT
BRANCH   1   2
HETATM    2  N2  UNL     1     -13.224  11.457  47.587  1.00  0.00    -0.352 N 
HETATM    3  C7  UNL     1     -12.159  11.127  46.718  1.00  0.00     0.279 C 
HETATM    4  O3  UNL     1     -11.648  11.928  45.896  1.00  0.00    -0.260 OA
ATOM      5  H2  UNL     1     -13.577  10.744  48.225  1.00  0.00     0.163 HD
BRANCH   3   6
HETATM    6  S2  UNL     1     -11.480   9.474  46.772  1.00  0.00    -0.069 SA
BRANCH   6   7
HETATM    7  C6  UNL     1     -12.167   8.441  45.450  1.00  0.00     0.084 C 
BRANCH   7   8
HETATM    8  C5  UNL     1     -13.445   9.069  44.989  1.00  0.00     0.010 C 
BRANCH   8   9
HETATM    9  C4  UNL     1     -13.381   9.588  43.586  1.00  0.00     0.001 C 
BRANCH   9  10
HETATM   10  C3  UNL     1     -14.049  10.943  43.439  1.00  0.00     0.001 C 
BRANCH  10  11
HETATM   11  C2  UNL     1     -13.731  11.482  42.083  1.00  0.00     0.017 C 
BRANCH  11  12
HETATM   12  C1  UNL     1     -12.932  10.569  41.223  1.00  0.00     0.163 C 
BRANCH  12  13
HETATM   13  S1  UNL     1     -13.018  10.915  39.506  1.00  0.00     0.224 S 
HETATM   14  O1  UNL     1     -12.145  12.065  39.151  1.00  0.00    -0.206 OA
HETATM   15  O2  UNL     1     -14.419  11.242  39.033  1.00  0.00    -0.206 OA
BRANCH  13  16
HETATM   16  N1  UNL     1     -12.504   9.481  38.647  1.00  0.00    -0.328 N 
ATOM     17  H12 UNL     1     -11.530   9.258  38.436  1.00  0.00     0.168 HD
ATOM     18  H11 UNL     1     -13.313   8.913  38.396  1.00  0.00     0.168 HD
ENDBRANCH  13  16
ENDBRANCH  12  13
ENDBRANCH  11  12
ENDBRANCH  10  11
ENDBRANCH   9  10
ENDBRANCH   8   9
ENDBRANCH   7   8
ENDBRANCH   6   7
ENDBRANCH   3   6
ENDBRANCH   1   2
BRANCH   1  19
HETATM   19  C9  UNL     1     -15.363  12.692  47.361  1.00  0.00     0.020 C 
BRANCH  19  20
HETATM   20  C10 UNL     1     -15.774  11.290  47.121  1.00  0.00     0.002 C 
BRANCH  20  21
HETATM   21  C11 UNL     1     -16.488  10.629  48.218  1.00  0.00     0.014 C 
BRANCH  21  22
HETATM   22  C12 UNL     1     -16.455   9.147  48.317  1.00  0.00     0.082 C 
HETATM   23  C13 UNL     1     -16.871   8.336  47.168  1.00  0.00     0.055 C 
HETATM   24  C14 UNL     1     -16.029   7.124  46.896  1.00  0.00    -0.029 A 
HETATM   25  C15 UNL     1     -16.486   6.284  45.897  1.00  0.00     0.036 A 
HETATM   26  C19 UNL     1     -14.885   6.798  47.537  1.00  0.00     0.043 A 
HETATM   27  C16 UNL     1     -15.802   5.128  45.545  1.00  0.00     0.067 A 
HETATM   28 CL1  UNL     1     -16.379   4.069  44.287  1.00  0.00    -0.081 Cl
HETATM   29  C17 UNL     1     -14.637   4.790  46.193  1.00  0.00     0.089 A 
HETATM   30  C18 UNL     1     -14.200   5.637  47.181  1.00  0.00     0.068 A 
HETATM   31  N3  UNL     1     -14.410   7.638  48.550  1.00  0.00    -0.326 N 
HETATM   32  C20 UNL     1     -15.113   8.799  48.892  1.00  0.00     0.226 C 
ATOM     33  H3  UNL     1     -13.548   7.404  49.041  1.00  0.00     0.169 HD
HETATM   34  O5  UNL     1     -14.618   9.600  49.714  1.00  0.00    -0.273 OA
BRANCH  29  35
HETATM   35  O4  UNL     1     -13.919   3.631  45.866  1.00  0.00    -0.359 OA
ATOM     36  H4  UNL     1     -13.047   3.470  46.205  1.00  0.00     0.217 HD
ENDBRANCH  29  35
ENDBRANCH  21  22
ENDBRANCH  20  21
ENDBRANCH  19  20
ENDBRANCH   1  19
TORSDOF 15
ENDMDL
MODEL 3
REMARK VINA RESULT: -6.743226314      2.219      2.991
REMARK  15 active torsions:
REMARK  status: ('A' for Active; 'I' for Inactive)
REMARK    1  A    between atoms: N1_1  and  S1_4 
REMARK    2  A    between atoms: S1_4  and  C1_7 
REMARK    3  A    between atoms: C1_7  and  C2_8 
REMARK    4  A    between atoms: C2_8  and  C3_9 
REMARK    5  A    between atoms: C3_9  and  C4_10 
REMARK    6  A    between atoms: C4_10  and  C5_11 
REMARK    7  A    between atoms: C5_11  and  C6_12 
REMARK    8  A    between atoms: C6_12  and  S2_13 
REMARK    9  A    between atoms: S2_13  and  C7_14 
REMARK       I    between atoms: C7_14  and  N2_16 
REMARK   10  A    between atoms: N2_16  and  C8_18 
REMARK   11  A    between atoms: C8_18  and  C9_19 
REMARK   12  A    between atoms: C9_19  and  C10_20 
REMARK   13  A    between atoms: C10_20  and  C11_21 
REMARK   14  A    between atoms: C11_21  and  C12_22 
REMARK   15  A    between atoms: C17_28  and  O4_29 
ROOT
HETATM    1  C8  UNL     1     -14.779   5.499  43.598  1.00  0.00     0.123 C 
ENDROOT
BRANCH   1   2
HETATM    2  N2  UNL     1     -13.539   6.246  43.775  1.00  0.00    -0.352 N 
HETATM    3  C7  UNL     1     -12.975   7.034  42.746  1.00  0.00     0.279 C 
HETATM    4  O3  UNL     1     -13.481   7.167  41.604  1.00  0.00    -0.260 OA
ATOM      5  H2  UNL     1     -13.061   6.197  44.675  1.00  0.00     0.163 HD
BRANCH   3   6
HETATM    6  S2  UNL     1     -11.447   7.907  43.064  1.00  0.00    -0.069 SA
BRANCH   6   7
HETATM    7  C6  UNL     1     -11.577   8.930  44.554  1.00  0.00     0.084 C 
BRANCH   7   8
HETATM    8  C5  UNL     1     -12.910   9.610  44.535  1.00  0.00     0.010 C 
BRANCH   8   9
HETATM    9  C4  UNL     1     -12.913  10.895  43.766  1.00  0.00     0.001 C 
BRANCH   9  10
HETATM   10  C3  UNL     1     -14.306  11.303  43.327  1.00  0.00     0.001 C 
BRANCH  10  11
HETATM   11  C2  UNL     1     -14.343  11.327  41.834  1.00  0.00     0.017 C 
BRANCH  11  12
HETATM   12  C1  UNL     1     -13.137  10.759  41.173  1.00  0.00     0.163 C 
BRANCH  12  13
HETATM   13  S1  UNL     1     -13.053  11.027  39.443  1.00  0.00     0.224 S 
HETATM   14  O1  UNL     1     -12.110  12.131  39.121  1.00  0.00    -0.206 OA
HETATM   15  O2  UNL     1     -14.392  11.376  38.827  1.00  0.00    -0.206 OA
BRANCH  13  16
HETATM   16  N1  UNL     1     -12.513   9.539  38.699  1.00  0.00    -0.328 N 
ATOM     17  H12 UNL     1     -11.925   9.496  37.866  1.00  0.00     0.168 HD
ATOM     18  H11 UNL     1     -12.872   8.737  39.218  1.00  0.00     0.168 HD
ENDBRANCH  13  16
ENDBRANCH  12  13
ENDBRANCH  11  12
ENDBRANCH  10  11
ENDBRANCH   9  10
ENDBRANCH   8   9
ENDBRANCH   7   8
ENDBRANCH   6   7
ENDBRANCH   3   6
ENDBRANCH   1   2
BRANCH   1  19
HETATM   19  C9  UNL     1     -14.749   4.170  44.386  1.00  0.00     0.020 C 
BRANCH  19  20
HETATM   20  C10 UNL     1     -14.682   4.427  45.843  1.00  0.00     0.002 C 
BRANCH  20  21
HETATM   21  C11 UNL     1     -15.915   4.915  46.471  1.00  0.00     0.014 C 
BRANCH  21  22
HETATM   22  C12 UNL     1     -15.853   6.097  47.369  1.00  0.00     0.082 C 
HETATM   23  C13 UNL     1     -14.565   6.757  47.608  1.00  0.00     0.055 C 
HETATM   24  C14 UNL     1     -14.606   8.257  47.639  1.00  0.00    -0.029 A 
HETATM   25  C15 UNL     1     -13.425   8.885  47.992  1.00  0.00     0.036 A 
HETATM   26  C19 UNL     1     -15.682   9.023  47.355  1.00  0.00     0.043 A 
HETATM   27  C16 UNL     1     -13.326  10.269  48.058  1.00  0.00     0.067 A 
HETATM   28 CL1  UNL     1     -11.838  11.060  48.503  1.00  0.00    -0.081 Cl
HETATM   29  C17 UNL     1     -14.416  11.055  47.771  1.00  0.00     0.089 A 
HETATM   30  C18 UNL     1     -15.579  10.412  47.423  1.00  0.00     0.068 A 
HETATM   31  N3  UNL     1     -16.884   8.402  46.997  1.00  0.00    -0.326 N 
HETATM   32  C20 UNL     1     -16.966   7.006  46.936  1.00  0.00     0.226 C 
ATOM     33  H3  UNL     1     -17.703   8.969  46.781  1.00  0.00     0.169 HD
HETATM   34  O5  UNL     1     -18.007   6.469  46.502  1.00  0.00    -0.273 OA
BRANCH  29  35
HETATM   35  O4  UNL     1     -14.355  12.454  47.828  1.00  0.00    -0.359 OA
ATOM     36  H4  UNL     1     -14.485  12.928  48.641  1.00  0.00     0.217 HD
ENDBRANCH  29  35
ENDBRANCH  21  22
ENDBRANCH  20  21
ENDBRANCH  19  20
ENDBRANCH   1  19
TORSDOF 15
ENDMDL
MODEL 4
REMARK VINA RESULT: -6.552310803      1.734      4.041
REMARK  15 active torsions:
REMARK  status: ('A' for Active; 'I' for Inactive)
REMARK    1  A    between atoms: N1_1  and  S1_4 
REMARK    2  A    between atoms: S1_4  and  C1_7 
REMARK    3  A    between atoms: C1_7  and  C2_8 
REMARK    4  A    between atoms: C2_8  and  C3_9 
REMARK    5  A    between atoms: C3_9  and  C4_10 
REMARK    6  A    between atoms: C4_10  and  C5_11 
REMARK    7  A    between atoms: C5_11  and  C6_12 
REMARK    8  A    between atoms: C6_12  and  S2_13 
REMARK    9  A    between atoms: S2_13  and  C7_14 
REMARK       I    between atoms: C7_14  and  N2_16 
REMARK   10  A    between atoms: N2_16  and  C8_18 
REMARK   11  A    between atoms: C8_18  and  C9_19 
REMARK   12  A    between atoms: C9_19  and  C10_20 
REMARK   13  A    between atoms: C10_20  and  C11_21 
REMARK   14  A    between atoms: C11_21  and  C12_22 
REMARK   15  A    between atoms: C17_28  and  O4_29 
ROOT
HETATM    1  C8  UNL     1     -11.885   7.365  41.366  1.00  0.00     0.123 C 
ENDROOT
BRANCH   1   2
HETATM    2  N2  UNL     1     -12.186   8.763  41.077  1.00  0.00    -0.352 N 
HETATM    3  C7  UNL     1     -12.498   9.218  39.776  1.00  0.00     0.279 C 
HETATM    4  O3  UNL     1     -12.549   8.475  38.764  1.00  0.00    -0.260 OA
ATOM      5  H2  UNL     1     -12.169   9.437  41.843  1.00  0.00     0.163 HD
BRANCH   3   6
HETATM    6  S2  UNL     1     -12.846  10.954  39.528  1.00  0.00    -0.069 SA
BRANCH   6   7
HETATM    7  C6  UNL     1     -14.381  11.439  40.360  1.00  0.00     0.084 C 
BRANCH   7   8
HETATM    8  C5  UNL     1     -14.377  10.832  41.729  1.00  0.00     0.010 C 
BRANCH   8   9
HETATM    9  C4  UNL     1     -13.658  11.663  42.747  1.00  0.00     0.001 C 
BRANCH   9  10
HETATM   10  C3  UNL     1     -13.721  11.058  44.136  1.00  0.00     0.001 C 
BRANCH  10  11
HETATM   11  C2  UNL     1     -12.489  10.243  44.353  1.00  0.00     0.017 C 
BRANCH  11  12
HETATM   12  C1  UNL     1     -12.186   9.940  45.777  1.00  0.00     0.163 C 
BRANCH  12  13
HETATM   13  S1  UNL     1     -10.993  10.992  46.514  1.00  0.00     0.224 S 
HETATM   14  O1  UNL     1     -11.408  12.417  46.417  1.00  0.00    -0.206 OA
HETATM   15  O2  UNL     1      -9.621  10.873  45.884  1.00  0.00    -0.206 OA
BRANCH  13  16
HETATM   16  N1  UNL     1     -10.834  10.525  48.193  1.00  0.00    -0.328 N 
ATOM     17  H12 UNL     1     -10.062  10.809  48.796  1.00  0.00     0.168 HD
ATOM     18  H11 UNL     1     -11.619   9.934  48.468  1.00  0.00     0.168 HD
ENDBRANCH  13  16
ENDBRANCH  12  13
ENDBRANCH  11  12
ENDBRANCH  10  11
ENDBRANCH   9  10
ENDBRANCH   8   9
ENDBRANCH   7   8
ENDBRANCH   6   7
ENDBRANCH   3   6
ENDBRANCH   1   2
BRANCH   1  19
HETATM   19  C9  UNL     1     -12.529   6.917  42.698  1.00  0.00     0.020 C 
BRANCH  19  20
HETATM   20  C10 UNL     1     -13.980   7.215  42.703  1.00  0.00     0.002 C 
BRANCH  20  21
HETATM   21  C11 UNL     1     -14.853   6.163  43.233  1.00  0.00     0.014 C 
BRANCH  21  22
HETATM   22  C12 UNL     1     -15.095   6.089  44.697  1.00  0.00     0.082 C 
HETATM   23  C13 UNL     1     -14.594   7.159  45.567  1.00  0.00     0.055 C 
HETATM   24  C14 UNL     1     -15.526   7.587  46.663  1.00  0.00    -0.029 A 
HETATM   25  C15 UNL     1     -15.015   8.501  47.566  1.00  0.00     0.036 A 
HETATM   26  C19 UNL     1     -16.796   7.160  46.830  1.00  0.00     0.043 A 
HETATM   27  C16 UNL     1     -15.772   8.981  48.627  1.00  0.00     0.067 A 
HETATM   28 CL1  UNL     1     -15.126  10.133  49.766  1.00  0.00    -0.081 Cl
HETATM   29  C17 UNL     1     -17.065   8.551  48.804  1.00  0.00     0.089 A 
HETATM   30  C18 UNL     1     -17.554   7.644  47.896  1.00  0.00     0.068 A 
HETATM   31  N3  UNL     1     -17.328   6.235  45.924  1.00  0.00    -0.326 N 
HETATM   32  C20 UNL     1     -16.550   5.761  44.861  1.00  0.00     0.226 C 
ATOM     33  H3  UNL     1     -18.286   5.904  46.040  1.00  0.00     0.169 HD
HETATM   34  O5  UNL     1     -17.073   5.029  43.994  1.00  0.00    -0.273 OA
BRANCH  29  35
HETATM   35  O4  UNL     1     -17.860   9.012  49.863  1.00  0.00    -0.359 OA
ATOM     36  H4  UNL     1     -18.569   8.491  50.220  1.00  0.00     0.217 HD
ENDBRANCH  29  35
ENDBRANCH  21  22
ENDBRANCH  20  21
ENDBRANCH  19  20
ENDBRANCH   1  19
TORSDOF 15
ENDMDL
MODEL 5
REMARK VINA RESULT: -6.518850296      2.525      3.708
REMARK  15 active torsions:
REMARK  status: ('A' for Active; 'I' for Inactive)
REMARK    1  A    between atoms: N1_1  and  S1_4 
REMARK    2  A    between atoms: S1_4  and  C1_7 
REMARK    3  A    between atoms: C1_7  and  C2_8 
REMARK    4  A    between atoms: C2_8  and  C3_9 
REMARK    5  A    between atoms: C3_9  and  C4_10 
REMARK    6  A    between atoms: C4_10  and  C5_11 
REMARK    7  A    between atoms: C5_11  and  C6_12 
REMARK    8  A    between atoms: C6_12  and  S2_13 
REMARK    9  A    between atoms: S2_13  and  C7_14 
REMARK       I    between atoms: C7_14  and  N2_16 
REMARK   10  A    between atoms: N2_16  and  C8_18 
REMARK   11  A    between atoms: C8_18  and  C9_19 
REMARK   12  A    between atoms: C9_19  and  C10_20 
REMARK   13  A    between atoms: C10_20  and  C11_21 
REMARK   14  A    between atoms: C11_21  and  C12_22 
REMARK   15  A    between atoms: C17_28  and  O4_29 
ROOT
HETATM    1  C8  UNL     1     -14.725   4.523  44.689  1.00  0.00     0.123 C 
ENDROOT
BRANCH   1   2
HETATM    2  N2  UNL     1     -13.701   5.549  44.529  1.00  0.00    -0.352 N 
HETATM    3  C7  UNL     1     -13.640   6.388  43.394  1.00  0.00     0.279 C 
HETATM    4  O3  UNL     1     -14.449   6.335  42.435  1.00  0.00    -0.260 OA
ATOM      5  H2  UNL     1     -13.003   5.663  45.264  1.00  0.00     0.163 HD
BRANCH   3   6
HETATM    6  S2  UNL     1     -12.339   7.612  43.293  1.00  0.00    -0.069 SA
BRANCH   6   7
HETATM    7  C6  UNL     1     -12.355   8.705  44.739  1.00  0.00     0.084 C 
BRANCH   7   8
HETATM    8  C5  UNL     1     -12.140  10.107  44.262  1.00  0.00     0.010 C 
BRANCH   8   9
HETATM    9  C4  UNL     1     -13.347  10.980  44.415  1.00  0.00     0.001 C 
BRANCH   9  10
HETATM   10  C3  UNL     1     -14.296  10.868  43.236  1.00  0.00     0.001 C 
BRANCH  10  11
HETATM   11  C2  UNL     1     -13.651  11.503  42.049  1.00  0.00     0.017 C 
BRANCH  11  12
HETATM   12  C1  UNL     1     -12.958  10.555  41.135  1.00  0.00     0.163 C 
BRANCH  12  13
HETATM   13  S1  UNL     1     -13.082  10.953  39.433  1.00  0.00     0.224 S 
HETATM   14  O1  UNL     1     -12.168  12.071  39.079  1.00  0.00    -0.206 OA
HETATM   15  O2  UNL     1     -14.481  11.357  39.014  1.00  0.00    -0.206 OA
BRANCH  13  16
HETATM   16  N1  UNL     1     -12.662   9.521  38.519  1.00  0.00    -0.328 N 
ATOM     17  H12 UNL     1     -12.818   8.567  38.847  1.00  0.00     0.168 HD
ATOM     18  H11 UNL     1     -12.246   9.784  37.626  1.00  0.00     0.168 HD
ENDBRANCH  13  16
ENDBRANCH  12  13
ENDBRANCH  11  12
ENDBRANCH  10  11
ENDBRANCH   9  10
ENDBRANCH   8   9
ENDBRANCH   7   8
ENDBRANCH   6   7
ENDBRANCH   3   6
ENDBRANCH   1   2
BRANCH   1  19
HETATM   19  C9  UNL     1     -16.053   5.132  45.194  1.00  0.00     0.020 C 
BRANCH  19  20
HETATM   20  C10 UNL     1     -16.220   4.890  46.646  1.00  0.00     0.002 C 
BRANCH  20  21
HETATM   21  C11 UNL     1     -16.143   6.071  47.511  1.00  0.00     0.014 C 
BRANCH  21  22
HETATM   22  C12 UNL     1     -15.554   7.326  46.976  1.00  0.00     0.082 C 
HETATM   23  C13 UNL     1     -16.331   8.569  47.029  1.00  0.00     0.055 C 
HETATM   24  C14 UNL     1     -15.556   9.798  47.404  1.00  0.00    -0.029 A 
HETATM   25  C15 UNL     1     -16.248  10.993  47.331  1.00  0.00     0.036 A 
HETATM   26  C19 UNL     1     -14.265   9.826  47.800  1.00  0.00     0.043 A 
HETATM   27  C16 UNL     1     -15.649  12.205  47.652  1.00  0.00     0.067 A 
HETATM   28 CL1  UNL     1     -16.522  13.711  47.559  1.00  0.00    -0.081 Cl
HETATM   29  C17 UNL     1     -14.335  12.241  48.055  1.00  0.00     0.089 A 
HETATM   30  C18 UNL     1     -13.666  11.044  48.121  1.00  0.00     0.068 A 
HETATM   31  N3  UNL     1     -13.551   8.624  47.879  1.00  0.00    -0.326 N 
HETATM   32  C20 UNL     1     -14.170   7.413  47.551  1.00  0.00     0.226 C 
ATOM     33  H3  UNL     1     -12.576   8.632  48.176  1.00  0.00     0.169 HD
HETATM   34  O5  UNL     1     -13.560   6.339  47.738  1.00  0.00    -0.273 OA
BRANCH  29  35
HETATM   35  O4  UNL     1     -13.696  13.444  48.386  1.00  0.00    -0.359 OA
ATOM     36  H4  UNL     1     -13.114  13.885  47.780  1.00  0.00     0.217 HD
ENDBRANCH  29  35
ENDBRANCH  21  22
ENDBRANCH  20  21
ENDBRANCH  19  20
ENDBRANCH   1  19
TORSDOF 15
ENDMDL
