MODEL 1
REMARK VINA RESULT: -6.855226697      0.000      0.000
REMARK  17 active torsions:
REMARK  status: ('A' for Active; 'I' for Inactive)
REMARK    1  A    between atoms: C1_2  and  C2_3 
REMARK       I    between atoms: C1_2  and  N1_7 
REMARK    2  A    between atoms: C2_3  and  C3_4 
REMARK    3  A    between atoms: C3_4  and  O2_5 
REMARK    4  A    between atoms: N1_7  and  C4_9 
REMARK    5  A    between atoms: C4_9  and  C5_10 
REMARK    6  A    between atoms: C5_10  and  C6_11 
REMARK    7  A    between atoms: C6_11  and  C7_12 
REMARK    8  A    between atoms: C7_12  and  C8_13 
REMARK    9  A    between atoms: C8_13  and  C9_14 
REMARK   10  A    between atoms: C9_14  and  O4_19 
REMARK   11  A    between atoms: N2_15  and  O3_17 
REMARK   12  A    between atoms: O4_19  and  C10_20 
REMARK   13  A    between atoms: C10_20  and  C11_21 
REMARK   14  A    between atoms: C11_21  and  N3_22 
REMARK   15  A    between atoms: C12_24  and  C13_25 
REMARK   16  A    between atoms: C14_26  and  O5_27 
REMARK   17  A    between atoms: C19_36  and  C20_37 
ROOT
HETATM    1  C10 UNL     1      77.830   4.566  -2.131  1.00  0.00     0.196 C 
ENDROOT
BRANCH   1   2
HETATM    2  O4  UNL     1      78.110   5.534  -1.214  1.00  0.00    -0.336 OA
BRANCH   2   3
HETATM    3  C9  UNL     1      77.579   5.610   0.052  1.00  0.00     0.137 C 
HETATM    4  N2  UNL     1      78.347   5.460   1.035  1.00  0.00    -0.251 N 
ATOM      5  H2  UNL     1      79.318   5.286   0.777  1.00  0.00     0.196 HD
BRANCH   3   6
HETATM    6  C8  UNL     1      76.106   5.873   0.255  1.00  0.00     0.086 C 
BRANCH   6   7
HETATM    7  C7  UNL     1      75.810   7.340   0.331  1.00  0.00     0.012 C 
BRANCH   7   8
HETATM    8  C6  UNL     1      75.237   7.893  -0.949  1.00  0.00     0.029 C 
BRANCH   8   9
HETATM    9  C5  UNL     1      74.986   6.943  -2.027  1.00  0.00    -0.010 C 
BRANCH   9  10
HETATM   10  C4  UNL     1      75.174   7.242  -3.454  1.00  0.00     0.087 C 
BRANCH  10  11
HETATM   11  N1  UNL     1      74.126   7.132  -4.376  1.00  0.00    -0.337 N 
HETATM   12  C1  UNL     1      73.808   6.142  -5.299  1.00  0.00     0.223 C 
HETATM   13  O1  UNL     1      74.439   5.091  -5.472  1.00  0.00    -0.273 OA
ATOM     14  H1  UNL     1      73.479   7.921  -4.370  1.00  0.00     0.168 HD
BRANCH  12  15
HETATM   15  C2  UNL     1      72.573   6.352  -6.193  1.00  0.00     0.129 C 
BRANCH  15  16
HETATM   16  C3  UNL     1      73.003   6.979  -7.483  1.00  0.00     0.173 C 
BRANCH  16  17
HETATM   17  O2  UNL     1      74.364   7.328  -7.421  1.00  0.00    -0.400 OA
ATOM     18  H2  UNL     1      74.458   8.224  -7.117  1.00  0.00     0.209 HD
ENDBRANCH  16  17
ENDBRANCH  15  16
ENDBRANCH  12  15
ENDBRANCH  10  11
ENDBRANCH   9  10
ENDBRANCH   8   9
ENDBRANCH   7   8
ENDBRANCH   6   7
ENDBRANCH   3   6
BRANCH   4  19
HETATM   19  O3  UNL     1      78.136   5.485   2.357  1.00  0.00    -0.288 OA
ATOM     20  H3  UNL     1      78.433   6.072   3.042  1.00  0.00     0.244 HD
ENDBRANCH   4  19
ENDBRANCH   2   3
ENDBRANCH   1   2
BRANCH   1  21
HETATM   21  C11 UNL     1      78.627   4.498  -3.387  1.00  0.00     0.146 C 
BRANCH  21  22
HETATM   22  N3  UNL     1      78.340   5.598  -4.230  1.00  0.00    -0.396 N 
HETATM   23  C12 UNL     1      79.164   6.515  -4.644  1.00  0.00     0.099 C 
ATOM     24  H3  UNL     1      77.375   5.680  -4.549  1.00  0.00     0.158 HD
BRANCH  23  25
HETATM   25  C13 UNL     1      78.603   7.525  -5.500  1.00  0.00     0.043 A 
HETATM   26  C14 UNL     1      77.577   7.294  -6.429  1.00  0.00     0.153 A 
HETATM   27  N4  UNL     1      77.278   8.417  -7.077  1.00  0.00    -0.336 N 
HETATM   28  C15 UNL     1      78.076   9.392  -6.608  1.00  0.00     0.047 A 
ATOM     29  H4  UNL     1      76.569   8.520  -7.803  1.00  0.00     0.168 HD
HETATM   30  C16 UNL     1      78.178  10.730  -6.940  1.00  0.00     0.049 A 
HETATM   31  C23 UNL     1      78.918   8.863  -5.615  1.00  0.00     0.013 A 
HETATM   32  C17 UNL     1      79.082  11.562  -6.325  1.00  0.00     0.013 A 
HETATM   33 BR1  UNL     1      79.200  13.407  -6.806  1.00  0.00    -0.051 Br
HETATM   34  C18 UNL     1      79.912  11.056  -5.352  1.00  0.00     0.027 A 
HETATM   35  C19 UNL     1      79.812   9.694  -5.011  1.00  0.00    -0.039 A 
BRANCH  26  36
HETATM   36  O5  UNL     1      76.967   6.056  -6.633  1.00  0.00    -0.345 OA
ATOM     37  H5  UNL     1      76.754   5.699  -7.487  1.00  0.00     0.219 HD
ENDBRANCH  26  36
BRANCH  35  38
HETATM   38  C20 UNL     1      80.712   9.233  -3.927  1.00  0.00     0.019 A 
HETATM   39  C21 UNL     1      82.096   8.639  -4.347  1.00  0.00     0.010 A 
HETATM   40  C22 UNL     1      82.040  10.040  -3.952  1.00  0.00     0.010 A 
ENDBRANCH  35  38
ENDBRANCH  23  25
ENDBRANCH  21  22
ENDBRANCH   1  21
TORSDOF 17
ENDMDL
MODEL 2
REMARK VINA RESULT: -6.758272750      2.125      3.591
REMARK  17 active torsions:
REMARK  status: ('A' for Active; 'I' for Inactive)
REMARK    1  A    between atoms: C1_2  and  C2_3 
REMARK       I    between atoms: C1_2  and  N1_7 
REMARK    2  A    between atoms: C2_3  and  C3_4 
REMARK    3  A    between atoms: C3_4  and  O2_5 
REMARK    4  A    between atoms: N1_7  and  C4_9 
REMARK    5  A    between atoms: C4_9  and  C5_10 
REMARK    6  A    between atoms: C5_10  and  C6_11 
REMARK    7  A    between atoms: C6_11  and  C7_12 
REMARK    8  A    between atoms: C7_12  and  C8_13 
REMARK    9  A    between atoms: C8_13  and  C9_14 
REMARK   10  A    between atoms: C9_14  and  O4_19 
REMARK   11  A    between atoms: N2_15  and  O3_17 
REMARK   12  A    between atoms: O4_19  and  C10_20 
REMARK   13  A    between atoms: C10_20  and  C11_21 
REMARK   14  A    between atoms: C11_21  and  N3_22 
REMARK   15  A    between atoms: C12_24  and  C13_25 
REMARK   16  A    between atoms: C14_26  and  O5_27 
REMARK   17  A    between atoms: C19_36  and  C20_37 
ROOT
HETATM    1  C10 UNL     1      77.675   5.466  -1.856  1.00  0.00     0.196 C 
ENDROOT
BRANCH   1   2
HETATM    2  O4  UNL     1      76.392   5.410  -1.400  1.00  0.00    -0.336 OA
BRANCH   2   3
HETATM    3  C9  UNL     1      75.793   6.343  -0.587  1.00  0.00     0.137 C 
HETATM    4  N2  UNL     1      75.719   6.107   0.645  1.00  0.00    -0.251 N 
ATOM      5  H2  UNL     1      76.121   5.210   0.917  1.00  0.00     0.196 HD
BRANCH   3   6
HETATM    6  C8  UNL     1      75.243   7.626  -1.162  1.00  0.00     0.086 C 
BRANCH   6   7
HETATM    7  C7  UNL     1      75.143   7.567  -2.656  1.00  0.00     0.012 C 
BRANCH   7   8
HETATM    8  C6  UNL     1      73.880   6.899  -3.136  1.00  0.00     0.029 C 
BRANCH   8   9
HETATM    9  C5  UNL     1      73.580   6.997  -4.561  1.00  0.00    -0.010 C 
BRANCH   9  10
HETATM   10  C4  UNL     1      74.201   6.159  -5.597  1.00  0.00     0.087 C 
BRANCH  10  11
HETATM   11  N1  UNL     1      75.453   5.559  -5.410  1.00  0.00    -0.337 N 
HETATM   12  C1  UNL     1      76.461   5.230  -6.309  1.00  0.00     0.223 C 
HETATM   13  O1  UNL     1      76.433   5.439  -7.530  1.00  0.00    -0.273 OA
ATOM     14  H1  UNL     1      75.663   5.322  -4.441  1.00  0.00     0.168 HD
BRANCH  12  15
HETATM   15  C2  UNL     1      77.726   4.545  -5.763  1.00  0.00     0.129 C 
BRANCH  15  16
HETATM   16  C3  UNL     1      77.411   3.117  -5.444  1.00  0.00     0.173 C 
BRANCH  16  17
HETATM   17  O2  UNL     1      76.167   2.761  -5.995  1.00  0.00    -0.400 OA
ATOM     18  H2  UNL     1      75.942   1.872  -5.749  1.00  0.00     0.209 HD
ENDBRANCH  16  17
ENDBRANCH  15  16
ENDBRANCH  12  15
ENDBRANCH  10  11
ENDBRANCH   9  10
ENDBRANCH   8   9
ENDBRANCH   7   8
ENDBRANCH   6   7
ENDBRANCH   3   6
BRANCH   4  19
HETATM   19  O3  UNL     1      75.213   6.804   1.669  1.00  0.00    -0.288 OA
ATOM     20  H3  UNL     1      75.511   6.940   2.561  1.00  0.00     0.244 HD
ENDBRANCH   4  19
ENDBRANCH   2   3
ENDBRANCH   1   2
BRANCH   1  21
HETATM   21  C11 UNL     1      78.659   6.337  -1.156  1.00  0.00     0.146 C 
BRANCH  21  22
HETATM   22  N3  UNL     1      79.345   7.166  -2.075  1.00  0.00    -0.396 N 
HETATM   23  C12 UNL     1      79.080   7.341  -3.336  1.00  0.00     0.099 C 
ATOM     24  H3  UNL     1      80.140   7.687  -1.705  1.00  0.00     0.158 HD
BRANCH  23  25
HETATM   25  C13 UNL     1      79.944   8.248  -4.043  1.00  0.00     0.043 A 
HETATM   26  C14 UNL     1      81.308   8.422  -3.761  1.00  0.00     0.153 A 
HETATM   27  N4  UNL     1      81.836   9.332  -4.574  1.00  0.00    -0.336 N 
HETATM   28  C15 UNL     1      80.863   9.772  -5.392  1.00  0.00     0.047 A 
ATOM     29  H4  UNL     1      82.808   9.642  -4.577  1.00  0.00     0.168 HD
HETATM   30  C16 UNL     1      80.877  10.710  -6.407  1.00  0.00     0.049 A 
HETATM   31  C23 UNL     1      79.664   9.108  -5.083  1.00  0.00     0.013 A 
HETATM   32  C17 UNL     1      79.746  11.015  -7.126  1.00  0.00     0.013 A 
HETATM   33 BR1  UNL     1      79.795  12.316  -8.523  1.00  0.00    -0.051 Br
HETATM   34  C18 UNL     1      78.566  10.371  -6.834  1.00  0.00     0.027 A 
HETATM   35  C19 UNL     1      78.548   9.416  -5.800  1.00  0.00    -0.039 A 
BRANCH  26  36
HETATM   36  O5  UNL     1      81.998   7.730  -2.765  1.00  0.00    -0.345 OA
ATOM     37  H5  UNL     1      82.689   8.107  -2.233  1.00  0.00     0.219 HD
ENDBRANCH  26  36
BRANCH  35  38
HETATM   38  C20 UNL     1      77.249   8.739  -5.570  1.00  0.00     0.019 A 
HETATM   39  C21 UNL     1      75.965   9.630  -5.566  1.00  0.00     0.010 A 
HETATM   40  C22 UNL     1      76.316   8.936  -6.797  1.00  0.00     0.010 A 
ENDBRANCH  35  38
ENDBRANCH  23  25
ENDBRANCH  21  22
ENDBRANCH   1  21
TORSDOF 17
ENDMDL
MODEL 3
REMARK VINA RESULT: -6.528500749      1.110      1.272
REMARK  17 active torsions:
REMARK  status: ('A' for Active; 'I' for Inactive)
REMARK    1  A    between atoms: C1_2  and  C2_3 
REMARK       I    between atoms: C1_2  and  N1_7 
REMARK    2  A    between atoms: C2_3  and  C3_4 
REMARK    3  A    between atoms: C3_4  and  O2_5 
REMARK    4  A    between atoms: N1_7  and  C4_9 
REMARK    5  A    between atoms: C4_9  and  C5_10 
REMARK    6  A    between atoms: C5_10  and  C6_11 
REMARK    7  A    between atoms: C6_11  and  C7_12 
REMARK    8  A    between atoms: C7_12  and  C8_13 
REMARK    9  A    between atoms: C8_13  and  C9_14 
REMARK   10  A    between atoms: C9_14  and  O4_19 
REMARK   11  A    between atoms: N2_15  and  O3_17 
REMARK   12  A    between atoms: O4_19  and  C10_20 
REMARK   13  A    between atoms: C10_20  and  C11_21 
REMARK   14  A    between atoms: C11_21  and  N3_22 
REMARK   15  A    between atoms: C12_24  and  C13_25 
REMARK   16  A    between atoms: C14_26  and  O5_27 
REMARK   17  A    between atoms: C19_36  and  C20_37 
ROOT
HETATM    1  C10 UNL     1      79.121   5.052  -1.796  1.00  0.00     0.196 C 
ENDROOT
BRANCH   1   2
HETATM    2  O4  UNL     1      78.605   6.124  -1.133  1.00  0.00    -0.336 OA
BRANCH   2   3
HETATM    3  C9  UNL     1      77.941   6.072   0.070  1.00  0.00     0.137 C 
HETATM    4  N2  UNL     1      78.507   5.515   1.045  1.00  0.00    -0.251 N 
ATOM      5  H2  UNL     1      79.431   5.143   0.827  1.00  0.00     0.196 HD
BRANCH   3   6
HETATM    6  C8  UNL     1      76.565   6.677   0.218  1.00  0.00     0.086 C 
BRANCH   6   7
HETATM    7  C7  UNL     1      75.713   6.417  -0.987  1.00  0.00     0.012 C 
BRANCH   7   8
HETATM    8  C6  UNL     1      75.374   7.672  -1.750  1.00  0.00     0.029 C 
BRANCH   8   9
HETATM    9  C5  UNL     1      75.369   7.581  -3.206  1.00  0.00    -0.010 C 
BRANCH   9  10
HETATM   10  C4  UNL     1      74.361   6.848  -3.986  1.00  0.00     0.087 C 
BRANCH  10  11
HETATM   11  N1  UNL     1      73.371   7.510  -4.722  1.00  0.00    -0.337 N 
HETATM   12  C1  UNL     1      73.305   7.873  -6.062  1.00  0.00     0.223 C 
HETATM   13  O1  UNL     1      74.174   7.642  -6.914  1.00  0.00    -0.273 OA
ATOM     14  H1  UNL     1      72.550   7.774  -4.176  1.00  0.00     0.168 HD
BRANCH  12  15
HETATM   15  C2  UNL     1      72.055   8.627  -6.550  1.00  0.00     0.129 C 
BRANCH  15  16
HETATM   16  C3  UNL     1      72.268  10.097  -6.367  1.00  0.00     0.173 C 
BRANCH  16  17
HETATM   17  O2  UNL     1      73.586  10.346  -5.944  1.00  0.00    -0.400 OA
ATOM     18  H2  UNL     1      74.150  10.486  -6.696  1.00  0.00     0.209 HD
ENDBRANCH  16  17
ENDBRANCH  15  16
ENDBRANCH  12  15
ENDBRANCH  10  11
ENDBRANCH   9  10
ENDBRANCH   8   9
ENDBRANCH   7   8
ENDBRANCH   6   7
ENDBRANCH   3   6
BRANCH   4  19
HETATM   19  O3  UNL     1      78.131   5.316   2.314  1.00  0.00    -0.288 OA
ATOM     20  H3  UNL     1      77.477   4.751   2.707  1.00  0.00     0.244 HD
ENDBRANCH   4  19
ENDBRANCH   2   3
ENDBRANCH   1   2
BRANCH   1  21
HETATM   21  C11 UNL     1      78.442   4.560  -3.027  1.00  0.00     0.146 C 
BRANCH  21  22
HETATM   22  N3  UNL     1      78.170   5.627  -3.916  1.00  0.00    -0.396 N 
HETATM   23  C12 UNL     1      79.028   6.409  -4.502  1.00  0.00     0.099 C 
ATOM     24  H3  UNL     1      77.186   5.802  -4.121  1.00  0.00     0.158 HD
BRANCH  23  25
HETATM   25  C13 UNL     1      78.474   7.419  -5.364  1.00  0.00     0.043 A 
HETATM   26  C14 UNL     1      77.408   7.204  -6.250  1.00  0.00     0.153 A 
HETATM   27  N4  UNL     1      77.127   8.321  -6.916  1.00  0.00    -0.336 N 
HETATM   28  C15 UNL     1      77.977   9.277  -6.499  1.00  0.00     0.047 A 
ATOM     29  H4  UNL     1      76.397   8.433  -7.618  1.00  0.00     0.168 HD
HETATM   30  C16 UNL     1      78.115  10.601  -6.869  1.00  0.00     0.049 A 
HETATM   31  C23 UNL     1      78.834   8.740  -5.524  1.00  0.00     0.013 A 
HETATM   32  C17 UNL     1      79.071  11.414  -6.307  1.00  0.00     0.013 A 
HETATM   33 BR1  UNL     1      79.239  13.240  -6.838  1.00  0.00    -0.051 Br
HETATM   34  C18 UNL     1      79.916  10.900  -5.351  1.00  0.00     0.027 A 
HETATM   35  C19 UNL     1      79.779   9.552  -4.972  1.00  0.00    -0.039 A 
BRANCH  26  36
HETATM   36  O5  UNL     1      76.746   5.985  -6.401  1.00  0.00    -0.345 OA
ATOM     37  H5  UNL     1      75.803   5.895  -6.482  1.00  0.00     0.219 HD
ENDBRANCH  26  36
BRANCH  35  38
HETATM   38  C20 UNL     1      80.700   9.083  -3.909  1.00  0.00     0.019 A 
HETATM   39  C21 UNL     1      82.086   8.516  -4.358  1.00  0.00     0.010 A 
HETATM   40  C22 UNL     1      82.016   9.909  -3.937  1.00  0.00     0.010 A 
ENDBRANCH  35  38
ENDBRANCH  23  25
ENDBRANCH  21  22
ENDBRANCH   1  21
TORSDOF 17
ENDMDL
MODEL 4
REMARK VINA RESULT: -6.511558336      3.616      5.377
REMARK  17 active torsions:
REMARK  status: ('A' for Active; 'I' for Inactive)
REMARK    1  A    between atoms: C1_2  and  C2_3 
REMARK       I    between atoms: C1_2  and  N1_7 
REMARK    2  A    between atoms: C2_3  and  C3_4 
REMARK    3  A    between atoms: C3_4  and  O2_5 
REMARK    4  A    between atoms: N1_7  and  C4_9 
REMARK    5  A    between atoms: C4_9  and  C5_10 
REMARK    6  A    between atoms: C5_10  and  C6_11 
REMARK    7  A    between atoms: C6_11  and  C7_12 
REMARK    8  A    between atoms: C7_12  and  C8_13 
REMARK    9  A    between atoms: C8_13  and  C9_14 
REMARK   10  A    between atoms: C9_14  and  O4_19 
REMARK   11  A    between atoms: N2_15  and  O3_17 
REMARK   12  A    between atoms: O4_19  and  C10_20 
REMARK   13  A    between atoms: C10_20  and  C11_21 
REMARK   14  A    between atoms: C11_21  and  N3_22 
REMARK   15  A    between atoms: C12_24  and  C13_25 
REMARK   16  A    between atoms: C14_26  and  O5_27 
REMARK   17  A    between atoms: C19_36  and  C20_37 
ROOT
HETATM    1  C10 UNL     1      78.413   6.051  -0.949  1.00  0.00     0.196 C 
ENDROOT
BRANCH   1   2
HETATM    2  O4  UNL     1      78.016   6.232   0.341  1.00  0.00    -0.336 OA
BRANCH   2   3
HETATM    3  C9  UNL     1      76.713   6.352   0.764  1.00  0.00     0.137 C 
HETATM    4  N2  UNL     1      76.144   5.344   1.252  1.00  0.00    -0.251 N 
ATOM      5  H2  UNL     1      76.732   4.511   1.278  1.00  0.00     0.196 HD
BRANCH   3   6
HETATM    6  C8  UNL     1      75.984   7.670   0.649  1.00  0.00     0.086 C 
BRANCH   6   7
HETATM    7  C7  UNL     1      74.947   7.637  -0.432  1.00  0.00     0.012 C 
BRANCH   7   8
HETATM    8  C6  UNL     1      75.535   7.731  -1.816  1.00  0.00     0.029 C 
BRANCH   8   9
HETATM    9  C5  UNL     1      74.760   7.148  -2.906  1.00  0.00    -0.010 C 
BRANCH   9  10
HETATM   10  C4  UNL     1      75.308   6.824  -4.231  1.00  0.00     0.087 C 
BRANCH  10  11
HETATM   11  N1  UNL     1      74.501   6.774  -5.374  1.00  0.00    -0.337 N 
HETATM   12  C1  UNL     1      73.332   6.072  -5.648  1.00  0.00     0.223 C 
HETATM   13  O1  UNL     1      72.745   5.318  -4.860  1.00  0.00    -0.273 OA
ATOM     14  H1  UNL     1      74.828   7.357  -6.143  1.00  0.00     0.168 HD
BRANCH  12  15
HETATM   15  C2  UNL     1      72.700   6.230  -7.042  1.00  0.00     0.129 C 
BRANCH  15  16
HETATM   16  C3  UNL     1      71.928   7.511  -7.087  1.00  0.00     0.173 C 
BRANCH  16  17
HETATM   17  O2  UNL     1      72.061   8.200  -5.868  1.00  0.00    -0.400 OA
ATOM     18  H2  UNL     1      71.363   7.950  -5.273  1.00  0.00     0.209 HD
ENDBRANCH  16  17
ENDBRANCH  15  16
ENDBRANCH  12  15
ENDBRANCH  10  11
ENDBRANCH   9  10
ENDBRANCH   8   9
ENDBRANCH   7   8
ENDBRANCH   6   7
ENDBRANCH   3   6
BRANCH   4  19
HETATM   19  O3  UNL     1      74.915   5.151   1.746  1.00  0.00    -0.288 OA
ATOM     20  H3  UNL     1      74.476   5.484   2.520  1.00  0.00     0.244 HD
ENDBRANCH   4  19
ENDBRANCH   2   3
ENDBRANCH   1   2
BRANCH   1  21
HETATM   21  C11 UNL     1      77.733   5.022  -1.784  1.00  0.00     0.146 C 
BRANCH  21  22
HETATM   22  N3  UNL     1      78.675   4.156  -2.388  1.00  0.00    -0.396 N 
HETATM   23  C12 UNL     1      78.449   3.237  -3.281  1.00  0.00     0.099 C 
ATOM     24  H3  UNL     1      79.644   4.264  -2.087  1.00  0.00     0.158 HD
BRANCH  23  25
HETATM   25  C13 UNL     1      79.598   2.496  -3.727  1.00  0.00     0.043 A 
HETATM   26  C14 UNL     1      80.252   1.518  -2.963  1.00  0.00     0.153 A 
HETATM   27  N4  UNL     1      81.282   1.016  -3.639  1.00  0.00    -0.336 N 
HETATM   28  C15 UNL     1      81.334   1.632  -4.833  1.00  0.00     0.047 A 
ATOM     29  H4  UNL     1      81.920   0.291  -3.310  1.00  0.00     0.168 HD
HETATM   30  C16 UNL     1      82.204   1.489  -5.899  1.00  0.00     0.049 A 
HETATM   31  C23 UNL     1      80.288   2.566  -4.918  1.00  0.00     0.013 A 
HETATM   32  C17 UNL     1      82.073   2.237  -7.044  1.00  0.00     0.013 A 
HETATM   33 BR1  UNL     1      83.290   2.017  -8.501  1.00  0.00    -0.051 Br
HETATM   34  C18 UNL     1      81.053   3.154  -7.140  1.00  0.00     0.027 A 
HETATM   35  C19 UNL     1      80.166   3.303  -6.057  1.00  0.00    -0.039 A 
BRANCH  26  36
HETATM   36  O5  UNL     1      79.866   1.136  -1.678  1.00  0.00    -0.345 OA
ATOM     37  H5  UNL     1      79.229   0.456  -1.490  1.00  0.00     0.219 HD
ENDBRANCH  26  36
BRANCH  35  38
HETATM   38  C20 UNL     1      79.071   4.284  -6.250  1.00  0.00     0.019 A 
HETATM   39  C21 UNL     1      79.345   5.761  -5.819  1.00  0.00     0.010 A 
HETATM   40  C22 UNL     1      79.523   5.409  -7.221  1.00  0.00     0.010 A 
ENDBRANCH  35  38
ENDBRANCH  23  25
ENDBRANCH  21  22
ENDBRANCH   1  21
TORSDOF 17
ENDMDL
MODEL 5
REMARK VINA RESULT: -6.431175870      2.083      5.248
REMARK  17 active torsions:
REMARK  status: ('A' for Active; 'I' for Inactive)
REMARK    1  A    between atoms: C1_2  and  C2_3 
REMARK       I    between atoms: C1_2  and  N1_7 
REMARK    2  A    between atoms: C2_3  and  C3_4 
REMARK    3  A    between atoms: C3_4  and  O2_5 
REMARK    4  A    between atoms: N1_7  and  C4_9 
REMARK    5  A    between atoms: C4_9  and  C5_10 
REMARK    6  A    between atoms: C5_10  and  C6_11 
REMARK    7  A    between atoms: C6_11  and  C7_12 
REMARK    8  A    between atoms: C7_12  and  C8_13 
REMARK    9  A    between atoms: C8_13  and  C9_14 
REMARK   10  A    between atoms: C9_14  and  O4_19 
REMARK   11  A    between atoms: N2_15  and  O3_17 
REMARK   12  A    between atoms: O4_19  and  C10_20 
REMARK   13  A    between atoms: C10_20  and  C11_21 
REMARK   14  A    between atoms: C11_21  and  N3_22 
REMARK   15  A    between atoms: C12_24  and  C13_25 
REMARK   16  A    between atoms: C14_26  and  O5_27 
REMARK   17  A    between atoms: C19_36  and  C20_37 
ROOT
HETATM    1  C10 UNL     1      77.623   4.432  -4.584  1.00  0.00     0.196 C 
ENDROOT
BRANCH   1   2
HETATM    2  O4  UNL     1      76.502   5.162  -4.844  1.00  0.00    -0.336 OA
BRANCH   2   3
HETATM    3  C9  UNL     1      75.726   5.056  -5.973  1.00  0.00     0.137 C 
HETATM    4  N2  UNL     1      75.902   4.070  -6.732  1.00  0.00    -0.251 N 
ATOM      5  H2  UNL     1      76.634   3.433  -6.417  1.00  0.00     0.196 HD
BRANCH   3   6
HETATM    6  C8  UNL     1      74.681   6.099  -6.292  1.00  0.00     0.086 C 
BRANCH   6   7
HETATM    7  C7  UNL     1      73.388   5.821  -5.589  1.00  0.00     0.012 C 
BRANCH   7   8
HETATM    8  C6  UNL     1      73.004   6.902  -4.611  1.00  0.00     0.029 C 
BRANCH   8   9
HETATM    9  C5  UNL     1      73.613   6.844  -3.286  1.00  0.00    -0.010 C 
BRANCH   9  10
HETATM   10  C4  UNL     1      74.905   7.453  -2.942  1.00  0.00     0.087 C 
BRANCH  10  11
HETATM   11  N1  UNL     1      75.818   6.818  -2.091  1.00  0.00    -0.337 N 
HETATM   12  C1  UNL     1      75.928   6.799  -0.705  1.00  0.00     0.223 C 
HETATM   13  O1  UNL     1      75.168   7.375   0.085  1.00  0.00    -0.273 OA
ATOM     14  H1  UNL     1      76.530   6.271  -2.574  1.00  0.00     0.168 HD
BRANCH  12  15
HETATM   15  C2  UNL     1      77.087   6.002  -0.079  1.00  0.00     0.129 C 
BRANCH  15  16
HETATM   16  C3  UNL     1      76.654   5.472   1.252  1.00  0.00     0.173 C 
BRANCH  16  17
HETATM   17  O2  UNL     1      77.742   5.453   2.143  1.00  0.00    -0.400 OA
ATOM     18  H2  UNL     1      78.335   4.745   1.919  1.00  0.00     0.209 HD
ENDBRANCH  16  17
ENDBRANCH  15  16
ENDBRANCH  12  15
ENDBRANCH  10  11
ENDBRANCH   9  10
ENDBRANCH   8   9
ENDBRANCH   7   8
ENDBRANCH   6   7
ENDBRANCH   3   6
BRANCH   4  19
HETATM   19  O3  UNL     1      75.313   3.693  -7.874  1.00  0.00    -0.288 OA
ATOM     20  H3  UNL     1      75.302   2.869  -8.347  1.00  0.00     0.244 HD
ENDBRANCH   4  19
ENDBRANCH   2   3
ENDBRANCH   1   2
BRANCH   1  21
HETATM   21  C11 UNL     1      78.598   4.926  -3.574  1.00  0.00     0.146 C 
BRANCH  21  22
HETATM   22  N3  UNL     1      79.279   6.073  -4.046  1.00  0.00    -0.396 N 
HETATM   23  C12 UNL     1      79.048   7.316  -3.737  1.00  0.00     0.099 C 
ATOM     24  H3  UNL     1      80.040   5.906  -4.704  1.00  0.00     0.158 HD
BRANCH  23  25
HETATM   25  C13 UNL     1      79.898   8.290  -4.367  1.00  0.00     0.043 A 
HETATM   26  C14 UNL     1      81.248   8.490  -4.040  1.00  0.00     0.153 A 
HETATM   27  N4  UNL     1      81.765   9.464  -4.785  1.00  0.00    -0.336 N 
HETATM   28  C15 UNL     1      80.798   9.921  -5.600  1.00  0.00     0.047 A 
ATOM     29  H4  UNL     1      82.725   9.804  -4.745  1.00  0.00     0.168 HD
HETATM   30  C16 UNL     1      80.804  10.918  -6.557  1.00  0.00     0.049 A 
HETATM   31  C23 UNL     1      79.614   9.202  -5.361  1.00  0.00     0.013 A 
HETATM   32  C17 UNL     1      79.681  11.228  -7.286  1.00  0.00     0.013 A 
HETATM   33 BR1  UNL     1      79.720  12.612  -8.602  1.00  0.00    -0.051 Br
HETATM   34  C18 UNL     1      78.516  10.532  -7.062  1.00  0.00     0.027 A 
HETATM   35  C19 UNL     1      78.506   9.516  -6.088  1.00  0.00    -0.039 A 
BRANCH  26  36
HETATM   36  O5  UNL     1      81.937   7.763  -3.070  1.00  0.00    -0.345 OA
ATOM     37  H5  UNL     1      81.642   7.653  -2.173  1.00  0.00     0.219 HD
ENDBRANCH  26  36
BRANCH  35  38
HETATM   38  C20 UNL     1      77.225   8.785  -5.931  1.00  0.00     0.019 A 
HETATM   39  C21 UNL     1      75.955   9.628  -5.586  1.00  0.00     0.010 A 
HETATM   40  C22 UNL     1      76.192   9.282  -6.981  1.00  0.00     0.010 A 
ENDBRANCH  35  38
ENDBRANCH  23  25
ENDBRANCH  21  22
ENDBRANCH   1  21
TORSDOF 17
ENDMDL
