MODEL 1
REMARK VINA RESULT: -7.357152793      0.000      0.000
REMARK  15 active torsions:
REMARK  status: ('A' for Active; 'I' for Inactive)
REMARK    1  A    between atoms: C2_2  and  C3_3 
REMARK    2  A    between atoms: C3_3  and  C4_4 
REMARK    3  A    between atoms: C4_4  and  C5_5 
REMARK    4  A    between atoms: C5_5  and  C6_6 
REMARK    5  A    between atoms: C6_6  and  C7_7 
REMARK    6  A    between atoms: C7_7  and  O1_8 
REMARK    7  A    between atoms: C7_7  and  C8_10 
REMARK    8  A    between atoms: C7_7  and  C20_31 
REMARK    9  A    between atoms: C8_10  and  N1_11 
REMARK   10  A    between atoms: C11_14  and  N2_15 
REMARK   11  A    between atoms: N2_15  and  C12_18 
REMARK   12  A    between atoms: C12_18  and  C13_19 
REMARK   13  A    between atoms: C20_31  and  O3_32 
REMARK   14  A    between atoms: C20_31  and  C21_34 
REMARK   15  A    between atoms: C21_34  and  C22_35 
ROOT
HETATM    1  N1  UNL     1      79.012   3.549  -3.385  1.00  0.00    -0.281 N 
HETATM    2  C9  UNL     1      79.298   2.432  -2.630  1.00  0.00     0.091 C 
HETATM    3  C10 UNL     1      80.297   1.446  -3.155  1.00  0.00     0.089 C 
HETATM    4  C11 UNL     1      80.781   1.593  -4.537  1.00  0.00     0.283 C 
HETATM    5  C19 UNL     1      79.936   2.441  -5.367  1.00  0.00     0.267 C 
HETATM    6  O2  UNL     1      79.841   2.225  -6.597  1.00  0.00    -0.269 OA
HETATM    7  N3  UNL     1      79.235   3.506  -4.732  1.00  0.00    -0.263 N 
ATOM      8  H3  UNL     1      78.883   4.270  -5.309  1.00  0.00     0.190 HD
ENDROOT
BRANCH   1   9
HETATM    9  C8  UNL     1      78.380   4.668  -2.876  1.00  0.00     0.128 C 
BRANCH   9  10
HETATM   10  C7  UNL     1      79.341   5.720  -2.334  1.00  0.00     0.117 C 
BRANCH  10  11
HETATM   11  C6  UNL     1      78.753   6.169  -0.978  1.00  0.00     0.046 C 
BRANCH  11  12
HETATM   12  C5  UNL     1      77.276   5.951  -0.913  1.00  0.00     0.004 C 
BRANCH  12  13
HETATM   13  C4  UNL     1      76.502   7.238  -1.146  1.00  0.00     0.000 C 
BRANCH  13  14
HETATM   14  C3  UNL     1      75.068   6.990  -1.545  1.00  0.00    -0.000 C 
BRANCH  14  15
HETATM   15  C2  UNL     1      74.938   6.838  -3.044  1.00  0.00    -0.005 C 
HETATM   16  C1  UNL     1      75.839   7.809  -3.783  1.00  0.00     0.005 C 
ENDBRANCH  14  15
ENDBRANCH  13  14
ENDBRANCH  12  13
ENDBRANCH  11  12
ENDBRANCH  10  11
BRANCH  10  17
HETATM   17  O1  UNL     1      80.534   5.132  -2.031  1.00  0.00    -0.382 OA
ATOM     18  H1  UNL     1      81.094   5.840  -1.737  1.00  0.00     0.211 HD
ENDBRANCH  10  17
BRANCH  10  19
HETATM   19  C20 UNL     1      79.420   6.899  -3.228  1.00  0.00     0.158 C 
BRANCH  19  20
HETATM   20  O3  UNL     1      79.982   6.383  -4.461  1.00  0.00    -0.392 OA
ATOM     21  H3  UNL     1      79.281   6.469  -5.097  1.00  0.00     0.210 HD
ENDBRANCH  19  20
BRANCH  19  22
HETATM   22  C21 UNL     1      80.334   8.010  -2.877  1.00  0.00     0.039 C 
BRANCH  22  23
HETATM   23  C22 UNL     1      80.353   9.231  -3.739  1.00  0.00    -0.008 C 
HETATM   24  C23 UNL     1      81.762   9.358  -4.287  1.00  0.00     0.031 C 
HETATM   25  C24 UNL     1      81.969   8.744  -5.618  1.00  0.00     0.168 C 
HETATM   26  O4  UNL     1      80.832   8.661  -6.407  1.00  0.00    -0.391 OA
HETATM   27  C25 UNL     1      79.976   9.710  -6.093  1.00  0.00     0.168 C 
HETATM   28  C26 UNL     1      79.301   9.280  -4.791  1.00  0.00     0.031 C 
ENDBRANCH  22  23
ENDBRANCH  19  22
ENDBRANCH  10  19
ENDBRANCH   9  10
ENDBRANCH   1   9
BRANCH   4  29
HETATM   29  N2  UNL     1      82.191   1.913  -4.679  1.00  0.00    -0.058 N 
ATOM     30  H22 UNL     1      82.318   2.776  -5.209  1.00  0.00     0.278 HD
ATOM     31  H21 UNL     1      82.591   2.206  -3.788  1.00  0.00     0.278 HD
BRANCH  29  32
HETATM   32  C12 UNL     1      82.945   0.849  -5.251  1.00  0.00     0.271 C 
BRANCH  32  33
HETATM   33  C13 UNL     1      82.831   0.776  -6.725  1.00  0.00    -0.031 A 
HETATM   34  C14 UNL     1      82.450  -0.415  -7.307  1.00  0.00     0.010 A 
HETATM   35  C15 UNL     1      82.323  -0.563  -8.673  1.00  0.00     0.021 A 
HETATM   36  C16 UNL     1      82.579   0.496  -9.510  1.00  0.00     0.033 A 
HETATM   37  S1  UNL     1      82.416   0.307 -11.289  1.00  0.00    -0.051 SA
HETATM   38  C17 UNL     1      82.961   1.693  -8.942  1.00  0.00     0.052 A 
HETATM   39 CL1  UNL     1      83.284   3.038 -10.003  1.00  0.00    -0.083 Cl
HETATM   40  C18 UNL     1      83.087   1.837  -7.558  1.00  0.00     0.034 A 
ENDBRANCH  32  33
ENDBRANCH  29  32
ENDBRANCH   4  29
TORSDOF 15
ENDMDL
MODEL 2
REMARK VINA RESULT: -7.302377828      5.443      8.000
REMARK  15 active torsions:
REMARK  status: ('A' for Active; 'I' for Inactive)
REMARK    1  A    between atoms: C2_2  and  C3_3 
REMARK    2  A    between atoms: C3_3  and  C4_4 
REMARK    3  A    between atoms: C4_4  and  C5_5 
REMARK    4  A    between atoms: C5_5  and  C6_6 
REMARK    5  A    between atoms: C6_6  and  C7_7 
REMARK    6  A    between atoms: C7_7  and  O1_8 
REMARK    7  A    between atoms: C7_7  and  C8_10 
REMARK    8  A    between atoms: C7_7  and  C20_31 
REMARK    9  A    between atoms: C8_10  and  N1_11 
REMARK   10  A    between atoms: C11_14  and  N2_15 
REMARK   11  A    between atoms: N2_15  and  C12_18 
REMARK   12  A    between atoms: C12_18  and  C13_19 
REMARK   13  A    between atoms: C20_31  and  O3_32 
REMARK   14  A    between atoms: C20_31  and  C21_34 
REMARK   15  A    between atoms: C21_34  and  C22_35 
ROOT
HETATM    1  N1  UNL     1      75.828   7.435  -7.571  1.00  0.00    -0.281 N 
HETATM    2  C9  UNL     1      74.513   7.795  -7.763  1.00  0.00     0.091 C 
HETATM    3  C10 UNL     1      73.476   7.261  -6.820  1.00  0.00     0.089 C 
HETATM    4  C11 UNL     1      73.863   6.219  -5.857  1.00  0.00     0.283 C 
HETATM    5  C19 UNL     1      75.106   5.539  -6.197  1.00  0.00     0.267 C 
HETATM    6  O2  UNL     1      75.275   4.339  -5.880  1.00  0.00    -0.269 OA
HETATM    7  N3  UNL     1      76.102   6.282  -6.892  1.00  0.00    -0.263 N 
ATOM      8  H3  UNL     1      77.062   5.938  -6.882  1.00  0.00     0.190 HD
ENDROOT
BRANCH   1   9
HETATM    9  C8  UNL     1      76.891   8.106  -8.149  1.00  0.00     0.128 C 
BRANCH   9  10
HETATM   10  C7  UNL     1      77.832   8.748  -7.136  1.00  0.00     0.117 C 
BRANCH  10  11
HETATM   11  C6  UNL     1      77.925  10.238  -7.536  1.00  0.00     0.046 C 
BRANCH  11  12
HETATM   12  C5  UNL     1      77.863  11.139  -6.345  1.00  0.00     0.004 C 
BRANCH  12  13
HETATM   13  C4  UNL     1      79.114  11.990  -6.211  1.00  0.00     0.000 C 
BRANCH  13  14
HETATM   14  C3  UNL     1      80.063  11.816  -7.372  1.00  0.00    -0.000 C 
BRANCH  14  15
HETATM   15  C2  UNL     1      80.303  13.130  -8.079  1.00  0.00    -0.005 C 
HETATM   16  C1  UNL     1      79.674  14.290  -7.332  1.00  0.00     0.005 C 
ENDBRANCH  14  15
ENDBRANCH  13  14
ENDBRANCH  12  13
ENDBRANCH  11  12
ENDBRANCH  10  11
BRANCH  10  17
HETATM   17  O1  UNL     1      77.247   8.743  -5.905  1.00  0.00    -0.382 OA
ATOM     18  H1  UNL     1      76.715   7.957  -5.884  1.00  0.00     0.211 HD
ENDBRANCH  10  17
BRANCH  10  19
HETATM   19  C20 UNL     1      79.189   8.156  -7.201  1.00  0.00     0.158 C 
BRANCH  19  20
HETATM   20  O3  UNL     1      79.006   6.907  -7.915  1.00  0.00    -0.392 OA
ATOM     21  H3  UNL     1      78.765   7.170  -8.796  1.00  0.00     0.210 HD
ENDBRANCH  19  20
BRANCH  19  22
HETATM   22  C21 UNL     1      79.852   7.736  -5.945  1.00  0.00     0.039 C 
BRANCH  22  23
HETATM   23  C22 UNL     1      80.740   8.708  -5.237  1.00  0.00    -0.008 C 
HETATM   24  C23 UNL     1      79.987   9.170  -4.004  1.00  0.00     0.031 C 
HETATM   25  C24 UNL     1      80.288   8.410  -2.770  1.00  0.00     0.168 C 
HETATM   26  O4  UNL     1      81.541   7.817  -2.739  1.00  0.00    -0.391 OA
HETATM   27  C25 UNL     1      82.429   8.578  -3.493  1.00  0.00     0.168 C 
HETATM   28  C26 UNL     1      82.113   8.214  -4.943  1.00  0.00     0.031 C 
ENDBRANCH  22  23
ENDBRANCH  19  22
ENDBRANCH  10  19
ENDBRANCH   9  10
ENDBRANCH   1   9
BRANCH   4  29
HETATM   29  N2  UNL     1      73.812   6.604  -4.456  1.00  0.00    -0.058 N 
ATOM     30  H22 UNL     1      72.893   6.975  -4.213  1.00  0.00     0.278 HD
ATOM     31  H21 UNL     1      73.825   5.784  -3.851  1.00  0.00     0.278 HD
BRANCH  29  32
HETATM   32  C12 UNL     1      74.841   7.520  -4.097  1.00  0.00     0.271 C 
BRANCH  32  33
HETATM   33  C13 UNL     1      75.607   7.100  -2.902  1.00  0.00    -0.031 A 
HETATM   34  C14 UNL     1      75.096   7.375  -1.651  1.00  0.00     0.010 A 
HETATM   35  C15 UNL     1      75.751   7.018  -0.490  1.00  0.00     0.021 A 
HETATM   36  C16 UNL     1      76.957   6.363  -0.550  1.00  0.00     0.033 A 
HETATM   37  S1  UNL     1      77.813   5.897   0.960  1.00  0.00    -0.051 SA
HETATM   38  C17 UNL     1      77.480   6.081  -1.794  1.00  0.00     0.052 A 
HETATM   39 CL1  UNL     1      79.010   5.248  -1.871  1.00  0.00    -0.083 Cl
HETATM   40  C18 UNL     1      76.812   6.444  -2.966  1.00  0.00     0.034 A 
ENDBRANCH  32  33
ENDBRANCH  29  32
ENDBRANCH   4  29
TORSDOF 15
ENDMDL
MODEL 3
REMARK VINA RESULT: -7.253774932      5.119      8.227
REMARK  15 active torsions:
REMARK  status: ('A' for Active; 'I' for Inactive)
REMARK    1  A    between atoms: C2_2  and  C3_3 
REMARK    2  A    between atoms: C3_3  and  C4_4 
REMARK    3  A    between atoms: C4_4  and  C5_5 
REMARK    4  A    between atoms: C5_5  and  C6_6 
REMARK    5  A    between atoms: C6_6  and  C7_7 
REMARK    6  A    between atoms: C7_7  and  O1_8 
REMARK    7  A    between atoms: C7_7  and  C8_10 
REMARK    8  A    between atoms: C7_7  and  C20_31 
REMARK    9  A    between atoms: C8_10  and  N1_11 
REMARK   10  A    between atoms: C11_14  and  N2_15 
REMARK   11  A    between atoms: N2_15  and  C12_18 
REMARK   12  A    between atoms: C12_18  and  C13_19 
REMARK   13  A    between atoms: C20_31  and  O3_32 
REMARK   14  A    between atoms: C20_31  and  C21_34 
REMARK   15  A    between atoms: C21_34  and  C22_35 
ROOT
HETATM    1  N1  UNL     1      79.497   9.247  -6.287  1.00  0.00    -0.281 N 
HETATM    2  C9  UNL     1      80.641   8.493  -6.440  1.00  0.00     0.091 C 
HETATM    3  C10 UNL     1      81.532   8.290  -5.252  1.00  0.00     0.089 C 
HETATM    4  C11 UNL     1      81.269   9.063  -4.027  1.00  0.00     0.283 C 
HETATM    5  C19 UNL     1      80.421  10.228  -4.240  1.00  0.00     0.267 C 
HETATM    6  O2  UNL     1      80.564  11.250  -3.530  1.00  0.00    -0.269 OA
HETATM    7  N3  UNL     1      79.441  10.158  -5.271  1.00  0.00    -0.263 N 
ATOM      8  H3  UNL     1      78.664  10.818  -5.251  1.00  0.00     0.190 HD
ENDROOT
BRANCH   1   9
HETATM    9  C8  UNL     1      78.451   9.230  -7.192  1.00  0.00     0.128 C 
BRANCH   9  10
HETATM   10  C7  UNL     1      77.238   8.443  -6.709  1.00  0.00     0.117 C 
BRANCH  10  11
HETATM   11  C6  UNL     1      77.472   6.987  -7.170  1.00  0.00     0.046 C 
BRANCH  11  12
HETATM   12  C5  UNL     1      77.759   6.078  -6.019  1.00  0.00     0.004 C 
BRANCH  12  13
HETATM   13  C4  UNL     1      76.791   4.909  -5.964  1.00  0.00     0.000 C 
BRANCH  13  14
HETATM   14  C3  UNL     1      77.413   3.666  -5.375  1.00  0.00    -0.000 C 
BRANCH  14  15
HETATM   15  C2  UNL     1      78.674   3.999  -4.611  1.00  0.00    -0.005 C 
HETATM   16  C1  UNL     1      78.678   3.362  -3.235  1.00  0.00     0.005 C 
ENDBRANCH  14  15
ENDBRANCH  13  14
ENDBRANCH  12  13
ENDBRANCH  11  12
ENDBRANCH  10  11
BRANCH  10  17
HETATM   17  O1  UNL     1      77.242   8.393  -5.346  1.00  0.00    -0.382 OA
ATOM     18  H1  UNL     1      78.127   8.147  -5.108  1.00  0.00     0.211 HD
ENDBRANCH  10  17
BRANCH  10  19
HETATM   19  C20 UNL     1      75.986   8.939  -7.326  1.00  0.00     0.158 C 
BRANCH  19  20
HETATM   20  O3  UNL     1      75.545  10.005  -6.448  1.00  0.00    -0.392 OA
ATOM     21  H3  UNL     1      76.011  10.774  -6.754  1.00  0.00     0.210 HD
ENDBRANCH  19  20
BRANCH  19  22
HETATM   22  C21 UNL     1      74.809   8.042  -7.389  1.00  0.00     0.039 C 
BRANCH  22  23
HETATM   23  C22 UNL     1      73.807   8.086  -6.281  1.00  0.00    -0.008 C 
HETATM   24  C23 UNL     1      72.459   7.759  -6.896  1.00  0.00     0.031 C 
HETATM   25  C24 UNL     1      72.073   6.332  -6.825  1.00  0.00     0.168 C 
HETATM   26  O4  UNL     1      72.643   5.623  -5.778  1.00  0.00    -0.391 OA
HETATM   27  C25 UNL     1      72.871   6.484  -4.710  1.00  0.00     0.168 C 
HETATM   28  C26 UNL     1      74.136   7.249  -5.095  1.00  0.00     0.031 C 
ENDBRANCH  22  23
ENDBRANCH  19  22
ENDBRANCH  10  19
ENDBRANCH   9  10
ENDBRANCH   1   9
BRANCH   4  29
HETATM   29  N2  UNL     1      80.859   8.287  -2.869  1.00  0.00    -0.058 N 
ATOM     30  H22 UNL     1      81.668   7.977  -2.331  1.00  0.00     0.278 HD
ATOM     31  H21 UNL     1      80.414   8.882  -2.170  1.00  0.00     0.278 HD
BRANCH  29  32
HETATM   32  C12 UNL     1      80.021   7.187  -3.209  1.00  0.00     0.271 C 
BRANCH  32  33
HETATM   33  C13 UNL     1      79.039   6.851  -2.154  1.00  0.00    -0.031 A 
HETATM   34  C14 UNL     1      77.696   7.042  -2.407  1.00  0.00     0.010 A 
HETATM   35  C15 UNL     1      76.720   6.755  -1.475  1.00  0.00     0.021 A 
HETATM   36  C16 UNL     1      77.066   6.259  -0.242  1.00  0.00     0.033 A 
HETATM   37  S1  UNL     1      75.798   5.885   0.975  1.00  0.00    -0.051 SA
HETATM   38  C17 UNL     1      78.404   6.063   0.025  1.00  0.00     0.052 A 
HETATM   39 CL1  UNL     1      78.845   5.432   1.590  1.00  0.00    -0.083 Cl
HETATM   40  C18 UNL     1      79.389   6.355  -0.923  1.00  0.00     0.034 A 
ENDBRANCH  32  33
ENDBRANCH  29  32
ENDBRANCH   4  29
TORSDOF 15
ENDMDL
MODEL 4
REMARK VINA RESULT: -7.178771451      5.895      8.287
REMARK  15 active torsions:
REMARK  status: ('A' for Active; 'I' for Inactive)
REMARK    1  A    between atoms: C2_2  and  C3_3 
REMARK    2  A    between atoms: C3_3  and  C4_4 
REMARK    3  A    between atoms: C4_4  and  C5_5 
REMARK    4  A    between atoms: C5_5  and  C6_6 
REMARK    5  A    between atoms: C6_6  and  C7_7 
REMARK    6  A    between atoms: C7_7  and  O1_8 
REMARK    7  A    between atoms: C7_7  and  C8_10 
REMARK    8  A    between atoms: C7_7  and  C20_31 
REMARK    9  A    between atoms: C8_10  and  N1_11 
REMARK   10  A    between atoms: C11_14  and  N2_15 
REMARK   11  A    between atoms: N2_15  and  C12_18 
REMARK   12  A    between atoms: C12_18  and  C13_19 
REMARK   13  A    between atoms: C20_31  and  O3_32 
REMARK   14  A    between atoms: C20_31  and  C21_34 
REMARK   15  A    between atoms: C21_34  and  C22_35 
ROOT
HETATM    1  N1  UNL     1      79.737   9.781  -6.363  1.00  0.00    -0.281 N 
HETATM    2  C9  UNL     1      80.810   8.942  -6.570  1.00  0.00     0.091 C 
HETATM    3  C10 UNL     1      81.623   8.509  -5.387  1.00  0.00     0.089 C 
HETATM    4  C11 UNL     1      81.378   9.150  -4.085  1.00  0.00     0.283 C 
HETATM    5  C19 UNL     1      80.654  10.410  -4.179  1.00  0.00     0.267 C 
HETATM    6  O2  UNL     1      80.858  11.319  -3.342  1.00  0.00    -0.269 OA
HETATM    7  N3  UNL     1      79.720  10.563  -5.243  1.00  0.00    -0.263 N 
ATOM      8  H3  UNL     1      79.008  11.289  -5.167  1.00  0.00     0.190 HD
ENDROOT
BRANCH   1   9
HETATM    9  C8  UNL     1      78.736   9.978  -7.297  1.00  0.00     0.128 C 
BRANCH   9  10
HETATM   10  C7  UNL     1      77.411   9.323  -6.922  1.00  0.00     0.117 C 
BRANCH  10  11
HETATM   11  C6  UNL     1      77.484   7.882  -7.478  1.00  0.00     0.046 C 
BRANCH  11  12
HETATM   12  C5  UNL     1      77.332   6.861  -6.397  1.00  0.00     0.004 C 
BRANCH  12  13
HETATM   13  C4  UNL     1      76.018   6.107  -6.511  1.00  0.00     0.000 C 
BRANCH  13  14
HETATM   14  C3  UNL     1      75.159   6.247  -5.277  1.00  0.00    -0.000 C 
BRANCH  14  15
HETATM   15  C2  UNL     1      73.716   5.909  -5.578  1.00  0.00    -0.005 C 
HETATM   16  C1  UNL     1      72.774   6.536  -4.570  1.00  0.00     0.005 C 
ENDBRANCH  14  15
ENDBRANCH  13  14
ENDBRANCH  12  13
ENDBRANCH  11  12
ENDBRANCH  10  11
BRANCH  10  17
HETATM   17  O1  UNL     1      77.342   9.182  -5.568  1.00  0.00    -0.382 OA
ATOM     18  H1  UNL     1      76.619   9.735  -5.296  1.00  0.00     0.211 HD
ENDBRANCH  10  17
BRANCH  10  19
HETATM   19  C20 UNL     1      76.263  10.015  -7.553  1.00  0.00     0.158 C 
BRANCH  19  20
HETATM   20  O3  UNL     1      76.777  11.325  -7.904  1.00  0.00    -0.392 OA
ATOM     21  H3  UNL     1      77.056  11.236  -8.808  1.00  0.00     0.210 HD
ENDBRANCH  19  20
BRANCH  19  22
HETATM   22  C21 UNL     1      75.071  10.326  -6.731  1.00  0.00     0.039 C 
BRANCH  22  23
HETATM   23  C22 UNL     1      73.909   9.386  -6.759  1.00  0.00    -0.008 C 
HETATM   24  C23 UNL     1      72.693  10.180  -6.319  1.00  0.00     0.031 C 
HETATM   25  C24 UNL     1      71.900  10.765  -7.423  1.00  0.00     0.168 C 
HETATM   26  O4  UNL     1      71.994  10.092  -8.632  1.00  0.00    -0.391 OA
HETATM   27  C25 UNL     1      72.224   8.742  -8.390  1.00  0.00     0.168 C 
HETATM   28  C26 UNL     1      73.711   8.662  -8.044  1.00  0.00     0.031 C 
ENDBRANCH  22  23
ENDBRANCH  19  22
ENDBRANCH  10  19
ENDBRANCH   9  10
ENDBRANCH   1   9
BRANCH   4  29
HETATM   29  N2  UNL     1      80.843   8.283  -3.048  1.00  0.00    -0.058 N 
ATOM     30  H22 UNL     1      81.584   7.732  -2.615  1.00  0.00     0.278 HD
ATOM     31  H21 UNL     1      80.545   8.826  -2.237  1.00  0.00     0.278 HD
BRANCH  29  32
HETATM   32  C12 UNL     1      79.792   7.445  -3.515  1.00  0.00     0.271 C 
BRANCH  32  33
HETATM   33  C13 UNL     1      78.833   7.062  -2.454  1.00  0.00    -0.031 A 
HETATM   34  C14 UNL     1      79.319   6.564  -1.263  1.00  0.00     0.010 A 
HETATM   35  C15 UNL     1      78.489   6.184  -0.228  1.00  0.00     0.021 A 
HETATM   36  C16 UNL     1      77.126   6.292  -0.358  1.00  0.00     0.033 A 
HETATM   37  S1  UNL     1      76.044   5.797   0.987  1.00  0.00    -0.051 SA
HETATM   38  C17 UNL     1      76.627   6.788  -1.543  1.00  0.00     0.052 A 
HETATM   39 CL1  UNL     1      74.896   6.927  -1.709  1.00  0.00    -0.083 Cl
HETATM   40  C18 UNL     1      77.471   7.173  -2.588  1.00  0.00     0.034 A 
ENDBRANCH  32  33
ENDBRANCH  29  32
ENDBRANCH   4  29
TORSDOF 15
ENDMDL
MODEL 5
REMARK VINA RESULT: -7.145099874      4.172      8.227
REMARK  15 active torsions:
REMARK  status: ('A' for Active; 'I' for Inactive)
REMARK    1  A    between atoms: C2_2  and  C3_3 
REMARK    2  A    between atoms: C3_3  and  C4_4 
REMARK    3  A    between atoms: C4_4  and  C5_5 
REMARK    4  A    between atoms: C5_5  and  C6_6 
REMARK    5  A    between atoms: C6_6  and  C7_7 
REMARK    6  A    between atoms: C7_7  and  O1_8 
REMARK    7  A    between atoms: C7_7  and  C8_10 
REMARK    8  A    between atoms: C7_7  and  C20_31 
REMARK    9  A    between atoms: C8_10  and  N1_11 
REMARK   10  A    between atoms: C11_14  and  N2_15 
REMARK   11  A    between atoms: N2_15  and  C12_18 
REMARK   12  A    between atoms: C12_18  and  C13_19 
REMARK   13  A    between atoms: C20_31  and  O3_32 
REMARK   14  A    between atoms: C20_31  and  C21_34 
REMARK   15  A    between atoms: C21_34  and  C22_35 
ROOT
HETATM    1  N1  UNL     1      77.661   6.174  -7.472  1.00  0.00    -0.281 N 
HETATM    2  C9  UNL     1      77.221   7.467  -7.649  1.00  0.00     0.091 C 
HETATM    3  C10 UNL     1      76.179   8.006  -6.715  1.00  0.00     0.089 C 
HETATM    4  C11 UNL     1      75.517   7.082  -5.780  1.00  0.00     0.283 C 
HETATM    5  C19 UNL     1      75.662   5.678  -6.143  1.00  0.00     0.267 C 
HETATM    6  O2  UNL     1      74.761   4.857  -5.857  1.00  0.00    -0.269 OA
HETATM    7  N3  UNL     1      76.850   5.286  -6.823  1.00  0.00    -0.263 N 
ATOM      8  H3  UNL     1      77.107   4.299  -6.826  1.00  0.00     0.190 HD
ENDROOT
BRANCH   1   9
HETATM    9  C8  UNL     1      78.824   5.684  -8.037  1.00  0.00     0.128 C 
BRANCH   9  10
HETATM   10  C7  UNL     1      79.958   5.494  -7.036  1.00  0.00     0.117 C 
BRANCH  10  11
HETATM   11  C6  UNL     1      80.778   6.804  -7.077  1.00  0.00     0.046 C 
BRANCH  11  12
HETATM   12  C5  UNL     1      80.714   7.542  -5.779  1.00  0.00     0.004 C 
BRANCH  12  13
HETATM   13  C4  UNL     1      82.059   8.135  -5.397  1.00  0.00     0.000 C 
BRANCH  13  14
HETATM   14  C3  UNL     1      82.135   8.513  -3.938  1.00  0.00    -0.000 C 
BRANCH  14  15
HETATM   15  C2  UNL     1      82.102  10.014  -3.762  1.00  0.00    -0.005 C 
HETATM   16  C1  UNL     1      80.681  10.531  -3.643  1.00  0.00     0.005 C 
ENDBRANCH  14  15
ENDBRANCH  13  14
ENDBRANCH  12  13
ENDBRANCH  11  12
ENDBRANCH  10  11
BRANCH  10  17
HETATM   17  O1  UNL     1      79.445   5.433  -5.774  1.00  0.00    -0.382 OA
ATOM     18  H1  UNL     1      80.143   5.077  -5.238  1.00  0.00     0.211 HD
ENDBRANCH  10  17
BRANCH  10  19
HETATM   19  C20 UNL     1      80.844   4.371  -7.421  1.00  0.00     0.158 C 
BRANCH  19  20
HETATM   20  O3  UNL     1      80.440   4.038  -8.773  1.00  0.00    -0.392 OA
ATOM     21  H3  UNL     1      81.244   4.077  -9.278  1.00  0.00     0.210 HD
ENDBRANCH  19  20
BRANCH  19  22
HETATM   22  C21 UNL     1      80.724   3.081  -6.703  1.00  0.00     0.039 C 
BRANCH  22  23
HETATM   23  C22 UNL     1      81.960   2.284  -6.438  1.00  0.00    -0.008 C 
HETATM   24  C23 UNL     1      81.514   0.984  -5.796  1.00  0.00     0.031 C 
HETATM   25  C24 UNL     1      81.317  -0.140  -6.738  1.00  0.00     0.168 C 
HETATM   26  O4  UNL     1      82.066  -0.065  -7.903  1.00  0.00    -0.391 OA
HETATM   27  C25 UNL     1      83.252   0.614  -7.644  1.00  0.00     0.168 C 
HETATM   28  C26 UNL     1      82.852   2.089  -7.613  1.00  0.00     0.031 C 
ENDBRANCH  22  23
ENDBRANCH  19  22
ENDBRANCH  10  19
ENDBRANCH   9  10
ENDBRANCH   1   9
BRANCH   4  29
HETATM   29  N2  UNL     1      75.781   7.317  -4.370  1.00  0.00    -0.058 N 
ATOM     30  H22 UNL     1      75.298   8.153  -4.043  1.00  0.00     0.278 HD
ATOM     31  H21 UNL     1      75.316   6.618  -3.791  1.00  0.00     0.278 HD
BRANCH  29  32
HETATM   32  C12 UNL     1      77.172   7.382  -4.071  1.00  0.00     0.271 C 
BRANCH  32  33
HETATM   33  C13 UNL     1      77.498   6.931  -2.700  1.00  0.00    -0.031 A 
HETATM   34  C14 UNL     1      78.818   6.712  -2.365  1.00  0.00     0.010 A 
HETATM   35  C15 UNL     1      79.202   6.290  -1.109  1.00  0.00     0.021 A 
HETATM   36  C16 UNL     1      78.258   6.070  -0.135  1.00  0.00     0.033 A 
HETATM   37  S1  UNL     1      78.754   5.519   1.502  1.00  0.00    -0.051 SA
HETATM   38  C17 UNL     1      76.935   6.285  -0.455  1.00  0.00     0.052 A 
HETATM   39 CL1  UNL     1      75.737   6.008   0.781  1.00  0.00    -0.083 Cl
HETATM   40  C18 UNL     1      76.552   6.714  -1.729  1.00  0.00     0.034 A 
ENDBRANCH  32  33
ENDBRANCH  29  32
ENDBRANCH   4  29
TORSDOF 15
ENDMDL
