MODEL 1
REMARK VINA RESULT: -6.381879822      0.000      0.000
REMARK  13 active torsions:
REMARK  status: ('A' for Active; 'I' for Inactive)
REMARK    1  A    between atoms: O1_2  and  C2_3 
REMARK    2  A    between atoms: C7_9  and  O2_10 
REMARK    3  A    between atoms: N1_14  and  C10_15 
REMARK    4  A    between atoms: C10_15  and  C11_16 
REMARK    5  A    between atoms: C11_16  and  C12_17 
REMARK    6  A    between atoms: C12_17  and  C13_18 
REMARK    7  A    between atoms: C13_18  and  C14_19 
REMARK    8  A    between atoms: C14_19  and  C15_21 
REMARK    9  A    between atoms: C15_21  and  N2_22 
REMARK   10  A    between atoms: C15_21  and  C16_26 
REMARK   11  A    between atoms: C16_26  and  C17_27 
REMARK   12  A    between atoms: C17_27  and  C18_28 
REMARK   13  A    between atoms: C18_28  and  N3_29 
REMARK       I    between atoms: N3_29  and  C19_31 
ROOT
HETATM    1  C12 UNL     1     -15.114   5.506  47.155  1.00  0.00     0.003 C 
ENDROOT
BRANCH   1   2
HETATM    2  C11 UNL     1     -16.442   5.876  47.779  1.00  0.00     0.020 C 
BRANCH   2   3
HETATM    3  C10 UNL     1     -16.296   6.991  48.787  1.00  0.00     0.125 C 
BRANCH   3   4
HETATM    4  N1  UNL     1     -15.971   8.194  48.090  1.00  0.00    -0.360 N 
HETATM    5  C9  UNL     1     -14.772   8.821  48.412  1.00  0.00     0.307 C 
HETATM    6  C5  UNL     1     -14.306   9.605  47.212  1.00  0.00     0.022 A 
HETATM    7  F1  UNL     1     -14.970   9.736  49.442  1.00  0.00    -0.221 F 
HETATM    8  C4  UNL     1     -15.311  10.361  46.595  1.00  0.00    -0.038 A 
HETATM    9  C6  UNL     1     -13.038   9.615  46.748  1.00  0.00     0.058 A 
HETATM   10  C3  UNL     1     -14.986  11.115  45.505  1.00  0.00     0.047 A 
HETATM   11  C21 UNL     1     -16.704  10.289  47.165  1.00  0.00     0.083 C 
HETATM   12  C2  UNL     1     -13.677  11.127  45.026  1.00  0.00     0.103 A 
HETATM   13  C7  UNL     1     -12.676  10.365  45.651  1.00  0.00     0.119 A 
HETATM   14  C20 UNL     1     -16.996   8.828  47.401  1.00  0.00     0.066 C 
HETATM   15 BR1  UNL     1     -11.709   8.557  47.636  1.00  0.00    -0.047 Br
BRANCH  12  16
HETATM   16  O1  UNL     1     -13.270  11.861  43.936  1.00  0.00    -0.353 OA
HETATM   17  C1  UNL     1     -13.969  11.925  42.728  1.00  0.00     0.210 C 
ENDBRANCH  12  16
BRANCH  13  18
HETATM   18  O2  UNL     1     -11.374  10.374  45.174  1.00  0.00    -0.352 OA
HETATM   19  C8  UNL     1     -10.972   9.303  44.315  1.00  0.00     0.210 C 
ENDBRANCH  13  18
ENDBRANCH   3   4
ENDBRANCH   2   3
ENDBRANCH   1   2
BRANCH   1  20
HETATM   20  C13 UNL     1     -15.266   4.948  45.773  1.00  0.00     0.018 C 
BRANCH  20  21
HETATM   21  C14 UNL     1     -15.735   5.970  44.782  1.00  0.00     0.089 C 
HETATM   22  S1  UNL     1     -17.361   5.507  44.084  1.00  0.00    -0.090 SA
BRANCH  21  23
HETATM   23  C15 UNL     1     -14.772   6.066  43.600  1.00  0.00     0.198 C 
BRANCH  23  24
HETATM   24  N2  UNL     1     -13.938   4.879  43.612  1.00  0.00    -0.074 N 
ATOM     25  H23 UNL     1     -14.391   4.073  43.181  1.00  0.00     0.274 HD
ATOM     26  H22 UNL     1     -13.145   4.946  42.974  1.00  0.00     0.274 HD
ATOM     27  H21 UNL     1     -13.657   4.707  44.577  1.00  0.00     0.274 HD
ENDBRANCH  23  24
BRANCH  23  28
HETATM   28  C16 UNL     1     -13.855   7.258  43.785  1.00  0.00     0.035 C 
BRANCH  28  29
HETATM   29  C17 UNL     1     -13.980   8.239  42.655  1.00  0.00     0.022 C 
BRANCH  29  30
HETATM   30  C18 UNL     1     -13.093   7.898  41.478  1.00  0.00     0.122 C 
BRANCH  30  31
HETATM   31  N3  UNL     1     -12.504   9.076  40.885  1.00  0.00    -0.365 N 
HETATM   32  C19 UNL     1     -12.835   9.515  39.559  1.00  0.00     0.181 C 
HETATM   33  N4  UNL     1     -12.795   8.722  38.545  1.00  0.00    -0.374 N 
HETATM   34  N5  UNL     1     -13.231  10.872  39.309  1.00  0.00    -0.064 NA
ATOM     35  H42 UNL     1     -12.513   7.759  38.722  1.00  0.00     0.158 HD
ATOM     36  H41 UNL     1     -13.030   9.034  37.603  1.00  0.00     0.158 HD
ATOM     37  H3  UNL     1     -11.829   9.616  41.427  1.00  0.00     0.162 HD
ENDBRANCH  30  31
ENDBRANCH  29  30
ENDBRANCH  28  29
ENDBRANCH  23  28
ENDBRANCH  21  23
ENDBRANCH  20  21
ENDBRANCH   1  20
TORSDOF 13
ENDMDL
MODEL 2
REMARK VINA RESULT: -6.219723299      3.197      5.511
REMARK  13 active torsions:
REMARK  status: ('A' for Active; 'I' for Inactive)
REMARK    1  A    between atoms: O1_2  and  C2_3 
REMARK    2  A    between atoms: C7_9  and  O2_10 
REMARK    3  A    between atoms: N1_14  and  C10_15 
REMARK    4  A    between atoms: C10_15  and  C11_16 
REMARK    5  A    between atoms: C11_16  and  C12_17 
REMARK    6  A    between atoms: C12_17  and  C13_18 
REMARK    7  A    between atoms: C13_18  and  C14_19 
REMARK    8  A    between atoms: C14_19  and  C15_21 
REMARK    9  A    between atoms: C15_21  and  N2_22 
REMARK   10  A    between atoms: C15_21  and  C16_26 
REMARK   11  A    between atoms: C16_26  and  C17_27 
REMARK   12  A    between atoms: C17_27  and  C18_28 
REMARK   13  A    between atoms: C18_28  and  N3_29 
REMARK       I    between atoms: N3_29  and  C19_31 
ROOT
HETATM    1  C12 UNL     1     -12.128   8.284  43.940  1.00  0.00     0.003 C 
ENDROOT
BRANCH   1   2
HETATM    2  C11 UNL     1     -13.366   7.839  43.194  1.00  0.00     0.020 C 
BRANCH   2   3
HETATM    3  C10 UNL     1     -13.571   6.346  43.290  1.00  0.00     0.125 C 
BRANCH   3   4
HETATM    4  N1  UNL     1     -14.583   6.087  44.263  1.00  0.00    -0.360 N 
HETATM    5  C9  UNL     1     -14.195   5.463  45.445  1.00  0.00     0.307 C 
HETATM    6  C5  UNL     1     -15.158   5.863  46.534  1.00  0.00     0.022 A 
HETATM    7  F1  UNL     1     -14.287   4.082  45.310  1.00  0.00    -0.221 F 
HETATM    8  C4  UNL     1     -16.506   5.804  46.157  1.00  0.00    -0.038 A 
HETATM    9  C6  UNL     1     -14.794   6.240  47.779  1.00  0.00     0.058 A 
HETATM   10  C3  UNL     1     -17.457   6.137  47.079  1.00  0.00     0.047 A 
HETATM   11  C21 UNL     1     -16.832   5.387  44.747  1.00  0.00     0.083 C 
HETATM   12  C2  UNL     1     -17.082   6.525  48.364  1.00  0.00     0.103 A 
HETATM   13  C7  UNL     1     -15.727   6.581  48.732  1.00  0.00     0.119 A 
HETATM   14  C20 UNL     1     -15.905   6.162  43.845  1.00  0.00     0.066 C 
HETATM   15 BR1  UNL     1     -12.932   6.302  48.230  1.00  0.00    -0.047 Br
BRANCH  12  16
HETATM   16  O1  UNL     1     -17.979   6.872  49.347  1.00  0.00    -0.353 OA
HETATM   17  C1  UNL     1     -19.367   6.780  49.212  1.00  0.00     0.210 C 
ENDBRANCH  12  16
BRANCH  13  18
HETATM   18  O2  UNL     1     -15.354   6.968  50.009  1.00  0.00    -0.352 OA
HETATM   19  C8  UNL     1     -15.160   8.365  50.253  1.00  0.00     0.210 C 
ENDBRANCH  13  18
ENDBRANCH   3   4
ENDBRANCH   2   3
ENDBRANCH   1   2
BRANCH   1  20
HETATM   20  C13 UNL     1     -12.428   8.716  45.342  1.00  0.00     0.018 C 
BRANCH  20  21
HETATM   21  C14 UNL     1     -12.391  10.206  45.511  1.00  0.00     0.089 C 
HETATM   22  S1  UNL     1     -11.117  10.694  46.730  1.00  0.00    -0.090 SA
BRANCH  21  23
HETATM   23  C15 UNL     1     -13.722  10.727  46.049  1.00  0.00     0.198 C 
BRANCH  23  24
HETATM   24  N2  UNL     1     -14.353   9.649  46.786  1.00  0.00    -0.074 N 
ATOM     25  H23 UNL     1     -13.940   8.738  46.588  1.00  0.00     0.274 HD
ATOM     26  H22 UNL     1     -14.146   9.678  47.785  1.00  0.00     0.274 HD
ATOM     27  H21 UNL     1     -15.353   9.682  46.588  1.00  0.00     0.274 HD
ENDBRANCH  23  24
BRANCH  23  28
HETATM   28  C16 UNL     1     -14.638  11.076  44.894  1.00  0.00     0.035 C 
BRANCH  28  29
HETATM   29  C17 UNL     1     -13.880  11.668  43.741  1.00  0.00     0.022 C 
BRANCH  29  30
HETATM   30  C18 UNL     1     -14.559  11.436  42.409  1.00  0.00     0.122 C 
BRANCH  30  31
HETATM   31  N3  UNL     1     -13.635  10.961  41.405  1.00  0.00    -0.365 N 
HETATM   32  C19 UNL     1     -13.864  11.148  40.001  1.00  0.00     0.181 C 
HETATM   33  N4  UNL     1     -14.976  10.821  39.438  1.00  0.00    -0.374 N 
HETATM   34  N5  UNL     1     -12.850  11.716  39.158  1.00  0.00    -0.064 NA
ATOM     35  H42 UNL     1     -15.695  10.418  40.037  1.00  0.00     0.158 HD
ATOM     36  H41 UNL     1     -15.138  10.954  38.440  1.00  0.00     0.158 HD
ATOM     37  H3  UNL     1     -12.789  10.476  41.705  1.00  0.00     0.162 HD
ENDBRANCH  30  31
ENDBRANCH  29  30
ENDBRANCH  28  29
ENDBRANCH  23  28
ENDBRANCH  21  23
ENDBRANCH  20  21
ENDBRANCH   1  20
TORSDOF 13
ENDMDL
MODEL 3
REMARK VINA RESULT: -6.207456251      3.137      5.732
REMARK  13 active torsions:
REMARK  status: ('A' for Active; 'I' for Inactive)
REMARK    1  A    between atoms: O1_2  and  C2_3 
REMARK    2  A    between atoms: C7_9  and  O2_10 
REMARK    3  A    between atoms: N1_14  and  C10_15 
REMARK    4  A    between atoms: C10_15  and  C11_16 
REMARK    5  A    between atoms: C11_16  and  C12_17 
REMARK    6  A    between atoms: C12_17  and  C13_18 
REMARK    7  A    between atoms: C13_18  and  C14_19 
REMARK    8  A    between atoms: C14_19  and  C15_21 
REMARK    9  A    between atoms: C15_21  and  N2_22 
REMARK   10  A    between atoms: C15_21  and  C16_26 
REMARK   11  A    between atoms: C16_26  and  C17_27 
REMARK   12  A    between atoms: C17_27  and  C18_28 
REMARK   13  A    between atoms: C18_28  and  N3_29 
REMARK       I    between atoms: N3_29  and  C19_31 
ROOT
HETATM    1  C12 UNL     1     -13.131   6.118  46.406  1.00  0.00     0.003 C 
ENDROOT
BRANCH   1   2
HETATM    2  C11 UNL     1     -12.490   7.300  47.098  1.00  0.00     0.020 C 
BRANCH   2   3
HETATM    3  C10 UNL     1     -13.511   8.343  47.488  1.00  0.00     0.125 C 
BRANCH   3   4
HETATM    4  N1  UNL     1     -13.600   9.307  46.439  1.00  0.00    -0.360 N 
HETATM    5  C9  UNL     1     -12.473   9.502  45.646  1.00  0.00     0.307 C 
HETATM    6  C5  UNL     1     -12.921   9.990  44.292  1.00  0.00     0.022 A 
HETATM    7  F1  UNL     1     -11.670  10.499  46.190  1.00  0.00    -0.221 F 
HETATM    8  C4  UNL     1     -13.890  11.001  44.339  1.00  0.00    -0.038 A 
HETATM    9  C6  UNL     1     -12.448   9.527  43.115  1.00  0.00     0.058 A 
HETATM   10  C3  UNL     1     -14.353  11.518  43.163  1.00  0.00     0.047 A 
HETATM   11  C21 UNL     1     -14.377  11.455  45.690  1.00  0.00     0.083 C 
HETATM   12  C2  UNL     1     -13.863  11.042  41.947  1.00  0.00     0.103 A 
HETATM   13  C7  UNL     1     -12.892  10.027  41.911  1.00  0.00     0.119 A 
HETATM   14  C20 UNL     1     -14.657  10.206  46.488  1.00  0.00     0.066 C 
HETATM   15 BR1  UNL     1     -11.125   8.141  43.119  1.00  0.00    -0.047 Br
BRANCH  12  16
HETATM   16  O1  UNL     1     -14.277  11.512  40.723  1.00  0.00    -0.353 OA
HETATM   17  C1  UNL     1     -15.427  11.074  40.061  1.00  0.00     0.210 C 
ENDBRANCH  12  16
BRANCH  13  18
HETATM   18  O2  UNL     1     -12.406   9.553  40.703  1.00  0.00    -0.352 OA
HETATM   19  C8  UNL     1     -13.023   8.386  40.149  1.00  0.00     0.210 C 
ENDBRANCH  13  18
ENDBRANCH   3   4
ENDBRANCH   2   3
ENDBRANCH   1   2
BRANCH   1  20
HETATM   20  C13 UNL     1     -14.493   5.808  46.946  1.00  0.00     0.018 C 
BRANCH  20  21
HETATM   21  C14 UNL     1     -15.493   5.516  45.867  1.00  0.00     0.089 C 
HETATM   22  S1  UNL     1     -15.098   6.446  44.341  1.00  0.00    -0.090 SA
BRANCH  21  23
HETATM   23  C15 UNL     1     -16.894   5.954  46.286  1.00  0.00     0.198 C 
BRANCH  23  24
HETATM   24  N2  UNL     1     -17.709   6.035  45.088  1.00  0.00    -0.074 N 
ATOM     25  H23 UNL     1     -17.630   6.936  44.616  1.00  0.00     0.274 HD
ATOM     26  H22 UNL     1     -17.356   5.452  44.329  1.00  0.00     0.274 HD
ATOM     27  H21 UNL     1     -18.668   5.807  45.349  1.00  0.00     0.274 HD
ENDBRANCH  23  24
BRANCH  23  28
HETATM   28  C16 UNL     1     -16.836   7.346  46.882  1.00  0.00     0.035 C 
BRANCH  28  29
HETATM   29  C17 UNL     1     -17.358   7.373  48.289  1.00  0.00     0.022 C 
BRANCH  29  30
HETATM   30  C18 UNL     1     -17.978   6.059  48.712  1.00  0.00     0.122 C 
BRANCH  30  31
HETATM   31  N3  UNL     1     -19.339   6.225  49.169  1.00  0.00    -0.365 N 
HETATM   32  C19 UNL     1     -20.460   6.171  48.276  1.00  0.00     0.181 C 
HETATM   33  N4  UNL     1     -20.511   6.872  47.196  1.00  0.00    -0.374 N 
HETATM   34  N5  UNL     1     -21.584   5.321  48.553  1.00  0.00    -0.064 NA
ATOM     35  H42 UNL     1     -19.714   7.475  47.000  1.00  0.00     0.158 HD
ATOM     36  H41 UNL     1     -21.308   6.834  46.562  1.00  0.00     0.158 HD
ATOM     37  H3  UNL     1     -19.509   6.386  50.162  1.00  0.00     0.162 HD
ENDBRANCH  30  31
ENDBRANCH  29  30
ENDBRANCH  28  29
ENDBRANCH  23  28
ENDBRANCH  21  23
ENDBRANCH  20  21
ENDBRANCH   1  20
TORSDOF 13
ENDMDL
MODEL 4
REMARK VINA RESULT: -6.160873311      4.845      6.376
REMARK  13 active torsions:
REMARK  status: ('A' for Active; 'I' for Inactive)
REMARK    1  A    between atoms: O1_2  and  C2_3 
REMARK    2  A    between atoms: C7_9  and  O2_10 
REMARK    3  A    between atoms: N1_14  and  C10_15 
REMARK    4  A    between atoms: C10_15  and  C11_16 
REMARK    5  A    between atoms: C11_16  and  C12_17 
REMARK    6  A    between atoms: C12_17  and  C13_18 
REMARK    7  A    between atoms: C13_18  and  C14_19 
REMARK    8  A    between atoms: C14_19  and  C15_21 
REMARK    9  A    between atoms: C15_21  and  N2_22 
REMARK   10  A    between atoms: C15_21  and  C16_26 
REMARK   11  A    between atoms: C16_26  and  C17_27 
REMARK   12  A    between atoms: C17_27  and  C18_28 
REMARK   13  A    between atoms: C18_28  and  N3_29 
REMARK       I    between atoms: N3_29  and  C19_31 
ROOT
HETATM    1  C12 UNL     1     -11.570   6.719  48.915  1.00  0.00     0.003 C 
ENDROOT
BRANCH   1   2
HETATM    2  C11 UNL     1     -12.987   7.189  48.666  1.00  0.00     0.020 C 
BRANCH   2   3
HETATM    3  C10 UNL     1     -13.828   6.114  48.021  1.00  0.00     0.125 C 
BRANCH   3   4
HETATM    4  N1  UNL     1     -13.972   6.421  46.634  1.00  0.00    -0.360 N 
HETATM    5  C9  UNL     1     -14.631   7.600  46.301  1.00  0.00     0.307 C 
HETATM    6  C5  UNL     1     -14.126   8.066  44.959  1.00  0.00     0.022 A 
HETATM    7  F1  UNL     1     -15.995   7.364  46.160  1.00  0.00    -0.221 F 
HETATM    8  C4  UNL     1     -14.039   7.053  43.995  1.00  0.00    -0.038 A 
HETATM    9  C6  UNL     1     -13.788   9.341  44.668  1.00  0.00     0.058 A 
HETATM   10  C3  UNL     1     -13.602   7.377  42.744  1.00  0.00     0.047 A 
HETATM   11  C21 UNL     1     -14.423   5.654  44.400  1.00  0.00     0.083 C 
HETATM   12  C2  UNL     1     -13.254   8.693  42.442  1.00  0.00     0.103 A 
HETATM   13  C7  UNL     1     -13.344   9.702  43.415  1.00  0.00     0.119 A 
HETATM   14  C20 UNL     1     -13.755   5.392  45.727  1.00  0.00     0.066 C 
HETATM   15 BR1  UNL     1     -13.927  10.680  46.031  1.00  0.00    -0.047 Br
BRANCH  12  16
HETATM   16  O1  UNL     1     -12.808   9.099  41.206  1.00  0.00    -0.353 OA
HETATM   17  C1  UNL     1     -13.551   8.987  40.027  1.00  0.00     0.210 C 
ENDBRANCH  12  16
BRANCH  13  18
HETATM   18  O2  UNL     1     -12.997  11.010  43.116  1.00  0.00    -0.352 OA
HETATM   19  C8  UNL     1     -14.033  11.888  42.667  1.00  0.00     0.210 C 
ENDBRANCH  13  18
ENDBRANCH   3   4
ENDBRANCH   2   3
ENDBRANCH   1   2
BRANCH   1  20
HETATM   20  C13 UNL     1     -10.783   6.579  47.649  1.00  0.00     0.018 C 
BRANCH  20  21
HETATM   21  C14 UNL     1     -10.058   5.269  47.559  1.00  0.00     0.089 C 
HETATM   22  S1  UNL     1      -9.874   4.509  49.213  1.00  0.00    -0.090 SA
BRANCH  21  23
HETATM   23  C15 UNL     1      -8.644   5.463  47.015  1.00  0.00     0.198 C 
BRANCH  23  24
HETATM   24  N2  UNL     1      -8.750   6.156  45.746  1.00  0.00    -0.074 N 
ATOM     25  H23 UNL     1      -8.634   7.166  45.835  1.00  0.00     0.274 HD
ATOM     26  H22 UNL     1      -7.955   5.981  45.132  1.00  0.00     0.274 HD
ATOM     27  H21 UNL     1      -9.641   5.896  45.323  1.00  0.00     0.274 HD
ENDBRANCH  23  24
BRANCH  23  28
HETATM   28  C16 UNL     1      -8.016   4.113  46.737  1.00  0.00     0.035 C 
BRANCH  28  29
HETATM   29  C17 UNL     1      -7.571   3.989  45.308  1.00  0.00     0.022 C 
BRANCH  29  30
HETATM   30  C18 UNL     1      -6.181   3.406  45.172  1.00  0.00     0.122 C 
BRANCH  30  31
HETATM   31  N3  UNL     1      -6.113   2.404  44.133  1.00  0.00    -0.365 N 
HETATM   32  C19 UNL     1      -6.516   1.045  44.352  1.00  0.00     0.181 C 
HETATM   33  N4  UNL     1      -6.079   0.351  45.345  1.00  0.00    -0.374 N 
HETATM   34  N5  UNL     1      -7.435   0.396  43.460  1.00  0.00    -0.064 NA
ATOM     35  H42 UNL     1      -5.426   0.812  45.978  1.00  0.00     0.158 HD
ATOM     36  H41 UNL     1      -6.365  -0.615  45.500  1.00  0.00     0.158 HD
ATOM     37  H3  UNL     1      -5.768   2.673  43.212  1.00  0.00     0.162 HD
ENDBRANCH  30  31
ENDBRANCH  29  30
ENDBRANCH  28  29
ENDBRANCH  23  28
ENDBRANCH  21  23
ENDBRANCH  20  21
ENDBRANCH   1  20
TORSDOF 13
ENDMDL
MODEL 5
REMARK VINA RESULT: -6.133179166      3.150      5.284
REMARK  13 active torsions:
REMARK  status: ('A' for Active; 'I' for Inactive)
REMARK    1  A    between atoms: O1_2  and  C2_3 
REMARK    2  A    between atoms: C7_9  and  O2_10 
REMARK    3  A    between atoms: N1_14  and  C10_15 
REMARK    4  A    between atoms: C10_15  and  C11_16 
REMARK    5  A    between atoms: C11_16  and  C12_17 
REMARK    6  A    between atoms: C12_17  and  C13_18 
REMARK    7  A    between atoms: C13_18  and  C14_19 
REMARK    8  A    between atoms: C14_19  and  C15_21 
REMARK    9  A    between atoms: C15_21  and  N2_22 
REMARK   10  A    between atoms: C15_21  and  C16_26 
REMARK   11  A    between atoms: C16_26  and  C17_27 
REMARK   12  A    between atoms: C17_27  and  C18_28 
REMARK   13  A    between atoms: C18_28  and  N3_29 
REMARK       I    between atoms: N3_29  and  C19_31 
ROOT
HETATM    1  C12 UNL     1     -14.408   7.118  42.216  1.00  0.00     0.003 C 
ENDROOT
BRANCH   1   2
HETATM    2  C11 UNL     1     -13.783   6.281  43.310  1.00  0.00     0.020 C 
BRANCH   2   3
HETATM    3  C10 UNL     1     -14.766   5.291  43.888  1.00  0.00     0.125 C 
BRANCH   3   4
HETATM    4  N1  UNL     1     -15.426   5.899  44.997  1.00  0.00    -0.360 N 
HETATM    5  C9  UNL     1     -14.733   5.965  46.202  1.00  0.00     0.307 C 
HETATM    6  C5  UNL     1     -15.252   7.142  46.987  1.00  0.00     0.022 A 
HETATM    7  F1  UNL     1     -14.985   4.828  46.963  1.00  0.00    -0.221 F 
HETATM    8  C4  UNL     1     -16.649   7.244  47.013  1.00  0.00    -0.038 A 
HETATM    9  C6  UNL     1     -14.473   8.036  47.634  1.00  0.00     0.058 A 
HETATM   10  C3  UNL     1     -17.217   8.272  47.708  1.00  0.00     0.047 A 
HETATM   11  C21 UNL     1     -17.450   6.216  46.257  1.00  0.00     0.083 C 
HETATM   12  C2  UNL     1     -16.414   9.195  48.376  1.00  0.00     0.103 A 
HETATM   13  C7  UNL     1     -15.013   9.085  48.344  1.00  0.00     0.119 A 
HETATM   14  C20 UNL     1     -16.800   6.076  44.903  1.00  0.00     0.066 C 
HETATM   15 BR1  UNL     1     -12.568   7.843  47.558  1.00  0.00    -0.047 Br
BRANCH  12  16
HETATM   16  O1  UNL     1     -16.909  10.255  49.099  1.00  0.00    -0.353 OA
HETATM   17  C1  UNL     1     -17.669  10.123  50.265  1.00  0.00     0.210 C 
ENDBRANCH  12  16
BRANCH  13  18
HETATM   18  O2  UNL     1     -14.214  10.002  49.008  1.00  0.00    -0.352 OA
HETATM   19  C8  UNL     1     -13.862   9.720  50.366  1.00  0.00     0.210 C 
ENDBRANCH  13  18
ENDBRANCH   3   4
ENDBRANCH   2   3
ENDBRANCH   1   2
BRANCH   1  20
HETATM   20  C13 UNL     1     -13.386   7.746  41.320  1.00  0.00     0.018 C 
BRANCH  20  21
HETATM   21  C14 UNL     1     -13.332   9.238  41.456  1.00  0.00     0.089 C 
HETATM   22  S1  UNL     1     -13.169  10.039  39.819  1.00  0.00    -0.090 SA
BRANCH  21  23
HETATM   23  C15 UNL     1     -12.112   9.669  42.268  1.00  0.00     0.198 C 
BRANCH  23  24
HETATM   24  N2  UNL     1     -11.175   8.562  42.278  1.00  0.00    -0.074 N 
ATOM     25  H23 UNL     1     -10.925   8.263  43.221  1.00  0.00     0.274 HD
ATOM     26  H22 UNL     1     -11.593   7.686  41.964  1.00  0.00     0.274 HD
ATOM     27  H21 UNL     1     -10.365   8.836  41.722  1.00  0.00     0.274 HD
ENDBRANCH  23  24
BRANCH  23  28
HETATM   28  C16 UNL     1     -12.520   9.923  43.705  1.00  0.00     0.035 C 
BRANCH  28  29
HETATM   29  C17 UNL     1     -13.783  10.731  43.792  1.00  0.00     0.022 C 
BRANCH  29  30
HETATM   30  C18 UNL     1     -14.359  10.774  45.191  1.00  0.00     0.122 C 
BRANCH  30  31
HETATM   31  N3  UNL     1     -14.006  11.992  45.884  1.00  0.00    -0.365 N 
HETATM   32  C19 UNL     1     -12.697  12.213  46.428  1.00  0.00     0.181 C 
HETATM   33  N4  UNL     1     -12.119  11.356  47.196  1.00  0.00    -0.374 N 
HETATM   34  N5  UNL     1     -11.968  13.414  46.131  1.00  0.00    -0.064 NA
ATOM     35  H42 UNL     1     -12.637  10.503  47.407  1.00  0.00     0.158 HD
ATOM     36  H41 UNL     1     -11.189  11.513  47.583  1.00  0.00     0.158 HD
ATOM     37  H3  UNL     1     -14.712  12.720  45.990  1.00  0.00     0.162 HD
ENDBRANCH  30  31
ENDBRANCH  29  30
ENDBRANCH  28  29
ENDBRANCH  23  28
ENDBRANCH  21  23
ENDBRANCH  20  21
ENDBRANCH   1  20
TORSDOF 13
ENDMDL
