MODEL 1
REMARK VINA RESULT: -7.657168209      0.000      0.000
REMARK  13 active torsions:
REMARK  status: ('A' for Active; 'I' for Inactive)
REMARK    1  A    between atoms: C2_2  and  C3_3 
REMARK    2  A    between atoms: C3_3  and  C4_4 
REMARK    3  A    between atoms: C4_4  and  C5_5 
REMARK    4  A    between atoms: C7_10  and  C8_11 
REMARK    5  A    between atoms: C8_11  and  C9_12 
REMARK    6  A    between atoms: C9_12  and  N2_13 
REMARK       I    between atoms: N2_13  and  C10_15 
REMARK    7  A    between atoms: C10_15  and  C11_17 
REMARK    8  A    between atoms: C14_20  and  C15_21 
REMARK    9  A    between atoms: C15_21  and  N3_22 
REMARK   10  A    between atoms: N3_22  and  C16_25 
REMARK   11  A    between atoms: C16_25  and  C17_26 
REMARK   12  A    between atoms: C22_33  and  C23_34 
REMARK   13  A    between atoms: C23_34  and  O2_35 
ROOT
HETATM    1  C11 UNL     1     -18.650   7.249  47.909  1.00  0.00     0.078 C 
HETATM    2  C12 UNL     1     -18.444   7.124  46.424  1.00  0.00     0.014 C 
HETATM    3  C13 UNL     1     -17.046   6.687  46.073  1.00  0.00     0.007 C 
HETATM    4  C14 UNL     1     -16.002   7.463  46.861  1.00  0.00     0.011 C 
HETATM    5  C24 UNL     1     -16.166   7.219  48.346  1.00  0.00     0.007 C 
HETATM    6  C25 UNL     1     -17.515   6.626  48.675  1.00  0.00     0.014 C 
ENDROOT
BRANCH   1   7
HETATM    7  C10 UNL     1     -19.910   6.565  48.292  1.00  0.00     0.221 C 
HETATM    8  N2  UNL     1     -20.039   5.834  49.504  1.00  0.00    -0.361 N 
ATOM      9  H2  UNL     1     -19.254   5.760  50.152  1.00  0.00     0.162 HD
HETATM   10  O1  UNL     1     -20.888   6.639  47.512  1.00  0.00    -0.273 OA
BRANCH   8  11
HETATM   11  C9  UNL     1     -21.304   5.199  49.802  1.00  0.00     0.125 C 
BRANCH  11  12
HETATM   12  C8  UNL     1     -21.126   3.743  50.177  1.00  0.00     0.055 C 
BRANCH  12  13
HETATM   13  C7  UNL     1     -22.413   3.095  50.556  1.00  0.00     0.211 C 
HETATM   14  N1  UNL     1     -22.285   1.678  50.828  1.00  0.00    -0.066 N 
HETATM   15  C6  UNL     1     -22.778   1.432  52.162  1.00  0.00     0.264 C 
ATOM     16  H12 UNL     1     -21.335   1.333  50.689  1.00  0.00     0.277 HD
ATOM     17  H11 UNL     1     -22.744   1.098  50.125  1.00  0.00     0.277 HD
HETATM   18  C5  UNL     1     -24.205   1.875  52.265  1.00  0.00     0.147 C 
HETATM   19  O3  UNL     1     -24.281   3.256  52.076  1.00  0.00    -0.382 OA
HETATM   20  C26 UNL     1     -23.078   3.819  51.681  1.00  0.00     0.201 C 
BRANCH  18  21
HETATM   21  C4  UNL     1     -25.056   1.177  51.231  1.00  0.00     0.034 C 
BRANCH  21  22
HETATM   22  C3  UNL     1     -26.516   1.494  51.390  1.00  0.00     0.002 C 
BRANCH  22  23
HETATM   23  C2  UNL     1     -27.373   0.685  50.425  1.00  0.00    -0.004 C 
HETATM   24  C1  UNL     1     -26.601  -0.556  50.032  1.00  0.00     0.005 C 
ENDBRANCH  22  23
ENDBRANCH  21  22
ENDBRANCH  18  21
ENDBRANCH  12  13
ENDBRANCH  11  12
ENDBRANCH   8  11
ENDBRANCH   1   7
BRANCH   4  25
HETATM   25  C15 UNL     1     -14.673   6.905  46.443  1.00  0.00     0.237 C 
BRANCH  25  26
HETATM   26  N3  UNL     1     -14.424   7.016  44.991  1.00  0.00    -0.071 N 
ATOM     27  H32 UNL     1     -14.196   6.117  44.565  1.00  0.00     0.277 HD
ATOM     28  H31 UNL     1     -15.276   7.211  44.464  1.00  0.00     0.277 HD
BRANCH  26  29
HETATM   29  C16 UNL     1     -13.419   7.989  44.772  1.00  0.00     0.273 C 
BRANCH  29  30
HETATM   30  C17 UNL     1     -13.439   8.779  43.547  1.00  0.00    -0.003 A 
HETATM   31  C18 UNL     1     -14.026  10.050  43.673  1.00  0.00     0.044 A 
HETATM   32 CL1  UNL     1     -14.570  10.533  45.257  1.00  0.00    -0.084 Cl
HETATM   33  C19 UNL     1     -14.142  10.839  42.575  1.00  0.00     0.048 A 
HETATM   34  C20 UNL     1     -13.685  10.386  41.351  1.00  0.00     0.036 A 
HETATM   35 CL2  UNL     1     -13.871  11.464  39.976  1.00  0.00    -0.084 Cl
HETATM   36  C21 UNL     1     -13.113   9.147  41.222  1.00  0.00     0.033 A 
HETATM   37  C22 UNL     1     -12.989   8.327  42.350  1.00  0.00    -0.024 A 
BRANCH  37  38
HETATM   38  C23 UNL     1     -12.354   7.024  42.096  1.00  0.00     0.203 C 
BRANCH  38  39
HETATM   39  O2  UNL     1     -10.934   7.163  42.040  1.00  0.00    -0.396 OA
ATOM     40  H2  UNL     1     -10.587   7.386  42.896  1.00  0.00     0.209 HD
ENDBRANCH  38  39
ENDBRANCH  37  38
ENDBRANCH  29  30
ENDBRANCH  26  29
ENDBRANCH  25  26
ENDBRANCH   4  25
TORSDOF 13
ENDMDL
MODEL 2
REMARK VINA RESULT: -7.527958924      1.294      1.721
REMARK  13 active torsions:
REMARK  status: ('A' for Active; 'I' for Inactive)
REMARK    1  A    between atoms: C2_2  and  C3_3 
REMARK    2  A    between atoms: C3_3  and  C4_4 
REMARK    3  A    between atoms: C4_4  and  C5_5 
REMARK    4  A    between atoms: C7_10  and  C8_11 
REMARK    5  A    between atoms: C8_11  and  C9_12 
REMARK    6  A    between atoms: C9_12  and  N2_13 
REMARK       I    between atoms: N2_13  and  C10_15 
REMARK    7  A    between atoms: C10_15  and  C11_17 
REMARK    8  A    between atoms: C14_20  and  C15_21 
REMARK    9  A    between atoms: C15_21  and  N3_22 
REMARK   10  A    between atoms: N3_22  and  C16_25 
REMARK   11  A    between atoms: C16_25  and  C17_26 
REMARK   12  A    between atoms: C22_33  and  C23_34 
REMARK   13  A    between atoms: C23_34  and  O2_35 
ROOT
HETATM    1  C11 UNL     1     -17.359   7.168  46.723  1.00  0.00     0.078 C 
HETATM    2  C12 UNL     1     -16.602   6.033  46.089  1.00  0.00     0.014 C 
HETATM    3  C13 UNL     1     -15.114   6.155  46.284  1.00  0.00     0.007 C 
HETATM    4  C14 UNL     1     -14.625   7.566  46.000  1.00  0.00     0.011 C 
HETATM    5  C24 UNL     1     -15.264   8.554  46.953  1.00  0.00     0.007 C 
HETATM    6  C25 UNL     1     -16.477   7.971  47.639  1.00  0.00     0.014 C 
ENDROOT
BRANCH   1   7
HETATM    7  C10 UNL     1     -18.491   6.626  47.515  1.00  0.00     0.221 C 
HETATM    8  N2  UNL     1     -18.294   5.785  48.643  1.00  0.00    -0.361 N 
ATOM      9  H2  UNL     1     -17.353   5.527  48.941  1.00  0.00     0.162 HD
HETATM   10  O1  UNL     1     -19.657   6.925  47.167  1.00  0.00    -0.273 OA
BRANCH   8  11
HETATM   11  C9  UNL     1     -19.453   5.301  49.361  1.00  0.00     0.125 C 
BRANCH  11  12
HETATM   12  C8  UNL     1     -19.203   3.943  49.981  1.00  0.00     0.055 C 
BRANCH  12  13
HETATM   13  C7  UNL     1     -20.468   3.232  50.318  1.00  0.00     0.211 C 
HETATM   14  N1  UNL     1     -20.439   2.590  51.616  1.00  0.00    -0.066 N 
HETATM   15  C6  UNL     1     -21.545   3.099  52.391  1.00  0.00     0.264 C 
ATOM     16  H12 UNL     1     -19.542   2.698  52.090  1.00  0.00     0.277 HD
ATOM     17  H11 UNL     1     -20.437   1.572  51.552  1.00  0.00     0.277 HD
HETATM   18  C5  UNL     1     -22.834   2.821  51.680  1.00  0.00     0.147 C 
HETATM   19  O3  UNL     1     -22.860   3.517  50.471  1.00  0.00    -0.382 OA
HETATM   20  C26 UNL     1     -21.654   4.129  50.167  1.00  0.00     0.201 C 
BRANCH  18  21
HETATM   21  C4  UNL     1     -22.987   1.342  51.414  1.00  0.00     0.034 C 
BRANCH  21  22
HETATM   22  C3  UNL     1     -24.420   0.954  51.181  1.00  0.00     0.002 C 
BRANCH  22  23
HETATM   23  C2  UNL     1     -24.528  -0.376  50.446  1.00  0.00    -0.004 C 
HETATM   24  C1  UNL     1     -25.980  -0.599  50.083  1.00  0.00     0.005 C 
ENDBRANCH  22  23
ENDBRANCH  21  22
ENDBRANCH  18  21
ENDBRANCH  12  13
ENDBRANCH  11  12
ENDBRANCH   8  11
ENDBRANCH   1   7
BRANCH   4  25
HETATM   25  C15 UNL     1     -13.148   7.552  46.266  1.00  0.00     0.237 C 
BRANCH  25  26
HETATM   26  N3  UNL     1     -12.336   7.393  45.043  1.00  0.00    -0.071 N 
ATOM     27  H32 UNL     1     -11.545   6.762  45.179  1.00  0.00     0.277 HD
ATOM     28  H31 UNL     1     -12.820   6.860  44.320  1.00  0.00     0.277 HD
BRANCH  26  29
HETATM   29  C16 UNL     1     -11.934   8.673  44.591  1.00  0.00     0.273 C 
BRANCH  29  30
HETATM   30  C17 UNL     1     -12.516   9.219  43.371  1.00  0.00    -0.003 A 
HETATM   31  C18 UNL     1     -13.300  10.371  43.555  1.00  0.00     0.044 A 
HETATM   32 CL1  UNL     1     -13.409  11.024  45.168  1.00  0.00    -0.084 Cl
HETATM   33  C19 UNL     1     -13.931  10.922  42.486  1.00  0.00     0.048 A 
HETATM   34  C20 UNL     1     -13.796  10.347  41.236  1.00  0.00     0.036 A 
HETATM   35 CL2  UNL     1     -14.642  11.117  39.904  1.00  0.00    -0.084 Cl
HETATM   36  C21 UNL     1     -13.033   9.224  41.051  1.00  0.00     0.033 A 
HETATM   37  C22 UNL     1     -12.379   8.649  42.148  1.00  0.00    -0.024 A 
BRANCH  37  38
HETATM   38  C23 UNL     1     -11.583   7.452  41.832  1.00  0.00     0.203 C 
BRANCH  38  39
HETATM   39  O2  UNL     1     -12.310   6.268  42.162  1.00  0.00    -0.396 OA
ATOM     40  H2  UNL     1     -11.721   5.525  42.234  1.00  0.00     0.209 HD
ENDBRANCH  38  39
ENDBRANCH  37  38
ENDBRANCH  29  30
ENDBRANCH  26  29
ENDBRANCH  25  26
ENDBRANCH   4  25
TORSDOF 13
ENDMDL
MODEL 3
REMARK VINA RESULT: -7.381421752      3.714      4.712
REMARK  13 active torsions:
REMARK  status: ('A' for Active; 'I' for Inactive)
REMARK    1  A    between atoms: C2_2  and  C3_3 
REMARK    2  A    between atoms: C3_3  and  C4_4 
REMARK    3  A    between atoms: C4_4  and  C5_5 
REMARK    4  A    between atoms: C7_10  and  C8_11 
REMARK    5  A    between atoms: C8_11  and  C9_12 
REMARK    6  A    between atoms: C9_12  and  N2_13 
REMARK       I    between atoms: N2_13  and  C10_15 
REMARK    7  A    between atoms: C10_15  and  C11_17 
REMARK    8  A    between atoms: C14_20  and  C15_21 
REMARK    9  A    between atoms: C15_21  and  N3_22 
REMARK   10  A    between atoms: N3_22  and  C16_25 
REMARK   11  A    between atoms: C16_25  and  C17_26 
REMARK   12  A    between atoms: C22_33  and  C23_34 
REMARK   13  A    between atoms: C23_34  and  O2_35 
ROOT
HETATM    1  C11 UNL     1     -17.258   7.102  46.752  1.00  0.00     0.078 C 
HETATM    2  C12 UNL     1     -16.431   6.012  46.124  1.00  0.00     0.014 C 
HETATM    3  C13 UNL     1     -14.952   6.244  46.295  1.00  0.00     0.007 C 
HETATM    4  C14 UNL     1     -14.570   7.681  45.980  1.00  0.00     0.011 C 
HETATM    5  C24 UNL     1     -15.264   8.637  46.927  1.00  0.00     0.007 C 
HETATM    6  C25 UNL     1     -16.422   7.981  47.641  1.00  0.00     0.014 C 
ENDROOT
BRANCH   1   7
HETATM    7  C10 UNL     1     -18.337   6.494  47.569  1.00  0.00     0.221 C 
HETATM    8  N2  UNL     1     -18.067   5.588  48.630  1.00  0.00    -0.361 N 
ATOM      9  H2  UNL     1     -17.108   5.327  48.859  1.00  0.00     0.162 HD
HETATM   10  O1  UNL     1     -19.524   6.797  47.306  1.00  0.00    -0.273 OA
BRANCH   8  11
HETATM   11  C9  UNL     1     -19.178   5.043  49.379  1.00  0.00     0.125 C 
BRANCH  11  12
HETATM   12  C8  UNL     1     -19.075   5.370  50.853  1.00  0.00     0.055 C 
BRANCH  12  13
HETATM   13  C7  UNL     1     -19.919   6.538  51.235  1.00  0.00     0.211 C 
HETATM   14  N1  UNL     1     -19.168   7.768  51.377  1.00  0.00    -0.066 N 
HETATM   15  C6  UNL     1     -19.749   8.750  50.493  1.00  0.00     0.264 C 
ATOM     16  H12 UNL     1     -18.168   7.641  51.223  1.00  0.00     0.277 HD
ATOM     17  H11 UNL     1     -19.117   8.089  52.344  1.00  0.00     0.277 HD
HETATM   18  C5  UNL     1     -21.192   8.956  50.839  1.00  0.00     0.147 C 
HETATM   19  O3  UNL     1     -21.899   7.773  50.615  1.00  0.00    -0.382 OA
HETATM   20  C26 UNL     1     -21.079   6.698  50.307  1.00  0.00     0.201 C 
BRANCH  18  21
HETATM   21  C4  UNL     1     -21.340   9.365  52.285  1.00  0.00     0.034 C 
BRANCH  21  22
HETATM   22  C3  UNL     1     -22.754   9.744  52.625  1.00  0.00     0.002 C 
BRANCH  22  23
HETATM   23  C2  UNL     1     -23.359  10.656  51.565  1.00  0.00    -0.004 C 
HETATM   24  C1  UNL     1     -23.708  11.975  52.220  1.00  0.00     0.005 C 
ENDBRANCH  22  23
ENDBRANCH  21  22
ENDBRANCH  18  21
ENDBRANCH  12  13
ENDBRANCH  11  12
ENDBRANCH   8  11
ENDBRANCH   1   7
BRANCH   4  25
HETATM   25  C15 UNL     1     -13.092   7.776  46.224  1.00  0.00     0.237 C 
BRANCH  25  26
HETATM   26  N3  UNL     1     -12.283   7.512  45.017  1.00  0.00    -0.071 N 
ATOM     27  H32 UNL     1     -11.512   6.868  45.197  1.00  0.00     0.277 HD
ATOM     28  H31 UNL     1     -12.782   6.947  44.330  1.00  0.00     0.277 HD
BRANCH  26  29
HETATM   29  C16 UNL     1     -11.842   8.747  44.483  1.00  0.00     0.273 C 
BRANCH  29  30
HETATM   30  C17 UNL     1     -12.476   9.277  43.282  1.00  0.00    -0.003 A 
HETATM   31  C18 UNL     1     -13.250  10.432  43.484  1.00  0.00     0.044 A 
HETATM   32 CL1  UNL     1     -13.288  11.107  45.092  1.00  0.00    -0.084 Cl
HETATM   33  C19 UNL     1     -13.927  10.970  42.437  1.00  0.00     0.048 A 
HETATM   34  C20 UNL     1     -13.847  10.377  41.190  1.00  0.00     0.036 A 
HETATM   35 CL2  UNL     1     -14.750  11.131  39.885  1.00  0.00    -0.084 Cl
HETATM   36  C21 UNL     1     -13.094   9.251  40.987  1.00  0.00     0.033 A 
HETATM   37  C22 UNL     1     -12.393   8.690  42.062  1.00  0.00    -0.024 A 
BRANCH  37  38
HETATM   38  C23 UNL     1     -11.613   7.487  41.728  1.00  0.00     0.203 C 
BRANCH  38  39
HETATM   39  O2  UNL     1     -12.316   6.310  42.126  1.00  0.00    -0.396 OA
ATOM     40  H2  UNL     1     -13.254   6.442  42.051  1.00  0.00     0.209 HD
ENDBRANCH  38  39
ENDBRANCH  37  38
ENDBRANCH  29  30
ENDBRANCH  26  29
ENDBRANCH  25  26
ENDBRANCH   4  25
TORSDOF 13
ENDMDL
MODEL 4
REMARK VINA RESULT: -7.307375580      1.987      2.652
REMARK  13 active torsions:
REMARK  status: ('A' for Active; 'I' for Inactive)
REMARK    1  A    between atoms: C2_2  and  C3_3 
REMARK    2  A    between atoms: C3_3  and  C4_4 
REMARK    3  A    between atoms: C4_4  and  C5_5 
REMARK    4  A    between atoms: C7_10  and  C8_11 
REMARK    5  A    between atoms: C8_11  and  C9_12 
REMARK    6  A    between atoms: C9_12  and  N2_13 
REMARK       I    between atoms: N2_13  and  C10_15 
REMARK    7  A    between atoms: C10_15  and  C11_17 
REMARK    8  A    between atoms: C14_20  and  C15_21 
REMARK    9  A    between atoms: C15_21  and  N3_22 
REMARK   10  A    between atoms: N3_22  and  C16_25 
REMARK   11  A    between atoms: C16_25  and  C17_26 
REMARK   12  A    between atoms: C22_33  and  C23_34 
REMARK   13  A    between atoms: C23_34  and  O2_35 
ROOT
HETATM    1  C11 UNL     1     -17.435   7.050  46.712  1.00  0.00     0.078 C 
HETATM    2  C12 UNL     1     -16.922   5.919  45.861  1.00  0.00     0.014 C 
HETATM    3  C13 UNL     1     -15.425   5.952  45.705  1.00  0.00     0.007 C 
HETATM    4  C14 UNL     1     -14.925   7.351  45.383  1.00  0.00     0.011 C 
HETATM    5  C24 UNL     1     -15.258   8.308  46.508  1.00  0.00     0.007 C 
HETATM    6  C25 UNL     1     -16.313   7.746  47.431  1.00  0.00     0.014 C 
ENDROOT
BRANCH   1   7
HETATM    7  C10 UNL     1     -18.384   6.517  47.721  1.00  0.00     0.221 C 
HETATM    8  N2  UNL     1     -17.946   5.914  48.930  1.00  0.00    -0.361 N 
ATOM      9  H2  UNL     1     -16.951   5.828  49.138  1.00  0.00     0.162 HD
HETATM   10  O1  UNL     1     -19.612   6.608  47.488  1.00  0.00    -0.273 OA
BRANCH   8  11
HETATM   11  C9  UNL     1     -18.939   5.423  49.861  1.00  0.00     0.125 C 
BRANCH  11  12
HETATM   12  C8  UNL     1     -18.804   3.933  50.091  1.00  0.00     0.055 C 
BRANCH  12  13
HETATM   13  C7  UNL     1     -20.123   3.272  50.304  1.00  0.00     0.211 C 
HETATM   14  N1  UNL     1     -20.354   2.881  51.680  1.00  0.00    -0.066 N 
HETATM   15  C6  UNL     1     -21.580   3.502  52.120  1.00  0.00     0.264 C 
ATOM     16  H12 UNL     1     -19.564   3.093  52.289  1.00  0.00     0.277 HD
ATOM     17  H11 UNL     1     -20.357   1.869  51.807  1.00  0.00     0.277 HD
HETATM   18  C5  UNL     1     -22.713   3.072  51.238  1.00  0.00     0.147 C 
HETATM   19  O3  UNL     1     -22.494   3.532  49.939  1.00  0.00    -0.382 OA
HETATM   20  C26 UNL     1     -21.242   4.101  49.765  1.00  0.00     0.201 C 
BRANCH  18  21
HETATM   21  C4  UNL     1     -22.835   1.567  51.226  1.00  0.00     0.034 C 
BRANCH  21  22
HETATM   22  C3  UNL     1     -24.268   1.115  51.172  1.00  0.00     0.002 C 
BRANCH  22  23
HETATM   23  C2  UNL     1     -24.412  -0.206  50.429  1.00  0.00    -0.004 C 
HETATM   24  C1  UNL     1     -25.888  -0.490  50.250  1.00  0.00     0.005 C 
ENDBRANCH  22  23
ENDBRANCH  21  22
ENDBRANCH  18  21
ENDBRANCH  12  13
ENDBRANCH  11  12
ENDBRANCH   8  11
ENDBRANCH   1   7
BRANCH   4  25
HETATM   25  C15 UNL     1     -13.430   7.243  45.292  1.00  0.00     0.237 C 
BRANCH  25  26
HETATM   26  N3  UNL     1     -12.728   8.448  45.780  1.00  0.00    -0.071 N 
ATOM     27  H32 UNL     1     -13.363   9.120  46.212  1.00  0.00     0.277 HD
ATOM     28  H31 UNL     1     -12.147   8.256  46.596  1.00  0.00     0.277 HD
BRANCH  26  29
HETATM   29  C16 UNL     1     -11.990   9.011  44.711  1.00  0.00     0.273 C 
BRANCH  29  30
HETATM   30  C17 UNL     1     -12.698   9.588  43.575  1.00  0.00    -0.003 A 
HETATM   31  C18 UNL     1     -12.439   8.968  42.340  1.00  0.00     0.044 A 
HETATM   32 CL1  UNL     1     -11.390   7.575  42.343  1.00  0.00    -0.084 Cl
HETATM   33  C19 UNL     1     -13.008   9.468  41.214  1.00  0.00     0.048 A 
HETATM   34  C20 UNL     1     -13.830  10.577  41.293  1.00  0.00     0.036 A 
HETATM   35 CL2  UNL     1     -14.529  11.165  39.792  1.00  0.00    -0.084 Cl
HETATM   36  C21 UNL     1     -14.086  11.186  42.493  1.00  0.00     0.033 A 
HETATM   37  C22 UNL     1     -13.504  10.676  43.661  1.00  0.00    -0.024 A 
BRANCH  37  38
HETATM   38  C23 UNL     1     -13.852  11.404  44.891  1.00  0.00     0.203 C 
BRANCH  38  39
HETATM   39  O2  UNL     1     -13.215  12.682  44.913  1.00  0.00    -0.396 OA
ATOM     40  H2  UNL     1     -13.435  13.150  45.710  1.00  0.00     0.209 HD
ENDBRANCH  38  39
ENDBRANCH  37  38
ENDBRANCH  29  30
ENDBRANCH  26  29
ENDBRANCH  25  26
ENDBRANCH   4  25
TORSDOF 13
ENDMDL
MODEL 5
REMARK VINA RESULT: -7.295596852      1.470      1.941
REMARK  13 active torsions:
REMARK  status: ('A' for Active; 'I' for Inactive)
REMARK    1  A    between atoms: C2_2  and  C3_3 
REMARK    2  A    between atoms: C3_3  and  C4_4 
REMARK    3  A    between atoms: C4_4  and  C5_5 
REMARK    4  A    between atoms: C7_10  and  C8_11 
REMARK    5  A    between atoms: C8_11  and  C9_12 
REMARK    6  A    between atoms: C9_12  and  N2_13 
REMARK       I    between atoms: N2_13  and  C10_15 
REMARK    7  A    between atoms: C10_15  and  C11_17 
REMARK    8  A    between atoms: C14_20  and  C15_21 
REMARK    9  A    between atoms: C15_21  and  N3_22 
REMARK   10  A    between atoms: N3_22  and  C16_25 
REMARK   11  A    between atoms: C16_25  and  C17_26 
REMARK   12  A    between atoms: C22_33  and  C23_34 
REMARK   13  A    between atoms: C23_34  and  O2_35 
ROOT
HETATM    1  C11 UNL     1     -17.487   6.623  47.299  1.00  0.00     0.078 C 
HETATM    2  C12 UNL     1     -16.601   5.482  46.877  1.00  0.00     0.014 C 
HETATM    3  C13 UNL     1     -15.140   5.849  46.907  1.00  0.00     0.007 C 
HETATM    4  C14 UNL     1     -14.889   7.204  46.265  1.00  0.00     0.011 C 
HETATM    5  C24 UNL     1     -15.619   8.295  47.020  1.00  0.00     0.007 C 
HETATM    6  C25 UNL     1     -16.690   7.734  47.925  1.00  0.00     0.014 C 
ENDROOT
BRANCH   1   7
HETATM    7  C10 UNL     1     -18.479   6.137  48.291  1.00  0.00     0.221 C 
HETATM    8  N2  UNL     1     -19.714   6.801  48.517  1.00  0.00    -0.361 N 
ATOM      9  H2  UNL     1     -19.954   7.644  47.995  1.00  0.00     0.162 HD
HETATM   10  O1  UNL     1     -18.206   5.104  48.946  1.00  0.00    -0.273 OA
BRANCH   8  11
HETATM   11  C9  UNL     1     -20.626   6.258  49.501  1.00  0.00     0.125 C 
BRANCH  11  12
HETATM   12  C8  UNL     1     -21.459   5.130  48.932  1.00  0.00     0.055 C 
BRANCH  12  13
HETATM   13  C7  UNL     1     -21.698   4.045  49.925  1.00  0.00     0.211 C 
HETATM   14  N1  UNL     1     -20.503   3.293  50.253  1.00  0.00    -0.066 N 
HETATM   15  C6  UNL     1     -20.312   3.361  51.682  1.00  0.00     0.264 C 
ATOM     16  H12 UNL     1     -19.685   3.604  49.729  1.00  0.00     0.277 HD
ATOM     17  H11 UNL     1     -20.532   2.335  49.904  1.00  0.00     0.277 HD
HETATM   18  C5  UNL     1     -21.511   2.802  52.383  1.00  0.00     0.147 C 
HETATM   19  O3  UNL     1     -22.626   3.596  52.107  1.00  0.00    -0.382 OA
HETATM   20  C26 UNL     1     -22.381   4.565  51.147  1.00  0.00     0.201 C 
BRANCH  18  21
HETATM   21  C4  UNL     1     -21.778   1.385  51.933  1.00  0.00     0.034 C 
BRANCH  21  22
HETATM   22  C3  UNL     1     -23.245   1.119  51.740  1.00  0.00     0.002 C 
BRANCH  22  23
HETATM   23  C2  UNL     1     -23.498  -0.305  51.264  1.00  0.00    -0.004 C 
HETATM   24  C1  UNL     1     -24.687  -0.287  50.328  1.00  0.00     0.005 C 
ENDBRANCH  22  23
ENDBRANCH  21  22
ENDBRANCH  18  21
ENDBRANCH  12  13
ENDBRANCH  11  12
ENDBRANCH   8  11
ENDBRANCH   1   7
BRANCH   4  25
HETATM   25  C15 UNL     1     -13.415   7.455  46.397  1.00  0.00     0.237 C 
BRANCH  25  26
HETATM   26  N3  UNL     1     -12.678   7.277  45.130  1.00  0.00    -0.071 N 
ATOM     27  H32 UNL     1     -11.935   6.581  45.205  1.00  0.00     0.277 HD
ATOM     28  H31 UNL     1     -13.237   6.809  44.416  1.00  0.00     0.277 HD
BRANCH  26  29
HETATM   29  C16 UNL     1     -12.197   8.537  44.699  1.00  0.00     0.273 C 
BRANCH  29  30
HETATM   30  C17 UNL     1     -12.685   9.102  43.447  1.00  0.00    -0.003 A 
HETATM   31  C18 UNL     1     -13.521  10.223  43.591  1.00  0.00     0.044 A 
HETATM   32 CL1  UNL     1     -13.796  10.821  45.206  1.00  0.00    -0.084 Cl
HETATM   33  C19 UNL     1     -14.071  10.787  42.486  1.00  0.00     0.048 A 
HETATM   34  C20 UNL     1     -13.805  10.255  41.238  1.00  0.00     0.036 A 
HETATM   35 CL2  UNL     1     -14.554  11.040  39.856  1.00  0.00    -0.084 Cl
HETATM   36  C21 UNL     1     -12.990   9.163  41.091  1.00  0.00     0.033 A 
HETATM   37  C22 UNL     1     -12.418   8.575  42.226  1.00  0.00    -0.024 A 
BRANCH  37  38
HETATM   38  C23 UNL     1     -11.558   7.414  41.950  1.00  0.00     0.203 C 
BRANCH  38  39
HETATM   39  O2  UNL     1     -12.263   6.198  42.202  1.00  0.00    -0.396 OA
ATOM     40  H2  UNL     1     -12.737   5.921  41.426  1.00  0.00     0.209 HD
ENDBRANCH  38  39
ENDBRANCH  37  38
ENDBRANCH  29  30
ENDBRANCH  26  29
ENDBRANCH  25  26
ENDBRANCH   4  25
TORSDOF 13
ENDMDL
