MODEL 1
REMARK VINA RESULT: -8.011238265      0.000      0.000
REMARK  13 active torsions:
REMARK  status: ('A' for Active; 'I' for Inactive)
REMARK    1  A    between atoms: C2_2  and  C3_3 
REMARK    2  A    between atoms: C3_3  and  C4_4 
REMARK    3  A    between atoms: C4_4  and  C5_5 
REMARK    4  A    between atoms: C5_5  and  O1_6 
REMARK    5  A    between atoms: O1_6  and  C6_7 
REMARK    6  A    between atoms: C8_12  and  C9_13 
REMARK    7  A    between atoms: C9_13  and  C10_14 
REMARK    8  A    between atoms: C10_14  and  C11_15 
REMARK    9  A    between atoms: C11_15  and  C12_16 
REMARK   10  A    between atoms: C14_18  and  C15_19 
REMARK   11  A    between atoms: C22_26  and  O2_27 
REMARK   12  A    between atoms: C29_35  and  O3_36 
REMARK   13  A    between atoms: C31_39  and  O4_40 
ROOT
HETATM    1  C15 UNL     1      16.180   6.509  47.885  1.00  0.00     0.001 C 
HETATM    2  C16 UNL     1      17.291   6.264  46.920  1.00  0.00     0.006 C 
HETATM    3  C17 UNL     1      18.156   7.479  47.106  1.00  0.00     0.010 C 
HETATM    4  C18 UNL     1      18.070   7.841  48.608  1.00  0.00    -0.032 C 
HETATM    5  C19 UNL     1      18.319   9.306  48.713  1.00  0.00     0.010 C 
HETATM    6  C20 UNL     1      19.618   9.747  49.270  1.00  0.00     0.009 C 
HETATM    7  C21 UNL     1      20.021   9.487  50.615  1.00  0.00     0.023 C 
HETATM    8  C22 UNL     1      20.640  10.760  51.249  1.00  0.00     0.123 C 
HETATM    9  C23 UNL     1      21.030  10.235  52.590  1.00  0.00     0.033 C 
HETATM   10  C24 UNL     1      20.152   9.031  52.856  1.00  0.00     0.012 C 
HETATM   11  C25 UNL     1      19.131   9.070  51.691  1.00  0.00    -0.032 C 
HETATM   12  C26 UNL     1      18.176  10.165  52.180  1.00  0.00     0.016 C 
HETATM   13  C27 UNL     1      18.397   7.764  51.561  1.00  0.00     0.025 C 
HETATM   14  C28 UNL     1      16.931   7.888  51.383  1.00  0.00     0.040 C 
HETATM   15  C29 UNL     1      16.271   7.153  50.269  1.00  0.00     0.123 C 
HETATM   16  C30 UNL     1      16.632   7.535  48.886  1.00  0.00     0.028 C 
HETATM   17  C31 UNL     1      19.056   6.755  50.682  1.00  0.00     0.123 C 
HETATM   18  C32 UNL     1      19.063   6.964  49.251  1.00  0.00     0.042 C 
ENDROOT
BRANCH   1  19
HETATM   19  C14 UNL     1      14.836   6.663  47.322  1.00  0.00     0.051 C 
HETATM   20  C6  UNL     1      14.358   5.309  46.727  1.00  0.00     0.153 C 
HETATM   21  C7  UNL     1      13.038   5.781  46.169  1.00  0.00     0.265 C 
HETATM   22  N1  UNL     1      13.223   7.132  45.777  1.00  0.00    -0.068 N 
HETATM   23  C8  UNL     1      14.632   7.478  46.091  1.00  0.00     0.193 C 
ATOM     24  H12 UNL     1      12.973   7.307  44.804  1.00  0.00     0.277 HD
ATOM     25  H11 UNL     1      12.549   7.771  46.199  1.00  0.00     0.277 HD
BRANCH  20  26
HETATM   26  O1  UNL     1      14.143   4.379  47.695  1.00  0.00    -0.384 OA
BRANCH  26  27
HETATM   27  C5  UNL     1      14.281   3.065  47.340  1.00  0.00     0.168 C 
BRANCH  27  28
HETATM   28  C4  UNL     1      14.935   2.781  46.037  1.00  0.00     0.026 C 
BRANCH  28  29
HETATM   29  C3  UNL     1      13.935   2.378  44.981  1.00  0.00     0.002 C 
BRANCH  29  30
HETATM   30  C2  UNL     1      14.113   3.330  43.794  1.00  0.00    -0.004 C 
HETATM   31  C1  UNL     1      14.269   2.497  42.547  1.00  0.00     0.005 C 
ENDBRANCH  29  30
ENDBRANCH  28  29
ENDBRANCH  27  28
ENDBRANCH  26  27
ENDBRANCH  20  26
BRANCH  23  32
HETATM   32  C9  UNL     1      14.636   8.950  46.218  1.00  0.00     0.033 C 
BRANCH  32  33
HETATM   33  C10 UNL     1      15.843   9.473  45.418  1.00  0.00     0.002 C 
BRANCH  33  34
HETATM   34  C11 UNL     1      16.064   8.593  44.195  1.00  0.00    -0.000 C 
BRANCH  34  35
HETATM   35  C12 UNL     1      14.985   8.997  43.195  1.00  0.00    -0.005 C 
HETATM   36  C13 UNL     1      14.481   7.740  42.532  1.00  0.00     0.005 C 
ENDBRANCH  34  35
ENDBRANCH  33  34
ENDBRANCH  32  33
ENDBRANCH  23  32
ENDBRANCH   1  19
BRANCH  15  37
HETATM   37  O3  UNL     1      16.188   5.758  50.489  1.00  0.00    -0.395 OA
ATOM     38  H3  UNL     1      15.922   5.270  49.718  1.00  0.00     0.210 HD
ENDBRANCH  15  37
BRANCH  17  39
HETATM   39  O4  UNL     1      20.378   6.478  51.114  1.00  0.00    -0.395 OA
ATOM     40  H4  UNL     1      20.393   5.784  51.762  1.00  0.00     0.210 HD
ENDBRANCH  17  39
BRANCH   8  41
HETATM   41  O2  UNL     1      21.813  11.011  50.531  1.00  0.00    -0.395 OA
ATOM     42  H2  UNL     1      22.052  11.908  50.732  1.00  0.00     0.210 HD
ENDBRANCH   8  41
TORSDOF 13
ENDMDL
MODEL 2
REMARK VINA RESULT: -7.810613103      1.180      1.577
REMARK  13 active torsions:
REMARK  status: ('A' for Active; 'I' for Inactive)
REMARK    1  A    between atoms: C2_2  and  C3_3 
REMARK    2  A    between atoms: C3_3  and  C4_4 
REMARK    3  A    between atoms: C4_4  and  C5_5 
REMARK    4  A    between atoms: C5_5  and  O1_6 
REMARK    5  A    between atoms: O1_6  and  C6_7 
REMARK    6  A    between atoms: C8_12  and  C9_13 
REMARK    7  A    between atoms: C9_13  and  C10_14 
REMARK    8  A    between atoms: C10_14  and  C11_15 
REMARK    9  A    between atoms: C11_15  and  C12_16 
REMARK   10  A    between atoms: C14_18  and  C15_19 
REMARK   11  A    between atoms: C22_26  and  O2_27 
REMARK   12  A    between atoms: C29_35  and  O3_36 
REMARK   13  A    between atoms: C31_39  and  O4_40 
ROOT
HETATM    1  C15 UNL     1      15.747   6.718  47.339  1.00  0.00     0.001 C 
HETATM    2  C16 UNL     1      16.866   6.492  46.378  1.00  0.00     0.006 C 
HETATM    3  C17 UNL     1      17.815   7.608  46.718  1.00  0.00     0.010 C 
HETATM    4  C18 UNL     1      17.708   7.811  48.248  1.00  0.00    -0.032 C 
HETATM    5  C19 UNL     1      18.064   9.231  48.521  1.00  0.00     0.010 C 
HETATM    6  C20 UNL     1      19.374   9.506  49.153  1.00  0.00     0.009 C 
HETATM    7  C21 UNL     1      19.714   9.070  50.470  1.00  0.00     0.023 C 
HETATM    8  C22 UNL     1      20.407  10.215  51.255  1.00  0.00     0.123 C 
HETATM    9  C23 UNL     1      20.713   9.518  52.538  1.00  0.00     0.033 C 
HETATM   10  C24 UNL     1      19.739   8.365  52.649  1.00  0.00     0.012 C 
HETATM   11  C25 UNL     1      18.761   8.611  51.473  1.00  0.00    -0.032 C 
HETATM   12  C26 UNL     1      17.877   9.718  52.058  1.00  0.00     0.016 C 
HETATM   13  C27 UNL     1      17.935   7.388  51.182  1.00  0.00     0.025 C 
HETATM   14  C28 UNL     1      16.489   7.645  50.985  1.00  0.00     0.040 C 
HETATM   15  C29 UNL     1      15.811   7.090  49.781  1.00  0.00     0.123 C 
HETATM   16  C30 UNL     1      16.243   7.590  48.458  1.00  0.00     0.028 C 
HETATM   17  C31 UNL     1      18.543   6.431  50.212  1.00  0.00     0.123 C 
HETATM   18  C32 UNL     1      18.611   6.794  48.813  1.00  0.00     0.042 C 
ENDROOT
BRANCH   1  19
HETATM   19  C14 UNL     1      14.436   7.037  46.765  1.00  0.00     0.051 C 
HETATM   20  C6  UNL     1      13.891   5.808  45.986  1.00  0.00     0.153 C 
HETATM   21  C7  UNL     1      12.626   6.439  45.460  1.00  0.00     0.265 C 
HETATM   22  N1  UNL     1      12.915   7.814  45.253  1.00  0.00    -0.068 N 
HETATM   23  C8  UNL     1      14.331   8.015  45.646  1.00  0.00     0.193 C 
ATOM     24  H12 UNL     1      12.711   8.129  44.304  1.00  0.00     0.277 HD
ATOM     25  H11 UNL     1      12.269   8.439  45.737  1.00  0.00     0.277 HD
BRANCH  20  26
HETATM   26  O1  UNL     1      13.581   4.779  46.818  1.00  0.00    -0.384 OA
BRANCH  26  27
HETATM   27  C5  UNL     1      13.469   3.535  46.259  1.00  0.00     0.168 C 
BRANCH  27  28
HETATM   28  C4  UNL     1      14.555   2.563  46.547  1.00  0.00     0.026 C 
BRANCH  28  29
HETATM   29  C3  UNL     1      15.188   2.809  47.895  1.00  0.00     0.002 C 
BRANCH  29  30
HETATM   30  C2  UNL     1      16.614   3.309  47.646  1.00  0.00    -0.004 C 
HETATM   31  C1  UNL     1      17.051   2.817  46.290  1.00  0.00     0.005 C 
ENDBRANCH  29  30
ENDBRANCH  28  29
ENDBRANCH  27  28
ENDBRANCH  26  27
ENDBRANCH  20  26
BRANCH  23  32
HETATM   32  C9  UNL     1      14.428   9.455  45.965  1.00  0.00     0.033 C 
BRANCH  32  33
HETATM   33  C10 UNL     1      13.976  10.230  44.713  1.00  0.00     0.002 C 
BRANCH  33  34
HETATM   34  C11 UNL     1      14.902   9.902  43.549  1.00  0.00    -0.000 C 
BRANCH  34  35
HETATM   35  C12 UNL     1      16.318  10.096  44.080  1.00  0.00    -0.005 C 
HETATM   36  C13 UNL     1      17.146   8.922  43.621  1.00  0.00     0.005 C 
ENDBRANCH  34  35
ENDBRANCH  33  34
ENDBRANCH  32  33
ENDBRANCH  23  32
ENDBRANCH   1  19
BRANCH  15  37
HETATM   37  O3  UNL     1      15.616   5.690  49.843  1.00  0.00    -0.395 OA
ATOM     38  H3  UNL     1      14.840   5.397  49.379  1.00  0.00     0.210 HD
ENDBRANCH  15  37
BRANCH  17  39
HETATM   39  O4  UNL     1      19.826   6.007  50.641  1.00  0.00    -0.395 OA
ATOM     40  H4  UNL     1      20.349   5.694  49.911  1.00  0.00     0.210 HD
ENDBRANCH  17  39
BRANCH   8  41
HETATM   41  O2  UNL     1      21.618  10.449  50.597  1.00  0.00    -0.395 OA
ATOM     42  H2  UNL     1      22.098   9.630  50.640  1.00  0.00     0.210 HD
ENDBRANCH   8  41
TORSDOF 13
ENDMDL
MODEL 3
REMARK VINA RESULT: -7.633667786      2.030      4.857
REMARK  13 active torsions:
REMARK  status: ('A' for Active; 'I' for Inactive)
REMARK    1  A    between atoms: C2_2  and  C3_3 
REMARK    2  A    between atoms: C3_3  and  C4_4 
REMARK    3  A    between atoms: C4_4  and  C5_5 
REMARK    4  A    between atoms: C5_5  and  O1_6 
REMARK    5  A    between atoms: O1_6  and  C6_7 
REMARK    6  A    between atoms: C8_12  and  C9_13 
REMARK    7  A    between atoms: C9_13  and  C10_14 
REMARK    8  A    between atoms: C10_14  and  C11_15 
REMARK    9  A    between atoms: C11_15  and  C12_16 
REMARK   10  A    between atoms: C14_18  and  C15_19 
REMARK   11  A    between atoms: C22_26  and  O2_27 
REMARK   12  A    between atoms: C29_35  and  O3_36 
REMARK   13  A    between atoms: C31_39  and  O4_40 
ROOT
HETATM    1  C15 UNL     1      13.966   5.713  46.429  1.00  0.00     0.001 C 
HETATM    2  C16 UNL     1      13.620   4.659  47.426  1.00  0.00     0.006 C 
HETATM    3  C17 UNL     1      14.973   4.222  47.917  1.00  0.00     0.010 C 
HETATM    4  C18 UNL     1      15.856   5.492  47.927  1.00  0.00    -0.032 C 
HETATM    5  C19 UNL     1      17.264   5.038  47.751  1.00  0.00     0.010 C 
HETATM    6  C20 UNL     1      18.162   5.100  48.927  1.00  0.00     0.009 C 
HETATM    7  C21 UNL     1      18.536   6.323  49.563  1.00  0.00     0.023 C 
HETATM    8  C22 UNL     1      20.058   6.332  49.862  1.00  0.00     0.123 C 
HETATM    9  C23 UNL     1      20.190   7.643  50.561  1.00  0.00     0.033 C 
HETATM   10  C24 UNL     1      19.020   8.492  50.114  1.00  0.00     0.012 C 
HETATM   11  C25 UNL     1      18.380   7.651  48.982  1.00  0.00    -0.032 C 
HETATM   12  C26 UNL     1      19.338   7.949  47.823  1.00  0.00     0.016 C 
HETATM   13  C27 UNL     1      16.997   8.140  48.649  1.00  0.00     0.025 C 
HETATM   14  C28 UNL     1      16.715   8.273  47.201  1.00  0.00     0.040 C 
HETATM   15  C29 UNL     1      15.482   7.654  46.642  1.00  0.00     0.123 C 
HETATM   16  C30 UNL     1      15.371   6.180  46.691  1.00  0.00     0.028 C 
HETATM   17  C31 UNL     1      15.901   7.524  49.451  1.00  0.00     0.123 C 
HETATM   18  C32 UNL     1      15.538   6.145  49.208  1.00  0.00     0.042 C 
ENDROOT
BRANCH   1  19
HETATM   19  C14 UNL     1      13.590   5.457  45.036  1.00  0.00     0.051 C 
HETATM   20  C6  UNL     1      12.412   6.388  44.631  1.00  0.00     0.153 C 
HETATM   21  C7  UNL     1      12.197   5.857  43.235  1.00  0.00     0.265 C 
HETATM   22  N1  UNL     1      12.526   4.476  43.272  1.00  0.00    -0.068 N 
HETATM   23  C8  UNL     1      12.933   4.172  44.665  1.00  0.00     0.193 C 
ATOM     24  H12 UNL     1      11.776   3.874  42.931  1.00  0.00     0.277 HD
ATOM     25  H11 UNL     1      13.227   4.210  42.580  1.00  0.00     0.277 HD
BRANCH  20  26
HETATM   26  O1  UNL     1      12.793   7.691  44.575  1.00  0.00    -0.384 OA
BRANCH  26  27
HETATM   27  C5  UNL     1      13.235   8.161  43.369  1.00  0.00     0.168 C 
BRANCH  27  28
HETATM   28  C4  UNL     1      14.654   8.591  43.289  1.00  0.00     0.026 C 
BRANCH  28  29
HETATM   29  C3  UNL     1      14.843  10.007  43.776  1.00  0.00     0.002 C 
BRANCH  29  30
HETATM   30  C2  UNL     1      16.335  10.197  44.066  1.00  0.00    -0.004 C 
HETATM   31  C1  UNL     1      17.041   8.905  43.743  1.00  0.00     0.005 C 
ENDBRANCH  29  30
ENDBRANCH  28  29
ENDBRANCH  27  28
ENDBRANCH  26  27
ENDBRANCH  20  26
BRANCH  23  32
HETATM   32  C9  UNL     1      13.777   2.964  44.552  1.00  0.00     0.033 C 
BRANCH  32  33
HETATM   33  C10 UNL     1      14.689   3.157  43.327  1.00  0.00     0.002 C 
BRANCH  33  34
HETATM   34  C11 UNL     1      14.286   2.179  42.231  1.00  0.00    -0.000 C 
BRANCH  34  35
HETATM   35  C12 UNL     1      14.867   2.743  40.939  1.00  0.00    -0.005 C 
HETATM   36  C13 UNL     1      13.738   3.373  40.164  1.00  0.00     0.005 C 
ENDBRANCH  34  35
ENDBRANCH  33  34
ENDBRANCH  32  33
ENDBRANCH  23  32
ENDBRANCH   1  19
BRANCH  15  37
HETATM   37  O3  UNL     1      14.298   8.342  46.999  1.00  0.00    -0.395 OA
ATOM     38  H3  UNL     1      13.522   8.005  46.567  1.00  0.00     0.210 HD
ENDBRANCH  15  37
BRANCH  17  39
HETATM   39  O4  UNL     1      16.112   7.707  50.842  1.00  0.00    -0.395 OA
ATOM     40  H4  UNL     1      15.289   7.809  51.307  1.00  0.00     0.210 HD
ENDBRANCH  17  39
BRANCH   8  41
HETATM   41  O2  UNL     1      20.266   5.322  50.806  1.00  0.00    -0.395 OA
ATOM     42  H2  UNL     1      21.208   5.222  50.874  1.00  0.00     0.210 HD
ENDBRANCH   8  41
TORSDOF 13
ENDMDL
MODEL 4
REMARK VINA RESULT: -7.580171206      1.349      1.883
REMARK  13 active torsions:
REMARK  status: ('A' for Active; 'I' for Inactive)
REMARK    1  A    between atoms: C2_2  and  C3_3 
REMARK    2  A    between atoms: C3_3  and  C4_4 
REMARK    3  A    between atoms: C4_4  and  C5_5 
REMARK    4  A    between atoms: C5_5  and  O1_6 
REMARK    5  A    between atoms: O1_6  and  C6_7 
REMARK    6  A    between atoms: C8_12  and  C9_13 
REMARK    7  A    between atoms: C9_13  and  C10_14 
REMARK    8  A    between atoms: C10_14  and  C11_15 
REMARK    9  A    between atoms: C11_15  and  C12_16 
REMARK   10  A    between atoms: C14_18  and  C15_19 
REMARK   11  A    between atoms: C22_26  and  O2_27 
REMARK   12  A    between atoms: C29_35  and  O3_36 
REMARK   13  A    between atoms: C31_39  and  O4_40 
ROOT
HETATM    1  C15 UNL     1      15.975   6.550  47.389  1.00  0.00     0.001 C 
HETATM    2  C16 UNL     1      17.128   6.378  46.459  1.00  0.00     0.006 C 
HETATM    3  C17 UNL     1      17.983   7.574  46.779  1.00  0.00     0.010 C 
HETATM    4  C18 UNL     1      17.829   7.817  48.299  1.00  0.00    -0.032 C 
HETATM    5  C19 UNL     1      18.071   9.268  48.530  1.00  0.00     0.010 C 
HETATM    6  C20 UNL     1      19.343   9.661  49.178  1.00  0.00     0.009 C 
HETATM    7  C21 UNL     1      19.686   9.295  50.515  1.00  0.00     0.023 C 
HETATM    8  C22 UNL     1      20.274  10.513  51.274  1.00  0.00     0.123 C 
HETATM    9  C23 UNL     1      20.604   9.884  52.585  1.00  0.00     0.033 C 
HETATM   10  C24 UNL     1      19.716   8.665  52.716  1.00  0.00     0.012 C 
HETATM   11  C25 UNL     1      18.748   8.798  51.514  1.00  0.00    -0.032 C 
HETATM   12  C26 UNL     1      17.771   9.853  52.044  1.00  0.00     0.016 C 
HETATM   13  C27 UNL     1      18.023   7.507  51.249  1.00  0.00     0.025 C 
HETATM   14  C28 UNL     1      16.566   7.648  51.015  1.00  0.00     0.040 C 
HETATM   15  C29 UNL     1      15.958   7.005  49.818  1.00  0.00     0.123 C 
HETATM   16  C30 UNL     1      16.380   7.493  48.488  1.00  0.00     0.028 C 
HETATM   17  C31 UNL     1      18.722   6.569  50.324  1.00  0.00     0.123 C 
HETATM   18  C32 UNL     1      18.793   6.890  48.915  1.00  0.00     0.042 C 
ENDROOT
BRANCH   1  19
HETATM   19  C14 UNL     1      14.657   6.751  46.780  1.00  0.00     0.051 C 
HETATM   20  C6  UNL     1      14.335   5.567  45.826  1.00  0.00     0.153 C 
HETATM   21  C7  UNL     1      13.013   6.074  45.304  1.00  0.00     0.265 C 
HETATM   22  N1  UNL     1      13.102   7.491  45.283  1.00  0.00    -0.068 N 
HETATM   23  C8  UNL     1      14.455   7.840  45.784  1.00  0.00     0.193 C 
ATOM     24  H12 UNL     1      12.895   7.894  44.369  1.00  0.00     0.277 HD
ATOM     25  H11 UNL     1      12.351   7.950  45.799  1.00  0.00     0.277 HD
BRANCH  20  26
HETATM   26  O1  UNL     1      14.147   4.405  46.506  1.00  0.00    -0.384 OA
BRANCH  26  27
HETATM   27  C5  UNL     1      12.996   4.290  47.238  1.00  0.00     0.168 C 
BRANCH  27  28
HETATM   28  C4  UNL     1      12.230   3.024  47.098  1.00  0.00     0.026 C 
BRANCH  28  29
HETATM   29  C3  UNL     1      10.773   3.205  47.448  1.00  0.00     0.002 C 
BRANCH  29  30
HETATM   30  C2  UNL     1      10.475   4.707  47.404  1.00  0.00    -0.004 C 
HETATM   31  C1  UNL     1       9.380   4.936  46.394  1.00  0.00     0.005 C 
ENDBRANCH  29  30
ENDBRANCH  28  29
ENDBRANCH  27  28
ENDBRANCH  26  27
ENDBRANCH  20  26
BRANCH  23  32
HETATM   32  C9  UNL     1      14.323   9.225  46.280  1.00  0.00     0.033 C 
BRANCH  32  33
HETATM   33  C10 UNL     1      13.925  10.104  45.079  1.00  0.00     0.002 C 
BRANCH  33  34
HETATM   34  C11 UNL     1      14.742   9.700  43.859  1.00  0.00    -0.000 C 
BRANCH  34  35
HETATM   35  C12 UNL     1      16.179  10.107  44.171  1.00  0.00    -0.005 C 
HETATM   36  C13 UNL     1      17.080   8.979  43.736  1.00  0.00     0.005 C 
ENDBRANCH  34  35
ENDBRANCH  33  34
ENDBRANCH  32  33
ENDBRANCH  23  32
ENDBRANCH   1  19
BRANCH  15  37
HETATM   37  O3  UNL     1      15.867   5.596  49.924  1.00  0.00    -0.395 OA
ATOM     38  H3  UNL     1      15.705   5.166  49.092  1.00  0.00     0.210 HD
ENDBRANCH  15  37
BRANCH  17  39
HETATM   39  O4  UNL     1      20.024   6.256  50.791  1.00  0.00    -0.395 OA
ATOM     40  H4  UNL     1      20.053   5.391  51.183  1.00  0.00     0.210 HD
ENDBRANCH  17  39
BRANCH   8  41
HETATM   41  O2  UNL     1      21.478  10.817  50.632  1.00  0.00    -0.395 OA
ATOM     42  H2  UNL     1      22.051  11.162  51.306  1.00  0.00     0.210 HD
ENDBRANCH   8  41
TORSDOF 13
ENDMDL
MODEL 5
REMARK VINA RESULT: -7.491096081      1.027      1.191
REMARK  13 active torsions:
REMARK  status: ('A' for Active; 'I' for Inactive)
REMARK    1  A    between atoms: C2_2  and  C3_3 
REMARK    2  A    between atoms: C3_3  and  C4_4 
REMARK    3  A    between atoms: C4_4  and  C5_5 
REMARK    4  A    between atoms: C5_5  and  O1_6 
REMARK    5  A    between atoms: O1_6  and  C6_7 
REMARK    6  A    between atoms: C8_12  and  C9_13 
REMARK    7  A    between atoms: C9_13  and  C10_14 
REMARK    8  A    between atoms: C10_14  and  C11_15 
REMARK    9  A    between atoms: C11_15  and  C12_16 
REMARK   10  A    between atoms: C14_18  and  C15_19 
REMARK   11  A    between atoms: C22_26  and  O2_27 
REMARK   12  A    between atoms: C29_35  and  O3_36 
REMARK   13  A    between atoms: C31_39  and  O4_40 
ROOT
HETATM    1  C15 UNL     1      17.164   6.542  47.786  1.00  0.00     0.001 C 
HETATM    2  C16 UNL     1      18.139   6.804  46.687  1.00  0.00     0.006 C 
HETATM    3  C17 UNL     1      18.891   8.001  47.201  1.00  0.00     0.010 C 
HETATM    4  C18 UNL     1      18.992   7.819  48.734  1.00  0.00    -0.032 C 
HETATM    5  C19 UNL     1      19.101   9.182  49.323  1.00  0.00     0.010 C 
HETATM    6  C20 UNL     1      20.415   9.599  49.863  1.00  0.00     0.009 C 
HETATM    7  C21 UNL     1      21.039   8.964  50.980  1.00  0.00     0.023 C 
HETATM    8  C22 UNL     1      21.610  10.027  51.955  1.00  0.00     0.123 C 
HETATM    9  C23 UNL     1      22.247   9.145  52.976  1.00  0.00     0.033 C 
HETATM   10  C24 UNL     1      21.548   7.806  52.889  1.00  0.00     0.012 C 
HETATM   11  C25 UNL     1      20.366   8.081  51.926  1.00  0.00    -0.032 C 
HETATM   12  C26 UNL     1      19.387   8.792  52.866  1.00  0.00     0.016 C 
HETATM   13  C27 UNL     1      19.761   6.801  51.419  1.00  0.00     0.025 C 
HETATM   14  C28 UNL     1      18.280   6.758  51.448  1.00  0.00     0.040 C 
HETATM   15  C29 UNL     1      17.542   6.352  50.221  1.00  0.00     0.123 C 
HETATM   16  C30 UNL     1      17.651   7.226  49.033  1.00  0.00     0.028 C 
HETATM   17  C31 UNL     1      20.383   6.257  50.177  1.00  0.00     0.123 C 
HETATM   18  C32 UNL     1      20.155   6.935  48.919  1.00  0.00     0.042 C 
ENDROOT
BRANCH   1  19
HETATM   19  C14 UNL     1      15.742   6.675  47.456  1.00  0.00     0.051 C 
HETATM   20  C6  UNL     1      15.185   5.304  46.980  1.00  0.00     0.153 C 
HETATM   21  C7  UNL     1      13.784   5.754  46.644  1.00  0.00     0.265 C 
HETATM   22  N1  UNL     1      13.887   7.098  46.197  1.00  0.00    -0.068 N 
HETATM   23  C8  UNL     1      15.325   7.459  46.260  1.00  0.00     0.193 C 
ATOM     24  H12 UNL     1      13.474   7.249  45.277  1.00  0.00     0.277 HD
ATOM     25  H11 UNL     1      13.287   7.741  46.714  1.00  0.00     0.277 HD
BRANCH  20  26
HETATM   26  O1  UNL     1      15.147   4.395  47.989  1.00  0.00    -0.384 OA
BRANCH  26  27
HETATM   27  C5  UNL     1      14.972   3.083  47.643  1.00  0.00     0.168 C 
BRANCH  27  28
HETATM   28  C4  UNL     1      15.238   2.716  46.228  1.00  0.00     0.026 C 
BRANCH  28  29
HETATM   29  C3  UNL     1      13.962   2.466  45.461  1.00  0.00     0.002 C 
BRANCH  29  30
HETATM   30  C2  UNL     1      14.250   2.756  43.985  1.00  0.00    -0.004 C 
HETATM   31  C1  UNL     1      13.495   4.001  43.597  1.00  0.00     0.005 C 
ENDBRANCH  29  30
ENDBRANCH  28  29
ENDBRANCH  27  28
ENDBRANCH  26  27
ENDBRANCH  20  26
BRANCH  23  32
HETATM   32  C9  UNL     1      15.335   8.934  46.354  1.00  0.00     0.033 C 
BRANCH  32  33
HETATM   33  C10 UNL     1      16.137   9.462  45.150  1.00  0.00     0.002 C 
BRANCH  33  34
HETATM   34  C11 UNL     1      16.065   8.455  44.009  1.00  0.00    -0.000 C 
BRANCH  34  35
HETATM   35  C12 UNL     1      14.838   8.843  43.192  1.00  0.00    -0.005 C 
HETATM   36  C13 UNL     1      14.230   7.576  42.646  1.00  0.00     0.005 C 
ENDBRANCH  34  35
ENDBRANCH  33  34
ENDBRANCH  32  33
ENDBRANCH  23  32
ENDBRANCH   1  19
BRANCH  15  37
HETATM   37  O3  UNL     1      17.638   4.968  49.941  1.00  0.00    -0.395 OA
ATOM     38  H3  UNL     1      16.794   4.549  49.819  1.00  0.00     0.210 HD
ENDBRANCH  15  37
BRANCH  17  39
HETATM   39  O4  UNL     1      21.776   6.052  50.344  1.00  0.00    -0.395 OA
ATOM     40  H4  UNL     1      22.230   6.871  50.511  1.00  0.00     0.210 HD
ENDBRANCH  17  39
BRANCH   8  41
HETATM   41  O2  UNL     1      22.630  10.676  51.256  1.00  0.00    -0.395 OA
ATOM     42  H2  UNL     1      22.370  11.588  51.207  1.00  0.00     0.210 HD
ENDBRANCH   8  41
TORSDOF 13
ENDMDL
