MODEL 1
REMARK VINA RESULT: -8.341841004      0.000      0.000
REMARK  12 active torsions:
REMARK  status: ('A' for Active; 'I' for Inactive)
REMARK    1  A    between atoms: C2_2  and  C4_4 
REMARK    2  A    between atoms: C11_12  and  O2_13 
REMARK    3  A    between atoms: C13_16  and  C14_17 
REMARK    4  A    between atoms: C13_16  and  C24_29 
REMARK    5  A    between atoms: C14_17  and  C15_18 
REMARK    6  A    between atoms: C15_18  and  C16_19 
REMARK    7  A    between atoms: C16_19  and  C18_21 
REMARK    8  A    between atoms: C20_23  and  C22_25 
REMARK    9  A    between atoms: C22_25  and  O3_27 
REMARK   10  A    between atoms: C24_29  and  O4_30 
REMARK   11  A    between atoms: C24_29  and  C25_32 
REMARK   12  A    between atoms: C25_32  and  N1_33 
ROOT
HETATM    1  C4  UNL     1      18.747  10.595  52.025  1.00  0.00     0.024 C 
HETATM    2  C5  UNL     1      17.950   9.269  51.905  1.00  0.00     0.022 C 
HETATM    3  C6  UNL     1      18.873   8.385  51.215  1.00  0.00    -0.006 C 
HETATM    4  C7  UNL     1      19.742   7.684  52.258  1.00  0.00     0.019 C 
HETATM    5  C8  UNL     1      19.826   9.281  50.410  1.00  0.00     0.140 C 
HETATM    6  O1  UNL     1      19.582   8.976  49.081  1.00  0.00    -0.370 OA
HETATM    7  C9  UNL     1      19.450   7.565  49.137  1.00  0.00     0.096 C 
HETATM    8  C10 UNL     1      20.764   6.964  49.314  1.00  0.00     0.050 C 
HETATM    9  C11 UNL     1      18.734   7.060  47.858  1.00  0.00     0.182 C 
HETATM   10  C12 UNL     1      17.476   7.792  47.980  1.00  0.00    -0.039 C 
HETATM   11  C13 UNL     1      16.399   7.757  47.013  1.00  0.00    -0.022 C 
HETATM   12  C27 UNL     1      17.145   7.755  49.450  1.00  0.00     0.050 C 
HETATM   13  C28 UNL     1      18.410   7.428  50.183  1.00  0.00     0.003 C 
HETATM   14  C29 UNL     1      18.258   6.008  50.722  1.00  0.00     0.019 C 
HETATM   15  C30 UNL     1      19.490  10.705  50.788  1.00  0.00    -0.013 C 
HETATM   16  C31 UNL     1      18.539  11.316  49.725  1.00  0.00     0.018 C 
HETATM   17  C32 UNL     1      20.721  11.519  50.697  1.00  0.00     0.018 C 
ENDROOT
BRANCH   9  18
HETATM   18  O2  UNL     1      19.622   7.402  46.868  1.00  0.00    -0.388 OA
ATOM     19  H2  UNL     1      19.499   6.706  46.233  1.00  0.00     0.210 HD
ENDBRANCH   9  18
BRANCH  11  20
HETATM   20  C14 UNL     1      15.780   6.475  46.576  1.00  0.00     0.042 C 
BRANCH  20  21
HETATM   21  C15 UNL     1      14.315   6.301  46.917  1.00  0.00     0.013 C 
BRANCH  21  22
HETATM   22  C16 UNL     1      13.639   5.205  46.221  1.00  0.00     0.011 C 
HETATM   23  C17 UNL     1      12.154   5.089  46.556  1.00  0.00     0.015 C 
BRANCH  22  24
HETATM   24  C18 UNL     1      13.852   5.144  44.753  1.00  0.00    -0.075 C 
HETATM   25  C19 UNL     1      13.455   6.487  44.182  1.00  0.00     0.044 C 
HETATM   26  C20 UNL     1      13.560   3.971  43.989  1.00  0.00    -0.053 C 
HETATM   27  C21 UNL     1      14.357   2.719  44.241  1.00  0.00     0.046 C 
BRANCH  26  28
HETATM   28  C22 UNL     1      13.359   4.048  42.500  1.00  0.00     0.143 C 
HETATM   29  C23 UNL     1      14.136   3.085  41.679  1.00  0.00     0.044 C 
BRANCH  28  30
HETATM   30  O3  UNL     1      11.993   4.070  42.163  1.00  0.00    -0.392 OA
ATOM     31  H3  UNL     1      11.852   3.810  41.259  1.00  0.00     0.210 HD
ENDBRANCH  28  30
ENDBRANCH  26  28
ENDBRANCH  22  24
ENDBRANCH  21  22
ENDBRANCH  20  21
ENDBRANCH  11  20
BRANCH  11  32
HETATM   32  C24 UNL     1      16.430   8.779  45.927  1.00  0.00     0.075 C 
BRANCH  32  33
HETATM   33  O4  UNL     1      17.217   8.464  44.848  1.00  0.00    -0.363 OA
ATOM     34  H4  UNL     1      17.186   9.084  44.129  1.00  0.00     0.217 HD
ENDBRANCH  32  33
BRANCH  32  35
HETATM   35  C25 UNL     1      15.155   9.502  45.615  1.00  0.00     0.296 C 
BRANCH  35  36
HETATM   36  N1  UNL     1      15.312  10.236  44.326  1.00  0.00    -0.073 N 
HETATM   37  C26 UNL     1      14.044  10.266  43.640  1.00  0.00     0.267 C 
ATOM     38  H12 UNL     1      15.704  11.168  44.457  1.00  0.00     0.277 HD
ATOM     39  H11 UNL     1      16.057   9.847  43.747  1.00  0.00     0.277 HD
ENDBRANCH  35  36
ENDBRANCH  32  35
ENDBRANCH  11  32
BRANCH   1  40
HETATM   40  C2  UNL     1      19.363  10.682  53.335  1.00  0.00    -0.088 C 
HETATM   41  C1  UNL     1      20.571  10.960  53.715  1.00  0.00     0.014 C 
HETATM   42  C3  UNL     1      18.383  10.404  54.483  1.00  0.00     0.043 C 
ENDBRANCH   1  40
TORSDOF 12
ENDMDL
MODEL 2
REMARK VINA RESULT: -8.266392225      1.649      2.260
REMARK  12 active torsions:
REMARK  status: ('A' for Active; 'I' for Inactive)
REMARK    1  A    between atoms: C2_2  and  C4_4 
REMARK    2  A    between atoms: C11_12  and  O2_13 
REMARK    3  A    between atoms: C13_16  and  C14_17 
REMARK    4  A    between atoms: C13_16  and  C24_29 
REMARK    5  A    between atoms: C14_17  and  C15_18 
REMARK    6  A    between atoms: C15_18  and  C16_19 
REMARK    7  A    between atoms: C16_19  and  C18_21 
REMARK    8  A    between atoms: C20_23  and  C22_25 
REMARK    9  A    between atoms: C22_25  and  O3_27 
REMARK   10  A    between atoms: C24_29  and  O4_30 
REMARK   11  A    between atoms: C24_29  and  C25_32 
REMARK   12  A    between atoms: C25_32  and  N1_33 
ROOT
HETATM    1  C4  UNL     1      18.824  10.461  51.897  1.00  0.00     0.024 C 
HETATM    2  C5  UNL     1      17.996   9.161  51.723  1.00  0.00     0.022 C 
HETATM    3  C6  UNL     1      18.871   8.308  50.938  1.00  0.00    -0.006 C 
HETATM    4  C7  UNL     1      19.767   7.524  51.895  1.00  0.00     0.019 C 
HETATM    5  C8  UNL     1      19.810   9.239  50.156  1.00  0.00     0.140 C 
HETATM    6  O1  UNL     1      19.508   9.028  48.821  1.00  0.00    -0.370 OA
HETATM    7  C9  UNL     1      19.348   7.618  48.788  1.00  0.00     0.096 C 
HETATM    8  C10 UNL     1      20.656   6.984  48.871  1.00  0.00     0.050 C 
HETATM    9  C11 UNL     1      18.572   7.214  47.509  1.00  0.00     0.182 C 
HETATM   10  C12 UNL     1      17.334   7.958  47.731  1.00  0.00    -0.039 C 
HETATM   11  C13 UNL     1      16.219   8.007  46.809  1.00  0.00    -0.022 C 
HETATM   12  C27 UNL     1      17.062   7.829  49.208  1.00  0.00     0.050 C 
HETATM   13  C28 UNL     1      18.349   7.431  49.865  1.00  0.00     0.003 C 
HETATM   14  C29 UNL     1      18.188   5.981  50.315  1.00  0.00     0.019 C 
HETATM   15  C30 UNL     1      19.519  10.640  50.641  1.00  0.00    -0.013 C 
HETATM   16  C31 UNL     1      18.539  11.338  49.660  1.00  0.00     0.018 C 
HETATM   17  C32 UNL     1      20.762  11.436  50.552  1.00  0.00     0.018 C 
ENDROOT
BRANCH   9  18
HETATM   18  O2  UNL     1      19.426   7.605  46.508  1.00  0.00    -0.388 OA
ATOM     19  H2  UNL     1      19.917   6.810  46.335  1.00  0.00     0.210 HD
ENDBRANCH   9  18
BRANCH  11  20
HETATM   20  C14 UNL     1      15.557   6.769  46.314  1.00  0.00     0.042 C 
BRANCH  20  21
HETATM   21  C15 UNL     1      15.958   5.485  47.009  1.00  0.00     0.013 C 
BRANCH  21  22
HETATM   22  C16 UNL     1      15.396   4.262  46.432  1.00  0.00     0.011 C 
HETATM   23  C17 UNL     1      16.433   3.170  46.182  1.00  0.00     0.015 C 
BRANCH  22  24
HETATM   24  C18 UNL     1      14.208   3.708  47.127  1.00  0.00    -0.075 C 
HETATM   25  C19 UNL     1      14.610   2.377  47.721  1.00  0.00     0.044 C 
HETATM   26  C20 UNL     1      12.885   3.841  46.597  1.00  0.00    -0.053 C 
HETATM   27  C21 UNL     1      12.282   5.215  46.479  1.00  0.00     0.046 C 
BRANCH  26  28
HETATM   28  C22 UNL     1      11.776   2.932  47.050  1.00  0.00     0.143 C 
HETATM   29  C23 UNL     1      10.475   3.580  47.356  1.00  0.00     0.044 C 
BRANCH  28  30
HETATM   30  O3  UNL     1      11.640   1.818  46.202  1.00  0.00    -0.392 OA
ATOM     31  H3  UNL     1      12.166   1.910  45.416  1.00  0.00     0.210 HD
ENDBRANCH  28  30
ENDBRANCH  26  28
ENDBRANCH  22  24
ENDBRANCH  21  22
ENDBRANCH  20  21
ENDBRANCH  11  20
BRANCH  11  32
HETATM   32  C24 UNL     1      16.228   9.099  45.793  1.00  0.00     0.075 C 
BRANCH  32  33
HETATM   33  O4  UNL     1      17.071   8.902  44.729  1.00  0.00    -0.363 OA
ATOM     34  H4  UNL     1      16.644   8.746  43.895  1.00  0.00     0.217 HD
ENDBRANCH  32  33
BRANCH  32  35
HETATM   35  C25 UNL     1      14.924   9.765  45.476  1.00  0.00     0.296 C 
BRANCH  35  36
HETATM   36  N1  UNL     1      14.711   9.747  44.000  1.00  0.00    -0.073 N 
HETATM   37  C26 UNL     1      13.821   8.664  43.663  1.00  0.00     0.267 C 
ATOM     38  H12 UNL     1      14.382  10.644  43.645  1.00  0.00     0.277 HD
ATOM     39  H11 UNL     1      15.590   9.702  43.483  1.00  0.00     0.277 HD
ENDBRANCH  35  36
ENDBRANCH  32  35
ENDBRANCH  11  32
BRANCH   1  40
HETATM   40  C2  UNL     1      19.493  10.449  53.183  1.00  0.00    -0.088 C 
HETATM   41  C1  UNL     1      20.719  10.689  53.532  1.00  0.00     0.014 C 
HETATM   42  C3  UNL     1      18.558  10.099  54.348  1.00  0.00     0.043 C 
ENDBRANCH   1  40
TORSDOF 12
ENDMDL
MODEL 3
REMARK VINA RESULT: -7.971980031      2.548      9.415
REMARK  12 active torsions:
REMARK  status: ('A' for Active; 'I' for Inactive)
REMARK    1  A    between atoms: C2_2  and  C4_4 
REMARK    2  A    between atoms: C11_12  and  O2_13 
REMARK    3  A    between atoms: C13_16  and  C14_17 
REMARK    4  A    between atoms: C13_16  and  C24_29 
REMARK    5  A    between atoms: C14_17  and  C15_18 
REMARK    6  A    between atoms: C15_18  and  C16_19 
REMARK    7  A    between atoms: C16_19  and  C18_21 
REMARK    8  A    between atoms: C20_23  and  C22_25 
REMARK    9  A    between atoms: C22_25  and  O3_27 
REMARK   10  A    between atoms: C24_29  and  O4_30 
REMARK   11  A    between atoms: C24_29  and  C25_32 
REMARK   12  A    between atoms: C25_32  and  N1_33 
ROOT
HETATM    1  C4  UNL     1      14.648   3.982  47.480  1.00  0.00     0.024 C 
HETATM    2  C5  UNL     1      14.289   5.459  47.793  1.00  0.00     0.022 C 
HETATM    3  C6  UNL     1      15.168   6.211  46.915  1.00  0.00    -0.006 C 
HETATM    4  C7  UNL     1      14.465   6.400  45.572  1.00  0.00     0.019 C 
HETATM    5  C8  UNL     1      16.380   5.312  46.628  1.00  0.00     0.140 C 
HETATM    6  O1  UNL     1      17.465   5.971  47.183  1.00  0.00    -0.370 OA
HETATM    7  C9  UNL     1      17.192   7.316  46.822  1.00  0.00     0.096 C 
HETATM    8  C10 UNL     1      17.464   7.498  45.403  1.00  0.00     0.050 C 
HETATM    9  C11 UNL     1      18.025   8.272  47.713  1.00  0.00     0.182 C 
HETATM   10  C12 UNL     1      17.517   7.882  49.026  1.00  0.00    -0.039 C 
HETATM   11  C13 UNL     1      17.982   8.419  50.288  1.00  0.00    -0.022 C 
HETATM   12  C27 UNL     1      16.040   7.659  48.822  1.00  0.00     0.050 C 
HETATM   13  C28 UNL     1      15.818   7.468  47.353  1.00  0.00     0.003 C 
HETATM   14  C29 UNL     1      15.093   8.713  46.847  1.00  0.00     0.019 C 
HETATM   15  C30 UNL     1      16.078   3.976  47.266  1.00  0.00    -0.013 C 
HETATM   16  C31 UNL     1      16.759   3.897  48.658  1.00  0.00     0.018 C 
HETATM   17  C32 UNL     1      16.735   2.917  46.471  1.00  0.00     0.018 C 
ENDROOT
BRANCH   9  18
HETATM   18  O2  UNL     1      19.315   7.953  47.364  1.00  0.00    -0.388 OA
ATOM     19  H2  UNL     1      19.206   7.123  46.914  1.00  0.00     0.210 HD
ENDBRANCH   9  18
BRANCH  11  20
HETATM   20  C14 UNL     1      17.988   9.882  50.562  1.00  0.00     0.042 C 
BRANCH  20  21
HETATM   21  C15 UNL     1      19.112  10.668  49.921  1.00  0.00     0.013 C 
BRANCH  21  22
HETATM   22  C16 UNL     1      19.900  11.491  50.840  1.00  0.00     0.011 C 
HETATM   23  C17 UNL     1      19.599  11.226  52.313  1.00  0.00     0.015 C 
BRANCH  22  24
HETATM   24  C18 UNL     1      21.364  11.506  50.599  1.00  0.00    -0.075 C 
HETATM   25  C19 UNL     1      21.766  10.115  50.163  1.00  0.00     0.044 C 
HETATM   26  C20 UNL     1      22.267  12.241  51.432  1.00  0.00    -0.053 C 
HETATM   27  C21 UNL     1      22.171  13.743  51.463  1.00  0.00     0.046 C 
BRANCH  26  28
HETATM   28  C22 UNL     1      23.734  11.912  51.460  1.00  0.00     0.143 C 
HETATM   29  C23 UNL     1      24.665  13.020  51.126  1.00  0.00     0.044 C 
BRANCH  28  30
HETATM   30  O3  UNL     1      24.092  11.242  52.643  1.00  0.00    -0.392 OA
ATOM     31  H3  UNL     1      24.555  11.815  53.244  1.00  0.00     0.210 HD
ENDBRANCH  28  30
ENDBRANCH  26  28
ENDBRANCH  22  24
ENDBRANCH  21  22
ENDBRANCH  20  21
ENDBRANCH  11  20
BRANCH  11  32
HETATM   32  C24 UNL     1      19.112   7.706  50.952  1.00  0.00     0.075 C 
BRANCH  32  33
HETATM   33  O4  UNL     1      19.156   7.822  52.319  1.00  0.00    -0.363 OA
ATOM     34  H4  UNL     1      18.927   7.036  52.800  1.00  0.00     0.217 HD
ENDBRANCH  32  33
BRANCH  32  35
HETATM   35  C25 UNL     1      19.516   6.374  50.397  1.00  0.00     0.296 C 
BRANCH  35  36
HETATM   36  N1  UNL     1      20.802   6.523  49.657  1.00  0.00    -0.073 N 
HETATM   37  C26 UNL     1      21.789   5.650  50.243  1.00  0.00     0.267 C 
ATOM     38  H12 UNL     1      20.693   6.367  48.656  1.00  0.00     0.277 HD
ATOM     39  H11 UNL     1      21.117   7.493  49.618  1.00  0.00     0.277 HD
ENDBRANCH  35  36
ENDBRANCH  32  35
ENDBRANCH  11  32
BRANCH   1  40
HETATM   40  C2  UNL     1      13.698   3.436  46.531  1.00  0.00    -0.088 C 
HETATM   41  C1  UNL     1      13.844   2.896  45.361  1.00  0.00     0.014 C 
HETATM   42  C3  UNL     1      12.245   3.503  47.022  1.00  0.00     0.043 C 
ENDBRANCH   1  40
TORSDOF 12
ENDMDL
MODEL 4
REMARK VINA RESULT: -7.876908851      1.364      1.556
REMARK  12 active torsions:
REMARK  status: ('A' for Active; 'I' for Inactive)
REMARK    1  A    between atoms: C2_2  and  C4_4 
REMARK    2  A    between atoms: C11_12  and  O2_13 
REMARK    3  A    between atoms: C13_16  and  C14_17 
REMARK    4  A    between atoms: C13_16  and  C24_29 
REMARK    5  A    between atoms: C14_17  and  C15_18 
REMARK    6  A    between atoms: C15_18  and  C16_19 
REMARK    7  A    between atoms: C16_19  and  C18_21 
REMARK    8  A    between atoms: C20_23  and  C22_25 
REMARK    9  A    between atoms: C22_25  and  O3_27 
REMARK   10  A    between atoms: C24_29  and  O4_30 
REMARK   11  A    between atoms: C24_29  and  C25_32 
REMARK   12  A    between atoms: C25_32  and  N1_33 
ROOT
HETATM    1  C4  UNL     1      18.736   9.692  51.609  1.00  0.00     0.024 C 
HETATM    2  C5  UNL     1      17.944   8.370  51.431  1.00  0.00     0.022 C 
HETATM    3  C6  UNL     1      18.669   7.683  50.376  1.00  0.00    -0.006 C 
HETATM    4  C7  UNL     1      19.777   6.849  51.015  1.00  0.00     0.019 C 
HETATM    5  C8  UNL     1      19.383   8.766  49.554  1.00  0.00     0.140 C 
HETATM    6  O1  UNL     1      18.816   8.704  48.292  1.00  0.00    -0.370 OA
HETATM    7  C9  UNL     1      18.710   7.302  48.100  1.00  0.00     0.096 C 
HETATM    8  C10 UNL     1      20.031   6.753  47.829  1.00  0.00     0.050 C 
HETATM    9  C11 UNL     1      17.700   7.008  46.963  1.00  0.00     0.182 C 
HETATM   10  C12 UNL     1      16.508   7.633  47.530  1.00  0.00    -0.039 C 
HETATM   11  C13 UNL     1      15.222   7.720  46.870  1.00  0.00    -0.022 C 
HETATM   12  C27 UNL     1      16.557   7.302  49.001  1.00  0.00     0.050 C 
HETATM   13  C28 UNL     1      17.969   6.914  49.322  1.00  0.00     0.003 C 
HETATM   14  C29 UNL     1      17.966   5.411  49.593  1.00  0.00     0.019 C 
HETATM   15  C30 UNL     1      19.143  10.074  50.274  1.00  0.00    -0.013 C 
HETATM   16  C31 UNL     1      17.952  10.819  49.617  1.00  0.00     0.018 C 
HETATM   17  C32 UNL     1      20.307  10.957  50.044  1.00  0.00     0.018 C 
ENDROOT
BRANCH   9  18
HETATM   18  O2  UNL     1      18.308   7.579  45.872  1.00  0.00    -0.388 OA
ATOM     19  H2  UNL     1      17.568   7.873  45.355  1.00  0.00     0.210 HD
ENDBRANCH   9  18
BRANCH  11  20
HETATM   20  C14 UNL     1      14.522   6.511  46.355  1.00  0.00     0.042 C 
BRANCH  20  21
HETATM   21  C15 UNL     1      13.730   6.702  45.080  1.00  0.00     0.013 C 
BRANCH  21  22
HETATM   22  C16 UNL     1      13.286   5.467  44.431  1.00  0.00     0.011 C 
HETATM   23  C17 UNL     1      11.857   5.066  44.788  1.00  0.00     0.015 C 
BRANCH  22  24
HETATM   24  C18 UNL     1      13.500   5.396  42.964  1.00  0.00    -0.075 C 
HETATM   25  C19 UNL     1      13.058   6.719  42.378  1.00  0.00     0.044 C 
HETATM   26  C20 UNL     1      13.245   4.205  42.213  1.00  0.00    -0.053 C 
HETATM   27  C21 UNL     1      14.083   2.983  42.480  1.00  0.00     0.046 C 
BRANCH  26  28
HETATM   28  C22 UNL     1      13.041   4.258  40.725  1.00  0.00     0.143 C 
HETATM   29  C23 UNL     1      13.930   3.396  39.905  1.00  0.00     0.044 C 
BRANCH  28  30
HETATM   30  O3  UNL     1      11.683   4.116  40.383  1.00  0.00    -0.392 OA
ATOM     31  H3  UNL     1      11.508   4.433  39.505  1.00  0.00     0.210 HD
ENDBRANCH  28  30
ENDBRANCH  26  28
ENDBRANCH  22  24
ENDBRANCH  21  22
ENDBRANCH  20  21
ENDBRANCH  11  20
BRANCH  11  32
HETATM   32  C24 UNL     1      14.973   8.928  46.031  1.00  0.00     0.075 C 
BRANCH  32  33
HETATM   33  O4  UNL     1      13.925   9.717  46.436  1.00  0.00    -0.363 OA
ATOM     34  H4  UNL     1      13.077   9.288  46.452  1.00  0.00     0.217 HD
ENDBRANCH  32  33
BRANCH  32  35
HETATM   35  C25 UNL     1      16.164   9.657  45.488  1.00  0.00     0.296 C 
BRANCH  35  36
HETATM   36  N1  UNL     1      16.353   9.284  44.056  1.00  0.00    -0.073 N 
HETATM   37  C26 UNL     1      15.159   9.616  43.319  1.00  0.00     0.267 C 
ATOM     38  H12 UNL     1      17.188   9.709  43.653  1.00  0.00     0.277 HD
ATOM     39  H11 UNL     1      16.620   8.306  43.942  1.00  0.00     0.277 HD
ENDBRANCH  35  36
ENDBRANCH  32  35
ENDBRANCH  11  32
BRANCH   1  40
HETATM   40  C2  UNL     1      19.661   9.565  52.718  1.00  0.00    -0.088 C 
HETATM   41  C1  UNL     1      20.901   9.913  52.865  1.00  0.00     0.014 C 
HETATM   42  C3  UNL     1      19.036   8.904  53.954  1.00  0.00     0.043 C 
ENDBRANCH   1  40
TORSDOF 12
ENDMDL
MODEL 5
REMARK VINA RESULT: -7.809774339      2.538      4.298
REMARK  12 active torsions:
REMARK  status: ('A' for Active; 'I' for Inactive)
REMARK    1  A    between atoms: C2_2  and  C4_4 
REMARK    2  A    between atoms: C11_12  and  O2_13 
REMARK    3  A    between atoms: C13_16  and  C14_17 
REMARK    4  A    between atoms: C13_16  and  C24_29 
REMARK    5  A    between atoms: C14_17  and  C15_18 
REMARK    6  A    between atoms: C15_18  and  C16_19 
REMARK    7  A    between atoms: C16_19  and  C18_21 
REMARK    8  A    between atoms: C20_23  and  C22_25 
REMARK    9  A    between atoms: C22_25  and  O3_27 
REMARK   10  A    between atoms: C24_29  and  O4_30 
REMARK   11  A    between atoms: C24_29  and  C25_32 
REMARK   12  A    between atoms: C25_32  and  N1_33 
ROOT
HETATM    1  C4  UNL     1      22.349   8.723  51.307  1.00  0.00     0.024 C 
HETATM    2  C5  UNL     1      21.495   9.349  50.174  1.00  0.00     0.022 C 
HETATM    3  C6  UNL     1      20.264   9.723  50.848  1.00  0.00    -0.006 C 
HETATM    4  C7  UNL     1      20.428  11.135  51.407  1.00  0.00     0.019 C 
HETATM    5  C8  UNL     1      20.134   8.803  52.071  1.00  0.00     0.140 C 
HETATM    6  O1  UNL     1      18.997   8.046  51.842  1.00  0.00    -0.370 OA
HETATM    7  C9  UNL     1      18.115   9.019  51.307  1.00  0.00     0.096 C 
HETATM    8  C10 UNL     1      17.648   9.887  52.378  1.00  0.00     0.050 C 
HETATM    9  C11 UNL     1      16.951   8.312  50.566  1.00  0.00     0.182 C 
HETATM   10  C12 UNL     1      17.715   7.572  49.565  1.00  0.00    -0.039 C 
HETATM   11  C13 UNL     1      17.146   6.664  48.592  1.00  0.00    -0.022 C 
HETATM   12  C27 UNL     1      18.812   8.514  49.138  1.00  0.00     0.050 C 
HETATM   13  C28 UNL     1      18.941   9.560  50.203  1.00  0.00     0.003 C 
HETATM   14  C29 UNL     1      18.409  10.863  49.613  1.00  0.00     0.019 C 
HETATM   15  C30 UNL     1      21.411   7.995  52.133  1.00  0.00    -0.013 C 
HETATM   16  C31 UNL     1      21.183   6.610  51.473  1.00  0.00     0.018 C 
HETATM   17  C32 UNL     1      21.704   7.688  53.549  1.00  0.00     0.018 C 
ENDROOT
BRANCH   9  18
HETATM   18  O2  UNL     1      16.325   7.630  51.580  1.00  0.00    -0.388 OA
ATOM     19  H2  UNL     1      16.924   6.910  51.743  1.00  0.00     0.210 HD
ENDBRANCH   9  18
BRANCH  11  20
HETATM   20  C14 UNL     1      16.063   7.089  47.663  1.00  0.00     0.042 C 
BRANCH  20  21
HETATM   21  C15 UNL     1      16.519   7.731  46.370  1.00  0.00     0.013 C 
BRANCH  21  22
HETATM   22  C16 UNL     1      15.473   8.425  45.616  1.00  0.00     0.011 C 
HETATM   23  C17 UNL     1      15.917   9.770  45.048  1.00  0.00     0.015 C 
BRANCH  22  24
HETATM   24  C18 UNL     1      14.784   7.619  44.578  1.00  0.00    -0.075 C 
HETATM   25  C19 UNL     1      15.139   8.213  43.234  1.00  0.00     0.044 C 
HETATM   26  C20 UNL     1      13.460   7.109  44.764  1.00  0.00    -0.053 C 
HETATM   27  C21 UNL     1      13.218   6.085  45.841  1.00  0.00     0.046 C 
BRANCH  26  28
HETATM   28  C22 UNL     1      12.621   6.689  43.589  1.00  0.00     0.143 C 
HETATM   29  C23 UNL     1      12.938   5.368  42.990  1.00  0.00     0.044 C 
BRANCH  28  30
HETATM   30  O3  UNL     1      11.248   6.851  43.848  1.00  0.00    -0.392 OA
ATOM     31  H3  UNL     1      10.758   7.017  43.051  1.00  0.00     0.210 HD
ENDBRANCH  28  30
ENDBRANCH  26  28
ENDBRANCH  22  24
ENDBRANCH  21  22
ENDBRANCH  20  21
ENDBRANCH  11  20
BRANCH  11  32
HETATM   32  C24 UNL     1      17.031   5.230  48.989  1.00  0.00     0.075 C 
BRANCH  32  33
HETATM   33  O4  UNL     1      16.550   5.009  50.255  1.00  0.00    -0.363 OA
ATOM     34  H4  UNL     1      16.570   4.105  50.545  1.00  0.00     0.217 HD
ENDBRANCH  32  33
BRANCH  32  35
HETATM   35  C25 UNL     1      16.590   4.251  47.944  1.00  0.00     0.296 C 
BRANCH  35  36
HETATM   36  N1  UNL     1      15.477   3.422  48.490  1.00  0.00    -0.073 N 
HETATM   37  C26 UNL     1      14.654   2.958  47.402  1.00  0.00     0.267 C 
ATOM     38  H12 UNL     1      15.814   2.658  49.074  1.00  0.00     0.277 HD
ATOM     39  H11 UNL     1      14.937   3.918  49.201  1.00  0.00     0.277 HD
ENDBRANCH  35  36
ENDBRANCH  32  35
ENDBRANCH  11  32
BRANCH   1  40
HETATM   40  C2  UNL     1      23.271   9.712  51.831  1.00  0.00    -0.088 C 
HETATM   41  C1  UNL     1      23.245  11.008  51.847  1.00  0.00     0.014 C 
HETATM   42  C3  UNL     1      24.503   9.093  52.506  1.00  0.00     0.043 C 
ENDBRANCH   1  40
TORSDOF 12
ENDMDL
