MODEL 1
REMARK VINA RESULT: -8.129348239      0.000      0.000
REMARK  14 active torsions:
REMARK  status: ('A' for Active; 'I' for Inactive)
REMARK    1  A    between atoms: C2_2  and  O1_3 
REMARK    2  A    between atoms: C2_2  and  C3_6 
REMARK    3  A    between atoms: C3_6  and  C4_7 
REMARK    4  A    between atoms: C4_7  and  C5_8 
REMARK    5  A    between atoms: C5_8  and  C6_9 
REMARK    6  A    between atoms: C6_9  and  C7_10 
REMARK    7  A    between atoms: C6_9  and  C33_40 
REMARK    8  A    between atoms: C8_11  and  C9_13 
REMARK    9  A    between atoms: C9_13  and  C10_14 
REMARK   10  A    between atoms: C10_14  and  C11_15 
REMARK   11  A    between atoms: C14_18  and  C15_19 
REMARK   12  A    between atoms: C15_19  and  O2_20 
REMARK   13  A    between atoms: C33_40  and  C34_41 
REMARK   14  A    between atoms: C34_41  and  O4_42 
ROOT
HETATM    1  C11 UNL     1      -6.005 -14.029  11.057  1.00  0.00    -0.023 C 
HETATM    2  C12 UNL     1      -6.706 -15.049  10.642  1.00  0.00    -0.074 C 
HETATM    3  C13 UNL     1      -7.412 -15.968  11.590  1.00  0.00     0.042 C 
HETATM    4  C14 UNL     1      -8.069 -17.047  10.715  1.00  0.00     0.023 C 
HETATM    5  C16 UNL     1      -8.292 -16.295   9.477  1.00  0.00    -0.023 C 
HETATM    6  C17 UNL     1      -9.371 -15.288   9.718  1.00  0.00     0.017 C 
HETATM    7  C18 UNL     1      -8.420 -17.071   8.195  1.00  0.00     0.004 C 
HETATM    8  C19 UNL     1      -9.319 -18.248   8.281  1.00  0.00     0.033 C 
HETATM    9  C20 UNL     1      -9.449 -18.876   6.943  1.00  0.00    -0.022 C 
HETATM   10  C21 UNL     1      -9.220 -18.215   5.832  1.00  0.00    -0.068 C 
HETATM   11  C22 UNL     1      -9.377 -18.930   4.537  1.00  0.00     0.113 C 
HETATM   12  C23 UNL     1      -8.329 -18.456   3.592  1.00  0.00     0.130 C 
HETATM   13  O3  UNL     1      -8.484 -18.655   2.395  1.00  0.00    -0.298 OA
HETATM   14  C24 UNL     1      -7.160 -17.772   4.160  1.00  0.00     0.079 C 
HETATM   15  C25 UNL     1      -7.521 -16.600   5.052  1.00  0.00     0.021 C 
HETATM   16  C26 UNL     1      -8.818 -16.791   5.790  1.00  0.00    -0.016 C 
HETATM   17  C27 UNL     1      -9.898 -16.121   4.902  1.00  0.00     0.020 C 
HETATM   18  C28 UNL     1      -8.856 -16.119   7.146  1.00  0.00     0.003 C 
HETATM   19  C29 UNL     1      -8.143 -14.809   7.150  1.00  0.00     0.007 C 
HETATM   20  C30 UNL     1      -7.141 -14.564   8.205  1.00  0.00     0.015 C 
HETATM   21  C31 UNL     1      -6.964 -15.534   9.299  1.00  0.00    -0.013 C 
HETATM   22  C32 UNL     1      -5.822 -16.463   8.948  1.00  0.00     0.021 C 
ENDROOT
BRANCH   1  23
HETATM   23  C10 UNL     1      -5.247 -13.025  10.313  1.00  0.00     0.033 C 
BRANCH  23  24
HETATM   24  C9  UNL     1      -3.932 -12.675  11.022  1.00  0.00     0.054 C 
BRANCH  24  25
HETATM   25  C8  UNL     1      -2.818 -13.315  10.208  1.00  0.00     0.008 C 
HETATM   26  C7  UNL     1      -3.007 -14.444   9.618  1.00  0.00    -0.003 C 
HETATM   27 CL1  UNL     1      -1.335 -12.419  10.153  1.00  0.00    -0.089 Cl
BRANCH  26  28
HETATM   28  C6  UNL     1      -2.136 -15.272   8.791  1.00  0.00     0.011 C 
BRANCH  28  29
HETATM   29  C5  UNL     1      -1.921 -14.618   7.417  1.00  0.00     0.009 C 
BRANCH  29  30
HETATM   30  C4  UNL     1      -2.890 -15.187   6.440  1.00  0.00     0.006 C 
BRANCH  30  31
HETATM   31  C3  UNL     1      -2.814 -16.720   6.408  1.00  0.00     0.073 C 
BRANCH  31  32
HETATM   32  C2  UNL     1      -2.166 -17.089   5.091  1.00  0.00     0.199 C 
HETATM   33  C1  UNL     1      -2.739 -16.204   4.004  1.00  0.00     0.084 C 
HETATM   34  F1  UNL     1      -0.818 -16.851   5.171  1.00  0.00    -0.212 F 
BRANCH  32  35
HETATM   35  O1  UNL     1      -2.362 -18.434   4.813  1.00  0.00    -0.362 OA
ATOM     36  H1  UNL     1      -2.490 -18.941   5.606  1.00  0.00     0.213 HD
ENDBRANCH  32  35
ENDBRANCH  31  32
ENDBRANCH  30  31
ENDBRANCH  29  30
ENDBRANCH  28  29
BRANCH  28  37
HETATM   37  C33 UNL     1      -0.803 -15.614   9.407  1.00  0.00     0.034 C 
BRANCH  37  38
HETATM   38  C34 UNL     1      -0.983 -16.690  10.474  1.00  0.00     0.164 C 
BRANCH  38  39
HETATM   39  O4  UNL     1      -0.014 -17.670  10.422  1.00  0.00    -0.401 OA
ATOM     40  H4  UNL     1      -0.262 -18.463  10.882  1.00  0.00     0.209 HD
ENDBRANCH  38  39
ENDBRANCH  37  38
ENDBRANCH  28  37
ENDBRANCH  26  28
ENDBRANCH  24  25
ENDBRANCH  23  24
ENDBRANCH   1  23
BRANCH   4  41
HETATM   41  C15 UNL     1      -9.267 -17.605  11.432  1.00  0.00     0.169 C 
BRANCH  41  42
HETATM   42  O2  UNL     1      -9.420 -16.977  12.693  1.00  0.00    -0.400 OA
ATOM     43  H2  UNL     1      -9.649 -17.620  13.353  1.00  0.00     0.209 HD
ENDBRANCH  41  42
ENDBRANCH   4  41
TORSDOF 14
ENDMDL
MODEL 2
REMARK VINA RESULT: -7.912704661      2.081      3.028
REMARK  14 active torsions:
REMARK  status: ('A' for Active; 'I' for Inactive)
REMARK    1  A    between atoms: C2_2  and  O1_3 
REMARK    2  A    between atoms: C2_2  and  C3_6 
REMARK    3  A    between atoms: C3_6  and  C4_7 
REMARK    4  A    between atoms: C4_7  and  C5_8 
REMARK    5  A    between atoms: C5_8  and  C6_9 
REMARK    6  A    between atoms: C6_9  and  C7_10 
REMARK    7  A    between atoms: C6_9  and  C33_40 
REMARK    8  A    between atoms: C8_11  and  C9_13 
REMARK    9  A    between atoms: C9_13  and  C10_14 
REMARK   10  A    between atoms: C10_14  and  C11_15 
REMARK   11  A    between atoms: C14_18  and  C15_19 
REMARK   12  A    between atoms: C15_19  and  O2_20 
REMARK   13  A    between atoms: C33_40  and  C34_41 
REMARK   14  A    between atoms: C34_41  and  O4_42 
ROOT
HETATM    1  C11 UNL     1      -5.738 -18.175  10.768  1.00  0.00    -0.023 C 
HETATM    2  C12 UNL     1      -6.727 -17.772  10.018  1.00  0.00    -0.074 C 
HETATM    3  C13 UNL     1      -8.057 -17.392  10.592  1.00  0.00     0.042 C 
HETATM    4  C14 UNL     1      -8.943 -17.029   9.389  1.00  0.00     0.023 C 
HETATM    5  C16 UNL     1      -7.933 -16.552   8.441  1.00  0.00    -0.023 C 
HETATM    6  C17 UNL     1      -7.396 -15.245   8.931  1.00  0.00     0.017 C 
HETATM    7  C18 UNL     1      -8.266 -16.595   6.975  1.00  0.00     0.004 C 
HETATM    8  C19 UNL     1      -9.612 -16.066   6.640  1.00  0.00     0.033 C 
HETATM    9  C20 UNL     1      -9.795 -16.062   5.169  1.00  0.00    -0.022 C 
HETATM   10  C21 UNL     1      -8.780 -16.050   4.334  1.00  0.00    -0.068 C 
HETATM   11  C22 UNL     1      -9.063 -16.047   2.874  1.00  0.00     0.113 C 
HETATM   12  C23 UNL     1      -8.043 -16.880   2.182  1.00  0.00     0.130 C 
HETATM   13  O3  UNL     1      -7.889 -16.737   0.975  1.00  0.00    -0.298 OA
HETATM   14  C24 UNL     1      -7.276 -17.832   2.994  1.00  0.00     0.079 C 
HETATM   15  C25 UNL     1      -6.595 -17.194   4.190  1.00  0.00     0.021 C 
HETATM   16  C26 UNL     1      -7.363 -16.035   4.763  1.00  0.00    -0.016 C 
HETATM   17  C27 UNL     1      -6.777 -14.774   4.077  1.00  0.00     0.020 C 
HETATM   18  C28 UNL     1      -7.193 -15.865   6.257  1.00  0.00     0.003 C 
HETATM   19  C29 UNL     1      -5.807 -16.182   6.710  1.00  0.00     0.007 C 
HETATM   20  C30 UNL     1      -5.640 -17.118   7.838  1.00  0.00     0.015 C 
HETATM   21  C31 UNL     1      -6.815 -17.605   8.579  1.00  0.00    -0.013 C 
HETATM   22  C32 UNL     1      -7.228 -18.947   8.012  1.00  0.00     0.021 C 
ENDROOT
BRANCH   1  23
HETATM   23  C10 UNL     1      -4.382 -18.589  10.417  1.00  0.00     0.033 C 
BRANCH  23  24
HETATM   24  C9  UNL     1      -3.364 -18.134  11.473  1.00  0.00     0.054 C 
BRANCH  24  25
HETATM   25  C8  UNL     1      -2.699 -16.884  10.921  1.00  0.00     0.008 C 
HETATM   26  C7  UNL     1      -3.389 -15.819  10.703  1.00  0.00    -0.003 C 
HETATM   27 CL1  UNL     1      -0.996 -17.022  10.626  1.00  0.00    -0.089 Cl
BRANCH  26  28
HETATM   28  C6  UNL     1      -3.022 -14.504  10.187  1.00  0.00     0.011 C 
BRANCH  28  29
HETATM   29  C5  UNL     1      -3.280 -14.431   8.674  1.00  0.00     0.009 C 
BRANCH  29  30
HETATM   30  C4  UNL     1      -2.044 -14.821   7.941  1.00  0.00     0.006 C 
BRANCH  30  31
HETATM   31  C3  UNL     1      -2.202 -16.197   7.276  1.00  0.00     0.073 C 
BRANCH  31  32
HETATM   32  C2  UNL     1      -2.050 -15.972   5.787  1.00  0.00     0.199 C 
HETATM   33  C1  UNL     1      -2.506 -17.220   5.060  1.00  0.00     0.084 C 
HETATM   34  F1  UNL     1      -2.858 -14.933   5.404  1.00  0.00    -0.212 F 
BRANCH  32  35
HETATM   35  O1  UNL     1      -0.737 -15.649   5.476  1.00  0.00    -0.362 OA
ATOM     36  H1  UNL     1      -0.265 -15.326   6.236  1.00  0.00     0.213 HD
ENDBRANCH  32  35
ENDBRANCH  31  32
ENDBRANCH  30  31
ENDBRANCH  29  30
ENDBRANCH  28  29
BRANCH  28  37
HETATM   37  C33 UNL     1      -3.687 -13.338  10.875  1.00  0.00     0.034 C 
BRANCH  37  38
HETATM   38  C34 UNL     1      -2.753 -12.131  10.874  1.00  0.00     0.164 C 
BRANCH  38  39
HETATM   39  O4  UNL     1      -2.387 -11.731  12.142  1.00  0.00    -0.401 OA
ATOM     40  H4  UNL     1      -1.638 -12.206  12.480  1.00  0.00     0.209 HD
ENDBRANCH  38  39
ENDBRANCH  37  38
ENDBRANCH  28  37
ENDBRANCH  26  28
ENDBRANCH  24  25
ENDBRANCH  23  24
ENDBRANCH   1  23
BRANCH   4  41
HETATM   41  C15 UNL     1     -10.010 -16.066   9.832  1.00  0.00     0.169 C 
BRANCH  41  42
HETATM   42  O2  UNL     1     -10.531 -16.458  11.090  1.00  0.00    -0.400 OA
ATOM     43  H2  UNL     1     -11.265 -15.903  11.328  1.00  0.00     0.209 HD
ENDBRANCH  41  42
ENDBRANCH   4  41
TORSDOF 14
ENDMDL
MODEL 3
REMARK VINA RESULT: -7.892362587      2.787      4.412
REMARK  14 active torsions:
REMARK  status: ('A' for Active; 'I' for Inactive)
REMARK    1  A    between atoms: C2_2  and  O1_3 
REMARK    2  A    between atoms: C2_2  and  C3_6 
REMARK    3  A    between atoms: C3_6  and  C4_7 
REMARK    4  A    between atoms: C4_7  and  C5_8 
REMARK    5  A    between atoms: C5_8  and  C6_9 
REMARK    6  A    between atoms: C6_9  and  C7_10 
REMARK    7  A    between atoms: C6_9  and  C33_40 
REMARK    8  A    between atoms: C8_11  and  C9_13 
REMARK    9  A    between atoms: C9_13  and  C10_14 
REMARK   10  A    between atoms: C10_14  and  C11_15 
REMARK   11  A    between atoms: C14_18  and  C15_19 
REMARK   12  A    between atoms: C15_19  and  O2_20 
REMARK   13  A    between atoms: C33_40  and  C34_41 
REMARK   14  A    between atoms: C34_41  and  O4_42 
ROOT
HETATM    1  C11 UNL     1      -5.255 -18.869   9.644  1.00  0.00    -0.023 C 
HETATM    2  C12 UNL     1      -6.299 -18.459   8.978  1.00  0.00    -0.074 C 
HETATM    3  C13 UNL     1      -7.653 -18.353   9.608  1.00  0.00     0.042 C 
HETATM    4  C14 UNL     1      -8.599 -17.887   8.489  1.00  0.00     0.023 C 
HETATM    5  C16 UNL     1      -7.671 -17.129   7.646  1.00  0.00    -0.023 C 
HETATM    6  C17 UNL     1      -7.284 -15.877   8.366  1.00  0.00     0.017 C 
HETATM    7  C18 UNL     1      -8.026 -16.945   6.196  1.00  0.00     0.004 C 
HETATM    8  C19 UNL     1      -9.431 -16.531   5.959  1.00  0.00     0.033 C 
HETATM    9  C20 UNL     1      -9.642 -16.283   4.512  1.00  0.00    -0.022 C 
HETATM   10  C21 UNL     1      -8.652 -15.998   3.696  1.00  0.00    -0.068 C 
HETATM   11  C22 UNL     1      -8.962 -15.765   2.260  1.00  0.00     0.113 C 
HETATM   12  C23 UNL     1      -7.863 -16.330   1.431  1.00  0.00     0.130 C 
HETATM   13  O3  UNL     1      -7.751 -15.955   0.271  1.00  0.00    -0.298 OA
HETATM   14  C24 UNL     1      -6.973 -17.315   2.058  1.00  0.00     0.079 C 
HETATM   15  C25 UNL     1      -6.350 -16.826   3.352  1.00  0.00     0.021 C 
HETATM   16  C26 UNL     1      -7.239 -15.890   4.124  1.00  0.00    -0.016 C 
HETATM   17  C27 UNL     1      -6.820 -14.465   3.680  1.00  0.00     0.020 C 
HETATM   18  C28 UNL     1      -7.061 -15.975   5.625  1.00  0.00     0.003 C 
HETATM   19  C29 UNL     1      -5.639 -16.199   6.016  1.00  0.00     0.007 C 
HETATM   20  C30 UNL     1      -5.340 -17.296   6.956  1.00  0.00     0.015 C 
HETATM   21  C31 UNL     1      -6.434 -18.047   7.593  1.00  0.00    -0.013 C 
HETATM   22  C32 UNL     1      -6.696 -19.304   6.790  1.00  0.00     0.021 C 
ENDROOT
BRANCH   1  23
HETATM   23  C10 UNL     1      -3.866 -19.047   9.228  1.00  0.00     0.033 C 
BRANCH  23  24
HETATM   24  C9  UNL     1      -2.905 -18.250  10.120  1.00  0.00     0.054 C 
BRANCH  24  25
HETATM   25  C8  UNL     1      -3.074 -16.788   9.741  1.00  0.00     0.008 C 
HETATM   26  C7  UNL     1      -2.351 -16.266   8.812  1.00  0.00    -0.003 C 
HETATM   27 CL1  UNL     1      -4.280 -15.926  10.640  1.00  0.00    -0.089 Cl
BRANCH  26  28
HETATM   28  C6  UNL     1      -2.298 -14.919   8.253  1.00  0.00     0.011 C 
BRANCH  28  29
HETATM   29  C5  UNL     1      -1.123 -14.135   8.856  1.00  0.00     0.009 C 
BRANCH  29  30
HETATM   30  C4  UNL     1      -1.481 -13.682  10.229  1.00  0.00     0.006 C 
BRANCH  30  31
HETATM   31  C3  UNL     1      -0.874 -12.305  10.537  1.00  0.00     0.073 C 
BRANCH  31  32
HETATM   32  C2  UNL     1      -1.953 -11.510  11.243  1.00  0.00     0.199 C 
HETATM   33  C1  UNL     1      -3.276 -12.227  11.067  1.00  0.00     0.084 C 
HETATM   34  F1  UNL     1      -1.669 -11.458  12.583  1.00  0.00    -0.212 F 
BRANCH  32  35
HETATM   35  O1  UNL     1      -2.002 -10.215  10.750  1.00  0.00    -0.362 OA
ATOM     36  H1  UNL     1      -2.894  -9.892  10.697  1.00  0.00     0.213 HD
ENDBRANCH  32  35
ENDBRANCH  31  32
ENDBRANCH  30  31
ENDBRANCH  29  30
ENDBRANCH  28  29
BRANCH  28  37
HETATM   37  C33 UNL     1      -2.237 -14.852   6.748  1.00  0.00     0.034 C 
BRANCH  37  38
HETATM   38  C34 UNL     1      -1.894 -16.226   6.180  1.00  0.00     0.164 C 
BRANCH  38  39
HETATM   39  O4  UNL     1      -0.578 -16.332   5.782  1.00  0.00    -0.401 OA
ATOM     40  H4  UNL     1      -0.038 -16.805   6.404  1.00  0.00     0.209 HD
ENDBRANCH  38  39
ENDBRANCH  37  38
ENDBRANCH  28  37
ENDBRANCH  26  28
ENDBRANCH  24  25
ENDBRANCH  23  24
ENDBRANCH   1  23
BRANCH   4  41
HETATM   41  C15 UNL     1      -9.764 -17.155   9.097  1.00  0.00     0.169 C 
BRANCH  41  42
HETATM   42  O2  UNL     1     -10.091 -17.716  10.356  1.00  0.00    -0.400 OA
ATOM     43  H2  UNL     1     -10.972 -17.466  10.608  1.00  0.00     0.209 HD
ENDBRANCH  41  42
ENDBRANCH   4  41
TORSDOF 14
ENDMDL
MODEL 4
REMARK VINA RESULT: -7.691524081      2.992      6.479
REMARK  14 active torsions:
REMARK  status: ('A' for Active; 'I' for Inactive)
REMARK    1  A    between atoms: C2_2  and  O1_3 
REMARK    2  A    between atoms: C2_2  and  C3_6 
REMARK    3  A    between atoms: C3_6  and  C4_7 
REMARK    4  A    between atoms: C4_7  and  C5_8 
REMARK    5  A    between atoms: C5_8  and  C6_9 
REMARK    6  A    between atoms: C6_9  and  C7_10 
REMARK    7  A    between atoms: C6_9  and  C33_40 
REMARK    8  A    between atoms: C8_11  and  C9_13 
REMARK    9  A    between atoms: C9_13  and  C10_14 
REMARK   10  A    between atoms: C10_14  and  C11_15 
REMARK   11  A    between atoms: C14_18  and  C15_19 
REMARK   12  A    between atoms: C15_19  and  O2_20 
REMARK   13  A    between atoms: C33_40  and  C34_41 
REMARK   14  A    between atoms: C34_41  and  O4_42 
ROOT
HETATM    1  C11 UNL     1      -3.508 -17.771   9.525  1.00  0.00    -0.023 C 
HETATM    2  C12 UNL     1      -3.783 -17.128   8.424  1.00  0.00    -0.074 C 
HETATM    3  C13 UNL     1      -2.789 -16.228   7.759  1.00  0.00     0.042 C 
HETATM    4  C14 UNL     1      -3.512 -15.635   6.538  1.00  0.00     0.023 C 
HETATM    5  C16 UNL     1      -4.457 -16.713   6.233  1.00  0.00    -0.023 C 
HETATM    6  C17 UNL     1      -3.694 -17.882   5.697  1.00  0.00     0.017 C 
HETATM    7  C18 UNL     1      -5.703 -16.361   5.468  1.00  0.00     0.004 C 
HETATM    8  C19 UNL     1      -5.469 -15.497   4.284  1.00  0.00     0.033 C 
HETATM    9  C20 UNL     1      -6.743 -15.298   3.552  1.00  0.00    -0.022 C 
HETATM   10  C21 UNL     1      -7.752 -16.134   3.654  1.00  0.00    -0.068 C 
HETATM   11  C22 UNL     1      -8.990 -15.849   2.881  1.00  0.00     0.113 C 
HETATM   12  C23 UNL     1     -10.171 -16.242   3.696  1.00  0.00     0.130 C 
HETATM   13  O3  UNL     1     -11.244 -16.409   3.132  1.00  0.00    -0.298 OA
HETATM   14  C24 UNL     1      -9.976 -16.405   5.142  1.00  0.00     0.079 C 
HETATM   15  C25 UNL     1      -8.851 -17.360   5.495  1.00  0.00     0.021 C 
HETATM   16  C26 UNL     1      -7.728 -17.352   4.496  1.00  0.00    -0.016 C 
HETATM   17  C27 UNL     1      -8.050 -18.499   3.504  1.00  0.00     0.020 C 
HETATM   18  C28 UNL     1      -6.368 -17.634   5.099  1.00  0.00     0.003 C 
HETATM   19  C29 UNL     1      -6.432 -18.649   6.190  1.00  0.00     0.007 C 
HETATM   20  C30 UNL     1      -5.793 -18.326   7.480  1.00  0.00     0.015 C 
HETATM   21  C31 UNL     1      -4.994 -17.097   7.625  1.00  0.00    -0.013 C 
HETATM   22  C32 UNL     1      -5.872 -16.012   8.213  1.00  0.00     0.021 C 
ENDROOT
BRANCH   1  23
HETATM   23  C10 UNL     1      -4.320 -18.684  10.327  1.00  0.00     0.033 C 
BRANCH  23  24
HETATM   24  C9  UNL     1      -4.842 -18.002  11.599  1.00  0.00     0.054 C 
BRANCH  24  25
HETATM   25  C8  UNL     1      -6.294 -17.641  11.332  1.00  0.00     0.008 C 
HETATM   26  C7  UNL     1      -7.105 -18.513  10.841  1.00  0.00    -0.003 C 
HETATM   27 CL1  UNL     1      -6.738 -16.013  11.733  1.00  0.00    -0.089 Cl
BRANCH  26  28
HETATM   28  C6  UNL     1      -8.519 -18.445  10.489  1.00  0.00     0.011 C 
BRANCH  28  29
HETATM   29  C5  UNL     1      -8.725 -17.528   9.273  1.00  0.00     0.009 C 
BRANCH  29  30
HETATM   30  C4  UNL     1      -9.858 -16.600   9.539  1.00  0.00     0.006 C 
BRANCH  30  31
HETATM   31  C3  UNL     1      -9.375 -15.146   9.644  1.00  0.00     0.073 C 
BRANCH  31  32
HETATM   32  C2  UNL     1     -10.040 -14.391   8.512  1.00  0.00     0.199 C 
HETATM   33  C1  UNL     1      -8.970 -13.926   7.546  1.00  0.00     0.084 C 
HETATM   34  F1  UNL     1     -10.883 -15.239   7.841  1.00  0.00    -0.212 F 
BRANCH  32  35
HETATM   35  O1  UNL     1     -10.781 -13.329   9.007  1.00  0.00    -0.362 OA
ATOM     36  H1  UNL     1     -11.385 -13.608   9.686  1.00  0.00     0.213 HD
ENDBRANCH  32  35
ENDBRANCH  31  32
ENDBRANCH  30  31
ENDBRANCH  29  30
ENDBRANCH  28  29
BRANCH  28  37
HETATM   37  C33 UNL     1      -9.181 -19.777  10.241  1.00  0.00     0.034 C 
BRANCH  37  38
HETATM   38  C34 UNL     1     -10.096 -20.129  11.410  1.00  0.00     0.164 C 
BRANCH  38  39
HETATM   39  O4  UNL     1     -10.566 -19.020  12.080  1.00  0.00    -0.401 OA
ATOM     40  H4  UNL     1     -11.427 -18.746  11.788  1.00  0.00     0.209 HD
ENDBRANCH  38  39
ENDBRANCH  37  38
ENDBRANCH  28  37
ENDBRANCH  26  28
ENDBRANCH  24  25
ENDBRANCH  23  24
ENDBRANCH   1  23
BRANCH   4  41
HETATM   41  C15 UNL     1      -2.498 -15.265   5.492  1.00  0.00     0.169 C 
BRANCH  41  42
HETATM   42  O2  UNL     1      -1.190 -15.324   6.035  1.00  0.00    -0.400 OA
ATOM     43  H2  UNL     1      -1.073 -14.640   6.683  1.00  0.00     0.209 HD
ENDBRANCH  41  42
ENDBRANCH   4  41
TORSDOF 14
ENDMDL
MODEL 5
REMARK VINA RESULT: -7.656968952      1.511      1.626
REMARK  14 active torsions:
REMARK  status: ('A' for Active; 'I' for Inactive)
REMARK    1  A    between atoms: C2_2  and  O1_3 
REMARK    2  A    between atoms: C2_2  and  C3_6 
REMARK    3  A    between atoms: C3_6  and  C4_7 
REMARK    4  A    between atoms: C4_7  and  C5_8 
REMARK    5  A    between atoms: C5_8  and  C6_9 
REMARK    6  A    between atoms: C6_9  and  C7_10 
REMARK    7  A    between atoms: C6_9  and  C33_40 
REMARK    8  A    between atoms: C8_11  and  C9_13 
REMARK    9  A    between atoms: C9_13  and  C10_14 
REMARK   10  A    between atoms: C10_14  and  C11_15 
REMARK   11  A    between atoms: C14_18  and  C15_19 
REMARK   12  A    between atoms: C15_19  and  O2_20 
REMARK   13  A    between atoms: C33_40  and  C34_41 
REMARK   14  A    between atoms: C34_41  and  O4_42 
ROOT
HETATM    1  C11 UNL     1      -6.108 -14.262  10.750  1.00  0.00    -0.023 C 
HETATM    2  C12 UNL     1      -6.850 -15.276  10.401  1.00  0.00    -0.074 C 
HETATM    3  C13 UNL     1      -7.507 -16.166  11.410  1.00  0.00     0.042 C 
HETATM    4  C14 UNL     1      -8.237 -17.249  10.599  1.00  0.00     0.023 C 
HETATM    5  C16 UNL     1      -8.529 -16.515   9.365  1.00  0.00    -0.023 C 
HETATM    6  C17 UNL     1      -9.573 -15.485   9.656  1.00  0.00     0.017 C 
HETATM    7  C18 UNL     1      -8.752 -17.310   8.108  1.00  0.00     0.004 C 
HETATM    8  C19 UNL     1      -9.662 -18.471   8.273  1.00  0.00     0.033 C 
HETATM    9  C20 UNL     1      -9.889 -19.119   6.959  1.00  0.00    -0.022 C 
HETATM   10  C21 UNL     1      -9.722 -18.482   5.823  1.00  0.00    -0.068 C 
HETATM   11  C22 UNL     1      -9.974 -19.216   4.554  1.00  0.00     0.113 C 
HETATM   12  C23 UNL     1      -8.982 -18.777   3.535  1.00  0.00     0.130 C 
HETATM   13  O3  UNL     1      -9.219 -18.995   2.354  1.00  0.00    -0.298 OA
HETATM   14  C24 UNL     1      -7.768 -18.104   4.013  1.00  0.00     0.079 C 
HETATM   15  C25 UNL     1      -8.052 -16.910   4.905  1.00  0.00     0.021 C 
HETATM   16  C26 UNL     1      -9.301 -17.066   5.728  1.00  0.00    -0.016 C 
HETATM   17  C27 UNL     1     -10.426 -16.394   4.900  1.00  0.00     0.020 C 
HETATM   18  C28 UNL     1      -9.241 -16.370   7.072  1.00  0.00     0.003 C 
HETATM   19  C29 UNL     1      -8.508 -15.072   7.005  1.00  0.00     0.007 C 
HETATM   20  C30 UNL     1      -7.436 -14.827   7.988  1.00  0.00     0.015 C 
HETATM   21  C31 UNL     1      -7.203 -15.780   9.087  1.00  0.00    -0.013 C 
HETATM   22  C32 UNL     1      -6.101 -16.735   8.679  1.00  0.00     0.021 C 
ENDROOT
BRANCH   1  23
HETATM   23  C10 UNL     1      -5.384 -13.284   9.941  1.00  0.00     0.033 C 
BRANCH  23  24
HETATM   24  C9  UNL     1      -4.686 -12.234  10.817  1.00  0.00     0.054 C 
BRANCH  24  25
HETATM   25  C8  UNL     1      -3.206 -12.578  10.809  1.00  0.00     0.008 C 
HETATM   26  C7  UNL     1      -2.768 -13.561  10.101  1.00  0.00    -0.003 C 
HETATM   27 CL1  UNL     1      -2.206 -11.568  11.801  1.00  0.00    -0.089 Cl
BRANCH  26  28
HETATM   28  C6  UNL     1      -1.428 -14.107   9.908  1.00  0.00     0.011 C 
BRANCH  28  29
HETATM   29  C5  UNL     1      -1.484 -15.363   9.025  1.00  0.00     0.009 C 
BRANCH  29  30
HETATM   30  C4  UNL     1      -2.643 -15.264   8.095  1.00  0.00     0.006 C 
BRANCH  30  31
HETATM   31  C3  UNL     1      -2.599 -16.372   7.031  1.00  0.00     0.073 C 
BRANCH  31  32
HETATM   32  C2  UNL     1      -2.156 -15.710   5.743  1.00  0.00     0.199 C 
HETATM   33  C1  UNL     1      -2.816 -16.423   4.581  1.00  0.00     0.084 C 
HETATM   34  F1  UNL     1      -2.578 -14.406   5.740  1.00  0.00    -0.212 F 
BRANCH  32  35
HETATM   35  O1  UNL     1      -0.773 -15.729   5.638  1.00  0.00    -0.362 OA
ATOM     36  H1  UNL     1      -0.488 -15.660   4.734  1.00  0.00     0.213 HD
ENDBRANCH  32  35
ENDBRANCH  31  32
ENDBRANCH  30  31
ENDBRANCH  29  30
ENDBRANCH  28  29
BRANCH  28  37
HETATM   37  C33 UNL     1      -0.416 -13.137   9.351  1.00  0.00     0.034 C 
BRANCH  37  38
HETATM   38  C34 UNL     1       0.739 -12.969  10.333  1.00  0.00     0.164 C 
BRANCH  38  39
HETATM   39  O4  UNL     1       0.898 -11.668  10.762  1.00  0.00    -0.401 OA
ATOM     40  H4  UNL     1       1.570 -11.576  11.427  1.00  0.00     0.209 HD
ENDBRANCH  38  39
ENDBRANCH  37  38
ENDBRANCH  28  37
ENDBRANCH  26  28
ENDBRANCH  24  25
ENDBRANCH  23  24
ENDBRANCH   1  23
BRANCH   4  41
HETATM   41  C15 UNL     1      -9.395 -17.774  11.402  1.00  0.00     0.169 C 
BRANCH  41  42
HETATM   42  O2  UNL     1      -9.512 -17.058  12.619  1.00  0.00    -0.400 OA
ATOM     43  H2  UNL     1     -10.320 -17.291  13.060  1.00  0.00     0.209 HD
ENDBRANCH  41  42
ENDBRANCH   4  41
TORSDOF 14
ENDMDL
