MODEL 1
REMARK VINA RESULT: -6.718882191      0.000      0.000
REMARK  21 active torsions:
REMARK  status: ('A' for Active; 'I' for Inactive)
REMARK    1  A    between atoms: C2_2  and  C3_3 
REMARK    2  A    between atoms: C3_3  and  C4_4 
REMARK    3  A    between atoms: C4_4  and  O1_5 
REMARK    4  A    between atoms: O1_5  and  C5_6 
REMARK       I    between atoms: C5_6  and  N1_8 
REMARK    5  A    between atoms: N1_8  and  C6_10 
REMARK    6  A    between atoms: C6_10  and  C7_11 
REMARK    7  A    between atoms: C7_11  and  C8_12 
REMARK    8  A    between atoms: C8_12  and  C9_13 
REMARK    9  A    between atoms: C9_13  and  C10_14 
REMARK   10  A    between atoms: C10_14  and  C11_15 
REMARK   11  A    between atoms: C11_15  and  C12_16 
REMARK   12  A    between atoms: C12_16  and  N2_17 
REMARK       I    between atoms: N2_17  and  C13_19 
REMARK   13  A    between atoms: C13_19  and  C14_21 
REMARK   14  A    between atoms: C19_28  and  C20_29 
REMARK   15  A    between atoms: C20_29  and  O4_30 
REMARK   16  A    between atoms: C20_29  and  N4_32 
REMARK   17  A    between atoms: N4_32  and  N5_34 
REMARK   18  A    between atoms: N5_34  and  C21_36 
REMARK   19  A    between atoms: C21_36  and  N6_38 
REMARK       I    between atoms: N6_38  and  C22_40 
REMARK   20  A    between atoms: C22_40  and  C23_42 
REMARK   21  A    between atoms: C27_46  and  C28_47 
ROOT
HETATM    1  C14 UNL     1      19.696  24.596  15.012  1.00  0.00     0.042 C 
HETATM    2  C15 UNL     1      20.793  24.340  14.041  1.00  0.00     0.018 C 
HETATM    3  C16 UNL     1      22.176  23.973  14.483  1.00  0.00     0.069 C 
HETATM    4  N3  UNL     1      20.526  24.417  12.810  1.00  0.00    -0.362 N 
ATOM      5  H3  UNL     1      21.265  24.225  12.133  1.00  0.00     0.165 HD
HETATM    6  C17 UNL     1      19.240  24.759  12.337  1.00  0.00     0.017 C 
HETATM    7  C18 UNL     1      19.108  24.755  10.841  1.00  0.00     0.069 C 
HETATM    8  C19 UNL     1      18.227  25.068  13.115  1.00  0.00     0.027 C 
HETATM    9  C27 UNL     1      18.649  25.505  14.540  1.00  0.00     0.088 C 
ENDROOT
BRANCH   1  10
HETATM   10  C13 UNL     1      20.238  24.732  16.360  1.00  0.00     0.250 C 
HETATM   11  N2  UNL     1      19.824  23.907  17.467  1.00  0.00    -0.357 N 
ATOM     12  H2  UNL     1      19.113  23.194  17.307  1.00  0.00     0.162 HD
HETATM   13  O3  UNL     1      21.115  25.586  16.670  1.00  0.00    -0.268 OA
BRANCH  11  14
HETATM   14  C12 UNL     1      20.367  24.049  18.775  1.00  0.00     0.123 C 
BRANCH  14  15
HETATM   15  C11 UNL     1      19.410  24.137  19.898  1.00  0.00     0.020 C 
BRANCH  15  16
HETATM   16  C10 UNL     1      19.313  25.547  20.406  1.00  0.00     0.002 C 
BRANCH  16  17
HETATM   17  C9  UNL     1      18.118  26.240  19.820  1.00  0.00     0.000 C 
BRANCH  17  18
HETATM   18  C8  UNL     1      17.022  25.283  19.496  1.00  0.00     0.002 C 
BRANCH  18  19
HETATM   19  C7  UNL     1      15.683  25.988  19.321  1.00  0.00     0.020 C 
BRANCH  19  20
HETATM   20  C6  UNL     1      15.418  26.270  17.863  1.00  0.00     0.125 C 
BRANCH  20  21
HETATM   21  N1  UNL     1      15.935  25.215  17.037  1.00  0.00    -0.337 N 
HETATM   22  C5  UNL     1      15.047  24.194  16.544  1.00  0.00     0.360 C 
HETATM   23  O2  UNL     1      13.827  24.267  16.853  1.00  0.00    -0.239 OA
ATOM     24  H1  UNL     1      16.927  25.189  16.801  1.00  0.00     0.164 HD
BRANCH  22  25
HETATM   25  O1  UNL     1      15.547  23.188  15.766  1.00  0.00    -0.304 OA
BRANCH  25  26
HETATM   26  C4  UNL     1      16.783  22.589  15.995  1.00  0.00     0.180 C 
BRANCH  26  27
HETATM   27  C3  UNL     1      16.715  21.387  16.869  1.00  0.00     0.026 C 
BRANCH  27  28
HETATM   28  C2  UNL     1      16.353  20.173  16.016  1.00  0.00    -0.002 C 
HETATM   29  C1  UNL     1      17.056  18.948  16.527  1.00  0.00     0.005 C 
ENDBRANCH  27  28
ENDBRANCH  26  27
ENDBRANCH  25  26
ENDBRANCH  22  25
ENDBRANCH  20  21
ENDBRANCH  19  20
ENDBRANCH  18  19
ENDBRANCH  17  18
ENDBRANCH  16  17
ENDBRANCH  15  16
ENDBRANCH  14  15
ENDBRANCH  11  14
ENDBRANCH   1  10
BRANCH   9  30
HETATM   30  C28 UNL     1      18.978  26.945  14.632  1.00  0.00     0.042 C 
HETATM   31  C29 UNL     1      18.103  27.861  13.837  1.00  0.00     0.033 C 
HETATM   32  C30 UNL     1      20.397  27.351  14.317  1.00  0.00     0.033 C 
HETATM   33 CL1  UNL     1      18.592  27.466  16.338  1.00  0.00    -0.119 Cl
ENDBRANCH   9  30
BRANCH   8  34
HETATM   34  C20 UNL     1      16.921  25.364  12.661  1.00  0.00     0.164 C 
BRANCH  34  35
HETATM   35  O4  UNL     1      16.006  24.554  13.171  1.00  0.00    -0.345 OA
ATOM     36  H4  UNL     1      15.608  24.900  13.961  1.00  0.00     0.219 HD
ENDBRANCH  34  35
BRANCH  34  37
HETATM   37  N4  UNL     1      16.322  26.279  11.820  1.00  0.00    -0.277 N 
ATOM     38  H4  UNL     1      16.733  26.434  10.899  1.00  0.00     0.189 HD
BRANCH  37  39
HETATM   39  N5  UNL     1      15.159  27.018  12.176  1.00  0.00    -0.274 N 
ATOM     40  H5  UNL     1      14.679  26.786  13.046  1.00  0.00     0.189 HD
BRANCH  39  41
HETATM   41  C21 UNL     1      14.647  28.053  11.378  1.00  0.00     0.193 C 
HETATM   42  S1  UNL     1      15.143  29.572  11.704  1.00  0.00    -0.039 SA
BRANCH  41  43
HETATM   43  N6  UNL     1      13.736  27.853  10.319  1.00  0.00    -0.302 N 
HETATM   44  C22 UNL     1      12.559  27.084  10.436  1.00  0.00     0.231 C 
HETATM   45  O5  UNL     1      12.282  26.544  11.522  1.00  0.00    -0.272 OA
ATOM     46  H6  UNL     1      13.939  28.289   9.420  1.00  0.00     0.171 HD
BRANCH  44  47
HETATM   47  C23 UNL     1      11.617  26.877   9.310  1.00  0.00     0.030 C 
HETATM   48  C24 UNL     1      10.237  27.369   9.679  1.00  0.00     0.025 C 
HETATM   49  C25 UNL     1      12.112  27.549   8.045  1.00  0.00     0.025 C 
HETATM   50  C26 UNL     1      11.486  25.404   8.984  1.00  0.00     0.025 C 
ENDBRANCH  44  47
ENDBRANCH  41  43
ENDBRANCH  39  41
ENDBRANCH  37  39
ENDBRANCH  34  37
ENDBRANCH   8  34
TORSDOF 21
ENDMDL
MODEL 2
REMARK VINA RESULT: -6.500017245      3.790      8.075
REMARK  21 active torsions:
REMARK  status: ('A' for Active; 'I' for Inactive)
REMARK    1  A    between atoms: C2_2  and  C3_3 
REMARK    2  A    between atoms: C3_3  and  C4_4 
REMARK    3  A    between atoms: C4_4  and  O1_5 
REMARK    4  A    between atoms: O1_5  and  C5_6 
REMARK       I    between atoms: C5_6  and  N1_8 
REMARK    5  A    between atoms: N1_8  and  C6_10 
REMARK    6  A    between atoms: C6_10  and  C7_11 
REMARK    7  A    between atoms: C7_11  and  C8_12 
REMARK    8  A    between atoms: C8_12  and  C9_13 
REMARK    9  A    between atoms: C9_13  and  C10_14 
REMARK   10  A    between atoms: C10_14  and  C11_15 
REMARK   11  A    between atoms: C11_15  and  C12_16 
REMARK   12  A    between atoms: C12_16  and  N2_17 
REMARK       I    between atoms: N2_17  and  C13_19 
REMARK   13  A    between atoms: C13_19  and  C14_21 
REMARK   14  A    between atoms: C19_28  and  C20_29 
REMARK   15  A    between atoms: C20_29  and  O4_30 
REMARK   16  A    between atoms: C20_29  and  N4_32 
REMARK   17  A    between atoms: N4_32  and  N5_34 
REMARK   18  A    between atoms: N5_34  and  C21_36 
REMARK   19  A    between atoms: C21_36  and  N6_38 
REMARK       I    between atoms: N6_38  and  C22_40 
REMARK   20  A    between atoms: C22_40  and  C23_42 
REMARK   21  A    between atoms: C27_46  and  C28_47 
ROOT
HETATM    1  C14 UNL     1      17.838  22.753  13.560  1.00  0.00     0.042 C 
HETATM    2  C15 UNL     1      16.762  23.746  13.822  1.00  0.00     0.018 C 
HETATM    3  C16 UNL     1      15.317  23.429  13.596  1.00  0.00     0.069 C 
HETATM    4  N3  UNL     1      17.096  24.877  14.270  1.00  0.00    -0.362 N 
ATOM      5  H3  UNL     1      16.366  25.561  14.472  1.00  0.00     0.165 HD
HETATM    6  C17 UNL     1      18.444  25.230  14.502  1.00  0.00     0.017 C 
HETATM    7  C18 UNL     1      18.636  26.604  15.077  1.00  0.00     0.069 C 
HETATM    8  C19 UNL     1      19.466  24.448  14.238  1.00  0.00     0.027 C 
HETATM    9  C27 UNL     1      19.142  23.326  13.218  1.00  0.00     0.088 C 
ENDROOT
BRANCH   1  10
HETATM   10  C13 UNL     1      17.308  21.624  12.803  1.00  0.00     0.250 C 
HETATM   11  N2  UNL     1      16.021  21.031  13.060  1.00  0.00    -0.357 N 
ATOM     12  H2  UNL     1      15.447  21.413  13.813  1.00  0.00     0.162 HD
HETATM   13  O3  UNL     1      17.937  21.070  11.858  1.00  0.00    -0.268 OA
BRANCH  11  14
HETATM   14  C12 UNL     1      15.516  19.933  12.308  1.00  0.00     0.123 C 
BRANCH  14  15
HETATM   15  C11 UNL     1      15.604  18.594  12.925  1.00  0.00     0.020 C 
BRANCH  15  16
HETATM   16  C10 UNL     1      15.256  18.655  14.384  1.00  0.00     0.002 C 
BRANCH  16  17
HETATM   17  C9  UNL     1      16.310  17.974  15.209  1.00  0.00     0.000 C 
BRANCH  17  18
HETATM   18  C8  UNL     1      16.773  18.829  16.338  1.00  0.00     0.002 C 
BRANCH  18  19
HETATM   19  C7  UNL     1      16.377  20.288  16.147  1.00  0.00     0.020 C 
BRANCH  19  20
HETATM   20  C6  UNL     1      16.415  21.026  17.462  1.00  0.00     0.125 C 
BRANCH  20  21
HETATM   21  N1  UNL     1      16.915  22.361  17.283  1.00  0.00    -0.337 N 
HETATM   22  C5  UNL     1      16.062  23.486  17.567  1.00  0.00     0.360 C 
HETATM   23  O2  UNL     1      14.891  23.257  17.975  1.00  0.00    -0.239 OA
ATOM     24  H1  UNL     1      17.869  22.510  16.957  1.00  0.00     0.164 HD
BRANCH  22  25
HETATM   25  O1  UNL     1      16.540  24.753  17.386  1.00  0.00    -0.304 OA
BRANCH  25  26
HETATM   26  C4  UNL     1      16.892  25.594  18.437  1.00  0.00     0.180 C 
BRANCH  26  27
HETATM   27  C3  UNL     1      17.959  25.043  19.316  1.00  0.00     0.026 C 
BRANCH  27  28
HETATM   28  C2  UNL     1      19.281  25.048  18.553  1.00  0.00    -0.002 C 
HETATM   29  C1  UNL     1      20.131  23.882  18.973  1.00  0.00     0.005 C 
ENDBRANCH  27  28
ENDBRANCH  26  27
ENDBRANCH  25  26
ENDBRANCH  22  25
ENDBRANCH  20  21
ENDBRANCH  19  20
ENDBRANCH  18  19
ENDBRANCH  17  18
ENDBRANCH  16  17
ENDBRANCH  15  16
ENDBRANCH  14  15
ENDBRANCH  11  14
ENDBRANCH   1  10
BRANCH   9  30
HETATM   30  C28 UNL     1      19.290  23.760  11.811  1.00  0.00     0.042 C 
HETATM   31  C29 UNL     1      19.593  25.211  11.609  1.00  0.00     0.033 C 
HETATM   32  C30 UNL     1      18.157  23.438  10.867  1.00  0.00     0.033 C 
HETATM   33 CL1  UNL     1      20.813  22.981  11.176  1.00  0.00    -0.119 Cl
ENDBRANCH   9  30
BRANCH   8  34
HETATM   34  C20 UNL     1      20.817  24.764  14.508  1.00  0.00     0.164 C 
BRANCH  34  35
HETATM   35  O4  UNL     1      21.212  24.346  15.700  1.00  0.00    -0.345 OA
ATOM     36  H4  UNL     1      22.135  24.123  15.724  1.00  0.00     0.219 HD
ENDBRANCH  34  35
BRANCH  34  37
HETATM   37  N4  UNL     1      21.859  25.400  13.865  1.00  0.00    -0.277 N 
ATOM     38  H4  UNL     1      21.640  26.052  13.111  1.00  0.00     0.189 HD
BRANCH  37  39
HETATM   39  N5  UNL     1      23.225  25.189  14.202  1.00  0.00    -0.274 N 
ATOM     40  H5  UNL     1      23.598  24.240  14.168  1.00  0.00     0.189 HD
BRANCH  39  41
HETATM   41  C21 UNL     1      24.080  26.237  14.580  1.00  0.00     0.193 C 
HETATM   42  S1  UNL     1      24.745  27.133  13.390  1.00  0.00    -0.039 SA
BRANCH  41  43
HETATM   43  N6  UNL     1      24.393  26.554  15.918  1.00  0.00    -0.302 N 
HETATM   44  C22 UNL     1      23.433  26.960  16.870  1.00  0.00     0.231 C 
HETATM   45  O5  UNL     1      22.237  27.047  16.539  1.00  0.00    -0.272 OA
ATOM     46  H6  UNL     1      25.367  26.487  16.216  1.00  0.00     0.171 HD
BRANCH  44  47
HETATM   47  C23 UNL     1      23.781  27.299  18.271  1.00  0.00     0.030 C 
HETATM   48  C24 UNL     1      22.760  26.721  19.222  1.00  0.00     0.025 C 
HETATM   49  C25 UNL     1      25.178  26.828  18.623  1.00  0.00     0.025 C 
HETATM   50  C26 UNL     1      23.775  28.799  18.477  1.00  0.00     0.025 C 
ENDBRANCH  44  47
ENDBRANCH  41  43
ENDBRANCH  39  41
ENDBRANCH  37  39
ENDBRANCH  34  37
ENDBRANCH   8  34
TORSDOF 21
ENDMDL
MODEL 3
REMARK VINA RESULT: -6.446584556      3.886      8.305
REMARK  21 active torsions:
REMARK  status: ('A' for Active; 'I' for Inactive)
REMARK    1  A    between atoms: C2_2  and  C3_3 
REMARK    2  A    between atoms: C3_3  and  C4_4 
REMARK    3  A    between atoms: C4_4  and  O1_5 
REMARK    4  A    between atoms: O1_5  and  C5_6 
REMARK       I    between atoms: C5_6  and  N1_8 
REMARK    5  A    between atoms: N1_8  and  C6_10 
REMARK    6  A    between atoms: C6_10  and  C7_11 
REMARK    7  A    between atoms: C7_11  and  C8_12 
REMARK    8  A    between atoms: C8_12  and  C9_13 
REMARK    9  A    between atoms: C9_13  and  C10_14 
REMARK   10  A    between atoms: C10_14  and  C11_15 
REMARK   11  A    between atoms: C11_15  and  C12_16 
REMARK   12  A    between atoms: C12_16  and  N2_17 
REMARK       I    between atoms: N2_17  and  C13_19 
REMARK   13  A    between atoms: C13_19  and  C14_21 
REMARK   14  A    between atoms: C19_28  and  C20_29 
REMARK   15  A    between atoms: C20_29  and  O4_30 
REMARK   16  A    between atoms: C20_29  and  N4_32 
REMARK   17  A    between atoms: N4_32  and  N5_34 
REMARK   18  A    between atoms: N5_34  and  C21_36 
REMARK   19  A    between atoms: C21_36  and  N6_38 
REMARK       I    between atoms: N6_38  and  C22_40 
REMARK   20  A    between atoms: C22_40  and  C23_42 
REMARK   21  A    between atoms: C27_46  and  C28_47 
ROOT
HETATM    1  C14 UNL     1      17.843  23.183  14.017  1.00  0.00     0.042 C 
HETATM    2  C15 UNL     1      17.097  24.232  14.763  1.00  0.00     0.018 C 
HETATM    3  C16 UNL     1      15.620  24.147  14.987  1.00  0.00     0.069 C 
HETATM    4  N3  UNL     1      17.751  25.203  15.232  1.00  0.00    -0.362 N 
ATOM      5  H3  UNL     1      17.254  25.920  15.762  1.00  0.00     0.165 HD
HETATM    6  C17 UNL     1      19.145  25.334  15.050  1.00  0.00     0.017 C 
HETATM    7  C18 UNL     1      19.750  26.534  15.721  1.00  0.00     0.069 C 
HETATM    8  C19 UNL     1      19.879  24.497  14.351  1.00  0.00     0.027 C 
HETATM    9  C27 UNL     1      19.061  23.644  13.347  1.00  0.00     0.088 C 
ENDROOT
BRANCH   1  10
HETATM   10  C13 UNL     1      16.912  22.297  13.325  1.00  0.00     0.250 C 
HETATM   11  N2  UNL     1      17.157  20.892  13.121  1.00  0.00    -0.357 N 
ATOM     12  H2  UNL     1      18.026  20.491  13.473  1.00  0.00     0.162 HD
HETATM   13  O3  UNL     1      15.813  22.691  12.844  1.00  0.00    -0.268 OA
BRANCH  11  14
HETATM   14  C12 UNL     1      16.235  20.042  12.449  1.00  0.00     0.123 C 
BRANCH  14  15
HETATM   15  C11 UNL     1      15.728  18.871  13.195  1.00  0.00     0.020 C 
BRANCH  15  16
HETATM   16  C10 UNL     1      15.538  19.205  14.646  1.00  0.00     0.002 C 
BRANCH  16  17
HETATM   17  C9  UNL     1      16.314  18.257  15.514  1.00  0.00     0.000 C 
BRANCH  17  18
HETATM   18  C8  UNL     1      17.040  18.967  16.604  1.00  0.00     0.002 C 
BRANCH  18  19
HETATM   19  C7  UNL     1      16.870  20.478  16.512  1.00  0.00     0.020 C 
BRANCH  19  20
HETATM   20  C6  UNL     1      16.322  21.031  17.804  1.00  0.00     0.125 C 
BRANCH  20  21
HETATM   21  N1  UNL     1      16.565  22.444  17.897  1.00  0.00    -0.337 N 
HETATM   22  C5  UNL     1      15.578  23.299  18.505  1.00  0.00     0.360 C 
HETATM   23  O2  UNL     1      14.523  22.769  18.948  1.00  0.00    -0.239 OA
ATOM     24  H1  UNL     1      17.432  22.839  17.534  1.00  0.00     0.164 HD
BRANCH  22  25
HETATM   25  O1  UNL     1      15.811  24.644  18.582  1.00  0.00    -0.304 OA
BRANCH  25  26
HETATM   26  C4  UNL     1      17.076  25.189  18.780  1.00  0.00     0.180 C 
BRANCH  26  27
HETATM   27  C3  UNL     1      17.138  26.659  18.562  1.00  0.00     0.026 C 
BRANCH  27  28
HETATM   28  C2  UNL     1      15.766  27.152  18.111  1.00  0.00    -0.002 C 
HETATM   29  C1  UNL     1      15.849  27.735  16.728  1.00  0.00     0.005 C 
ENDBRANCH  27  28
ENDBRANCH  26  27
ENDBRANCH  25  26
ENDBRANCH  22  25
ENDBRANCH  20  21
ENDBRANCH  19  20
ENDBRANCH  18  19
ENDBRANCH  17  18
ENDBRANCH  16  17
ENDBRANCH  15  16
ENDBRANCH  14  15
ENDBRANCH  11  14
ENDBRANCH   1  10
BRANCH   9  30
HETATM   30  C28 UNL     1      18.847  24.322  12.049  1.00  0.00     0.042 C 
HETATM   31  C29 UNL     1      20.038  25.030  11.484  1.00  0.00     0.033 C 
HETATM   32  C30 UNL     1      17.703  25.303  11.962  1.00  0.00     0.033 C 
HETATM   33 CL1  UNL     1      18.583  23.012  10.807  1.00  0.00    -0.119 Cl
ENDBRANCH   9  30
BRANCH   8  34
HETATM   34  C20 UNL     1      21.281  24.583  14.199  1.00  0.00     0.164 C 
BRANCH  34  35
HETATM   35  O4  UNL     1      21.841  23.413  13.938  1.00  0.00    -0.345 OA
ATOM     36  H4  UNL     1      21.396  22.689  14.363  1.00  0.00     0.219 HD
ENDBRANCH  34  35
BRANCH  34  37
HETATM   37  N4  UNL     1      22.248  25.567  14.248  1.00  0.00    -0.277 N 
ATOM     38  H4  UNL     1      21.951  26.542  14.233  1.00  0.00     0.189 HD
BRANCH  37  39
HETATM   39  N5  UNL     1      23.641  25.284  14.319  1.00  0.00    -0.274 N 
ATOM     40  H5  UNL     1      23.960  24.338  14.111  1.00  0.00     0.189 HD
BRANCH  39  41
HETATM   41  C21 UNL     1      24.593  26.257  14.663  1.00  0.00     0.193 C 
HETATM   42  S1  UNL     1      25.293  27.089  13.448  1.00  0.00    -0.039 SA
BRANCH  41  43
HETATM   43  N6  UNL     1      24.974  26.551  15.990  1.00  0.00    -0.302 N 
HETATM   44  C22 UNL     1      24.081  27.033  16.970  1.00  0.00     0.231 C 
HETATM   45  O5  UNL     1      22.885  27.213  16.678  1.00  0.00    -0.272 OA
ATOM     46  H6  UNL     1      25.948  26.408  16.255  1.00  0.00     0.171 HD
BRANCH  44  47
HETATM   47  C23 UNL     1      24.500  27.346  18.358  1.00  0.00     0.030 C 
HETATM   48  C24 UNL     1      23.378  27.055  19.326  1.00  0.00     0.025 C 
HETATM   49  C25 UNL     1      25.756  26.588  18.740  1.00  0.00     0.025 C 
HETATM   50  C26 UNL     1      24.832  28.816  18.498  1.00  0.00     0.025 C 
ENDBRANCH  44  47
ENDBRANCH  41  43
ENDBRANCH  39  41
ENDBRANCH  37  39
ENDBRANCH  34  37
ENDBRANCH   8  34
TORSDOF 21
ENDMDL
MODEL 4
REMARK VINA RESULT: -6.434673142      2.471      3.087
REMARK  21 active torsions:
REMARK  status: ('A' for Active; 'I' for Inactive)
REMARK    1  A    between atoms: C2_2  and  C3_3 
REMARK    2  A    between atoms: C3_3  and  C4_4 
REMARK    3  A    between atoms: C4_4  and  O1_5 
REMARK    4  A    between atoms: O1_5  and  C5_6 
REMARK       I    between atoms: C5_6  and  N1_8 
REMARK    5  A    between atoms: N1_8  and  C6_10 
REMARK    6  A    between atoms: C6_10  and  C7_11 
REMARK    7  A    between atoms: C7_11  and  C8_12 
REMARK    8  A    between atoms: C8_12  and  C9_13 
REMARK    9  A    between atoms: C9_13  and  C10_14 
REMARK   10  A    between atoms: C10_14  and  C11_15 
REMARK   11  A    between atoms: C11_15  and  C12_16 
REMARK   12  A    between atoms: C12_16  and  N2_17 
REMARK       I    between atoms: N2_17  and  C13_19 
REMARK   13  A    between atoms: C13_19  and  C14_21 
REMARK   14  A    between atoms: C19_28  and  C20_29 
REMARK   15  A    between atoms: C20_29  and  O4_30 
REMARK   16  A    between atoms: C20_29  and  N4_32 
REMARK   17  A    between atoms: N4_32  and  N5_34 
REMARK   18  A    between atoms: N5_34  and  C21_36 
REMARK   19  A    between atoms: C21_36  and  N6_38 
REMARK       I    between atoms: N6_38  and  C22_40 
REMARK   20  A    between atoms: C22_40  and  C23_42 
REMARK   21  A    between atoms: C27_46  and  C28_47 
ROOT
HETATM    1  C14 UNL     1      18.755  23.798  13.962  1.00  0.00     0.042 C 
HETATM    2  C15 UNL     1      19.094  22.901  12.825  1.00  0.00     0.018 C 
HETATM    3  C16 UNL     1      20.496  22.753  12.321  1.00  0.00     0.069 C 
HETATM    4  N3  UNL     1      18.162  22.236  12.297  1.00  0.00    -0.362 N 
ATOM      5  H3  UNL     1      18.384  21.602  11.528  1.00  0.00     0.165 HD
HETATM    6  C17 UNL     1      16.822  22.336  12.731  1.00  0.00     0.017 C 
HETATM    7  C18 UNL     1      15.865  21.433  12.008  1.00  0.00     0.069 C 
HETATM    8  C19 UNL     1      16.414  23.149  13.680  1.00  0.00     0.027 C 
HETATM    9  C27 UNL     1      17.388  24.324  13.952  1.00  0.00     0.088 C 
ENDROOT
BRANCH   1  10
HETATM   10  C13 UNL     1      19.881  24.677  14.264  1.00  0.00     0.250 C 
HETATM   11  N2  UNL     1      20.254  25.055  15.603  1.00  0.00    -0.357 N 
ATOM     12  H2  UNL     1      19.705  24.696  16.384  1.00  0.00     0.162 HD
HETATM   13  O3  UNL     1      20.621  25.182  13.374  1.00  0.00    -0.268 OA
BRANCH  11  14
HETATM   14  C12 UNL     1      21.358  25.909  15.880  1.00  0.00     0.123 C 
BRANCH  14  15
HETATM   15  C11 UNL     1      21.529  26.362  17.276  1.00  0.00     0.020 C 
BRANCH  15  16
HETATM   16  C10 UNL     1      20.274  26.131  18.068  1.00  0.00     0.002 C 
BRANCH  16  17
HETATM   17  C9  UNL     1      20.484  25.051  19.089  1.00  0.00     0.000 C 
BRANCH  17  18
HETATM   18  C8  UNL     1      19.366  24.065  19.094  1.00  0.00     0.002 C 
BRANCH  18  19
HETATM   19  C7  UNL     1      18.045  24.703  19.503  1.00  0.00     0.020 C 
BRANCH  19  20
HETATM   20  C6  UNL     1      17.030  24.582  18.394  1.00  0.00     0.125 C 
BRANCH  20  21
HETATM   21  N1  UNL     1      17.041  23.258  17.837  1.00  0.00    -0.337 N 
HETATM   22  C5  UNL     1      15.885  22.412  17.983  1.00  0.00     0.360 C 
HETATM   23  O2  UNL     1      14.885  22.872  18.599  1.00  0.00    -0.239 OA
ATOM     24  H1  UNL     1      17.864  22.919  17.339  1.00  0.00     0.164 HD
BRANCH  22  25
HETATM   25  O1  UNL     1      15.905  21.150  17.458  1.00  0.00    -0.304 OA
BRANCH  25  26
HETATM   26  C4  UNL     1      17.003  20.621  16.787  1.00  0.00     0.180 C 
BRANCH  26  27
HETATM   27  C3  UNL     1      16.746  19.294  16.166  1.00  0.00     0.026 C 
BRANCH  27  28
HETATM   28  C2  UNL     1      15.748  19.466  15.023  1.00  0.00    -0.002 C 
HETATM   29  C1  UNL     1      15.423  18.134  14.409  1.00  0.00     0.005 C 
ENDBRANCH  27  28
ENDBRANCH  26  27
ENDBRANCH  25  26
ENDBRANCH  22  25
ENDBRANCH  20  21
ENDBRANCH  19  20
ENDBRANCH  18  19
ENDBRANCH  17  18
ENDBRANCH  16  17
ENDBRANCH  15  16
ENDBRANCH  14  15
ENDBRANCH  11  14
ENDBRANCH   1  10
BRANCH   9  30
HETATM   30  C28 UNL     1      17.166  25.482  13.058  1.00  0.00     0.042 C 
HETATM   31  C29 UNL     1      15.737  25.863  12.835  1.00  0.00     0.033 C 
HETATM   32  C30 UNL     1      17.798  25.428  11.688  1.00  0.00     0.033 C 
HETATM   33 CL1  UNL     1      17.800  26.953  13.931  1.00  0.00    -0.119 Cl
ENDBRANCH   9  30
BRANCH   8  34
HETATM   34  C20 UNL     1      15.088  23.228  14.162  1.00  0.00     0.164 C 
BRANCH  34  35
HETATM   35  O4  UNL     1      15.028  23.528  15.450  1.00  0.00    -0.345 OA
ATOM     36  H4  UNL     1      14.566  22.871  15.958  1.00  0.00     0.219 HD
ENDBRANCH  34  35
BRANCH  34  37
HETATM   37  N4  UNL     1      13.813  23.078  13.654  1.00  0.00    -0.277 N 
ATOM     38  H4  UNL     1      13.324  22.197  13.821  1.00  0.00     0.189 HD
BRANCH  37  39
HETATM   39  N5  UNL     1      13.148  24.092  12.910  1.00  0.00    -0.274 N 
ATOM     40  H5  UNL     1      13.063  25.023  13.318  1.00  0.00     0.189 HD
BRANCH  39  41
HETATM   41  C21 UNL     1      12.605  23.860  11.636  1.00  0.00     0.193 C 
HETATM   42  S1  UNL     1      12.096  22.349  11.297  1.00  0.00    -0.039 SA
BRANCH  41  43
HETATM   43  N6  UNL     1      12.476  24.854  10.643  1.00  0.00    -0.302 N 
HETATM   44  C22 UNL     1      11.786  26.069  10.838  1.00  0.00     0.231 C 
HETATM   45  O5  UNL     1      11.256  26.306  11.938  1.00  0.00    -0.272 OA
ATOM     46  H6  UNL     1      12.906  24.686   9.733  1.00  0.00     0.171 HD
BRANCH  44  47
HETATM   47  C23 UNL     1      11.653  27.099   9.779  1.00  0.00     0.030 C 
HETATM   48  C24 UNL     1      12.789  28.090   9.862  1.00  0.00     0.025 C 
HETATM   49  C25 UNL     1      11.581  26.470   8.402  1.00  0.00     0.025 C 
HETATM   50  C26 UNL     1      10.370  27.885   9.954  1.00  0.00     0.025 C 
ENDBRANCH  44  47
ENDBRANCH  41  43
ENDBRANCH  39  41
ENDBRANCH  37  39
ENDBRANCH  34  37
ENDBRANCH   8  34
TORSDOF 21
ENDMDL
MODEL 5
REMARK VINA RESULT: -6.326512998      2.858      5.535
REMARK  21 active torsions:
REMARK  status: ('A' for Active; 'I' for Inactive)
REMARK    1  A    between atoms: C2_2  and  C3_3 
REMARK    2  A    between atoms: C3_3  and  C4_4 
REMARK    3  A    between atoms: C4_4  and  O1_5 
REMARK    4  A    between atoms: O1_5  and  C5_6 
REMARK       I    between atoms: C5_6  and  N1_8 
REMARK    5  A    between atoms: N1_8  and  C6_10 
REMARK    6  A    between atoms: C6_10  and  C7_11 
REMARK    7  A    between atoms: C7_11  and  C8_12 
REMARK    8  A    between atoms: C8_12  and  C9_13 
REMARK    9  A    between atoms: C9_13  and  C10_14 
REMARK   10  A    between atoms: C10_14  and  C11_15 
REMARK   11  A    between atoms: C11_15  and  C12_16 
REMARK   12  A    between atoms: C12_16  and  N2_17 
REMARK       I    between atoms: N2_17  and  C13_19 
REMARK   13  A    between atoms: C13_19  and  C14_21 
REMARK   14  A    between atoms: C19_28  and  C20_29 
REMARK   15  A    between atoms: C20_29  and  O4_30 
REMARK   16  A    between atoms: C20_29  and  N4_32 
REMARK   17  A    between atoms: N4_32  and  N5_34 
REMARK   18  A    between atoms: N5_34  and  C21_36 
REMARK   19  A    between atoms: C21_36  and  N6_38 
REMARK       I    between atoms: N6_38  and  C22_40 
REMARK   20  A    between atoms: C22_40  and  C23_42 
REMARK   21  A    between atoms: C27_46  and  C28_47 
ROOT
HETATM    1  C14 UNL     1      17.456  24.000  15.750  1.00  0.00     0.042 C 
HETATM    2  C15 UNL     1      18.583  24.834  16.248  1.00  0.00     0.018 C 
HETATM    3  C16 UNL     1      19.521  24.349  17.309  1.00  0.00     0.069 C 
HETATM    4  N3  UNL     1      18.751  25.972  15.732  1.00  0.00    -0.362 N 
ATOM      5  H3  UNL     1      19.531  26.547  16.050  1.00  0.00     0.165 HD
HETATM    6  C17 UNL     1      17.896  26.480  14.728  1.00  0.00     0.017 C 
HETATM    7  C18 UNL     1      18.285  27.834  14.208  1.00  0.00     0.069 C 
HETATM    8  C19 UNL     1      16.837  25.849  14.273  1.00  0.00     0.027 C 
HETATM    9  C27 UNL     1      16.310  24.751  15.231  1.00  0.00     0.088 C 
ENDROOT
BRANCH   1  10
HETATM   10  C13 UNL     1      17.249  22.855  16.631  1.00  0.00     0.250 C 
HETATM   11  N2  UNL     1      16.756  21.581  16.171  1.00  0.00    -0.357 N 
ATOM     12  H2  UNL     1      16.535  21.470  15.182  1.00  0.00     0.162 HD
HETATM   13  O3  UNL     1      17.483  22.886  17.871  1.00  0.00    -0.268 OA
BRANCH  11  14
HETATM   14  C12 UNL     1      16.566  20.472  17.042  1.00  0.00     0.123 C 
BRANCH  14  15
HETATM   15  C11 UNL     1      17.095  19.165  16.599  1.00  0.00     0.020 C 
BRANCH  15  16
HETATM   16  C10 UNL     1      16.047  18.392  15.851  1.00  0.00     0.002 C 
BRANCH  16  17
HETATM   17  C9  UNL     1      16.430  18.243  14.407  1.00  0.00     0.000 C 
BRANCH  17  18
HETATM   18  C8  UNL     1      15.336  18.678  13.493  1.00  0.00     0.002 C 
BRANCH  18  19
HETATM   19  C7  UNL     1      15.066  20.173  13.600  1.00  0.00     0.020 C 
BRANCH  19  20
HETATM   20  C6  UNL     1      15.351  20.860  12.287  1.00  0.00     0.125 C 
BRANCH  20  21
HETATM   21  N1  UNL     1      16.024  22.111  12.502  1.00  0.00    -0.337 N 
HETATM   22  C5  UNL     1      17.431  22.222  12.218  1.00  0.00     0.360 C 
HETATM   23  O2  UNL     1      18.031  21.205  11.777  1.00  0.00    -0.239 OA
ATOM     24  H1  UNL     1      15.507  22.917  12.854  1.00  0.00     0.164 HD
BRANCH  22  25
HETATM   25  O1  UNL     1      18.068  23.412  12.434  1.00  0.00    -0.304 OA
BRANCH  25  26
HETATM   26  C4  UNL     1      19.453  23.543  12.460  1.00  0.00     0.180 C 
BRANCH  26  27
HETATM   27  C3  UNL     1      19.939  24.879  12.022  1.00  0.00     0.026 C 
BRANCH  27  28
HETATM   28  C2  UNL     1      21.026  25.352  12.983  1.00  0.00    -0.002 C 
HETATM   29  C1  UNL     1      21.393  24.252  13.938  1.00  0.00     0.005 C 
ENDBRANCH  27  28
ENDBRANCH  26  27
ENDBRANCH  25  26
ENDBRANCH  22  25
ENDBRANCH  20  21
ENDBRANCH  19  20
ENDBRANCH  18  19
ENDBRANCH  17  18
ENDBRANCH  16  17
ENDBRANCH  15  16
ENDBRANCH  14  15
ENDBRANCH  11  14
ENDBRANCH   1  10
BRANCH   9  30
HETATM   30  C28 UNL     1      15.383  25.274  16.260  1.00  0.00     0.042 C 
HETATM   31  C29 UNL     1      15.468  26.745  16.519  1.00  0.00     0.033 C 
HETATM   32  C30 UNL     1      15.410  24.611  17.616  1.00  0.00     0.033 C 
HETATM   33 CL1  UNL     1      13.698  25.125  15.576  1.00  0.00    -0.119 Cl
ENDBRANCH   9  30
BRANCH   8  34
HETATM   34  C20 UNL     1      16.001  26.318  13.236  1.00  0.00     0.164 C 
BRANCH  34  35
HETATM   35  O4  UNL     1      16.316  25.811  12.054  1.00  0.00    -0.345 OA
ATOM     36  H4  UNL     1      15.872  24.990  11.876  1.00  0.00     0.219 HD
ENDBRANCH  34  35
BRANCH  34  37
HETATM   37  N4  UNL     1      14.925  27.174  13.108  1.00  0.00    -0.277 N 
ATOM     38  H4  UNL     1      13.992  26.816  13.313  1.00  0.00     0.189 HD
BRANCH  37  39
HETATM   39  N5  UNL     1      15.056  28.532  12.705  1.00  0.00    -0.274 N 
ATOM     40  H5  UNL     1      15.529  29.185  13.330  1.00  0.00     0.189 HD
BRANCH  39  41
HETATM   41  C21 UNL     1      14.561  29.008  11.480  1.00  0.00     0.193 C 
HETATM   42  S1  UNL     1      13.776  27.948  10.522  1.00  0.00    -0.039 SA
BRANCH  41  43
HETATM   43  N6  UNL     1      14.704  30.340  11.038  1.00  0.00    -0.302 N 
HETATM   44  C22 UNL     1      14.051  31.437  11.639  1.00  0.00     0.231 C 
HETATM   45  O5  UNL     1      13.306  31.250  12.617  1.00  0.00    -0.272 OA
ATOM     46  H6  UNL     1      15.312  30.521  10.239  1.00  0.00     0.171 HD
BRANCH  44  47
HETATM   47  C23 UNL     1      14.205  32.831  11.154  1.00  0.00     0.030 C 
HETATM   48  C24 UNL     1      15.658  33.135  10.877  1.00  0.00     0.025 C 
HETATM   49  C25 UNL     1      13.353  33.086   9.926  1.00  0.00     0.025 C 
HETATM   50  C26 UNL     1      13.741  33.817  12.204  1.00  0.00     0.025 C 
ENDBRANCH  44  47
ENDBRANCH  41  43
ENDBRANCH  39  41
ENDBRANCH  37  39
ENDBRANCH  34  37
ENDBRANCH   8  34
TORSDOF 21
ENDMDL
