MODEL 1
REMARK VINA RESULT: -7.844468569      0.000      0.000
REMARK  8 active torsions:
REMARK  status: ('A' for Active; 'I' for Inactive)
REMARK    1  A    between atoms: N1_1  and  C1_5 
REMARK    2  A    between atoms: C1_5  and  C2_6 
REMARK    3  A    between atoms: C1_5  and  C9_14 
REMARK    4  A    between atoms: C2_6  and  C3_7 
REMARK    5  A    between atoms: C12_17  and  C13_18 
REMARK    6  A    between atoms: C14_19  and  C15_20 
REMARK    7  A    between atoms: C15_20  and  N2_21 
REMARK    8  A    between atoms: N3_24  and  C18_25 
ROOT
HETATM    1  C9  UNL     1     -22.820   6.420 -15.154  1.00  0.00     0.041 A 
HETATM    2  C10 UNL     1     -21.935   7.183 -14.423  1.00  0.00     0.030 A 
HETATM    3  C11 UNL     1     -22.678   7.714 -13.388  1.00  0.00     0.041 A 
HETATM    4  C12 UNL     1     -23.996   7.276 -13.492  1.00  0.00     0.087 A 
HETATM    5  N4  UNL     1     -24.032   6.498 -14.573  1.00  0.00    -0.351 N 
ATOM      6  H4  UNL     1     -24.867   6.023 -14.915  1.00  0.00     0.166 HD
ENDROOT
BRANCH   4   7
HETATM    7  C13 UNL     1     -25.069   7.619 -12.593  1.00  0.00    -0.047 C 
HETATM    8  C14 UNL     1     -25.950   7.924 -11.843  1.00  0.00    -0.069 C 
BRANCH   8   9
HETATM    9  C15 UNL     1     -27.001   8.314 -10.935  1.00  0.00     0.366 C 
BRANCH   9  10
HETATM   10  N2  UNL     1     -27.646   9.544 -11.242  1.00  0.00     0.102 N 
HETATM   11  C16 UNL     1     -26.759  10.571 -11.766  1.00  0.00     0.293 C 
HETATM   12  C17 UNL     1     -27.654  11.739 -12.177  1.00  0.00     0.153 C 
HETATM   13  N3  UNL     1     -28.877  11.742 -11.414  1.00  0.00    -0.378 N 
HETATM   14  C24 UNL     1     -29.772  10.575 -11.570  1.00  0.00     0.153 C 
HETATM   15  C25 UNL     1     -28.849   9.436 -12.021  1.00  0.00     0.293 C 
BRANCH  13  16
HETATM   16  C18 UNL     1     -29.286  12.755 -10.526  1.00  0.00     0.030 A 
HETATM   17  C19 UNL     1     -29.292  12.537  -9.175  1.00  0.00     0.029 A 
HETATM   18  C20 UNL     1     -29.693  13.554  -8.297  1.00  0.00     0.002 A 
HETATM   19  C21 UNL     1     -30.082  14.776  -8.802  1.00  0.00     0.000 A 
HETATM   20  C22 UNL     1     -30.069  14.976 -10.150  1.00  0.00     0.002 A 
HETATM   21  C23 UNL     1     -29.680  13.992 -11.016  1.00  0.00     0.029 A 
ENDBRANCH  13  16
ENDBRANCH   9  10
ENDBRANCH   8   9
ENDBRANCH   4   7
BRANCH   1  22
HETATM   22  C1  UNL     1     -22.567   5.619 -16.379  1.00  0.00     0.237 C 
BRANCH  22  23
HETATM   23  N1  UNL     1     -23.006   6.388 -17.555  1.00  0.00    -0.069 N 
ATOM     24  H13 UNL     1     -23.122   7.383 -17.365  1.00  0.00     0.275 HD
ATOM     25  H12 UNL     1     -22.284   6.476 -18.270  1.00  0.00     0.275 HD
ATOM     26  H11 UNL     1     -23.858   5.944 -17.898  1.00  0.00     0.275 HD
ENDBRANCH  22  23
BRANCH  22  27
HETATM   27  C2  UNL     1     -21.130   5.282 -16.595  1.00  0.00     0.077 C 
BRANCH  27  28
HETATM   28  C3  UNL     1     -20.868   4.225 -17.570  1.00  0.00    -0.056 A 
HETATM   29  C4  UNL     1     -21.730   3.178 -17.785  1.00  0.00     0.010 A 
HETATM   30  C5  UNL     1     -21.424   2.211 -18.723  1.00  0.00     0.043 A 
HETATM   31  C6  UNL     1     -20.270   2.250 -19.467  1.00  0.00     0.116 A 
HETATM   32  F1  UNL     1     -19.952   1.319 -20.385  1.00  0.00    -0.206 F 
HETATM   33  C7  UNL     1     -19.403   3.296 -19.256  1.00  0.00     0.043 A 
HETATM   34  C8  UNL     1     -19.713   4.260 -18.318  1.00  0.00     0.010 A 
ENDBRANCH  27  28
ENDBRANCH  22  27
ENDBRANCH   1  22
TORSDOF 8
ENDMDL
MODEL 2
REMARK VINA RESULT: -7.801658604      3.995      5.863
REMARK  8 active torsions:
REMARK  status: ('A' for Active; 'I' for Inactive)
REMARK    1  A    between atoms: N1_1  and  C1_5 
REMARK    2  A    between atoms: C1_5  and  C2_6 
REMARK    3  A    between atoms: C1_5  and  C9_14 
REMARK    4  A    between atoms: C2_6  and  C3_7 
REMARK    5  A    between atoms: C12_17  and  C13_18 
REMARK    6  A    between atoms: C14_19  and  C15_20 
REMARK    7  A    between atoms: C15_20  and  N2_21 
REMARK    8  A    between atoms: N3_24  and  C18_25 
ROOT
HETATM    1  C9  UNL     1     -26.545   7.748 -12.103  1.00  0.00     0.041 A 
HETATM    2  C10 UNL     1     -26.466   7.834 -10.729  1.00  0.00     0.030 A 
HETATM    3  C11 UNL     1     -27.019   9.055 -10.405  1.00  0.00     0.041 A 
HETATM    4  C12 UNL     1     -27.429   9.701 -11.569  1.00  0.00     0.087 A 
HETATM    5  N4  UNL     1     -27.122   8.872 -12.567  1.00  0.00    -0.351 N 
ATOM      6  H4  UNL     1     -27.300   9.065 -13.552  1.00  0.00     0.166 HD
ENDROOT
BRANCH   4   7
HETATM    7  C13 UNL     1     -28.053  10.998 -11.635  1.00  0.00    -0.047 C 
HETATM    8  C14 UNL     1     -28.584  12.068 -11.707  1.00  0.00    -0.069 C 
BRANCH   8   9
HETATM    9  C15 UNL     1     -29.238  13.349 -11.813  1.00  0.00     0.366 C 
BRANCH   9  10
HETATM   10  N2  UNL     1     -29.890  13.800 -10.631  1.00  0.00     0.102 N 
HETATM   11  C16 UNL     1     -31.185  14.422 -10.861  1.00  0.00     0.293 C 
HETATM   12  C17 UNL     1     -31.782  14.687  -9.480  1.00  0.00     0.153 C 
HETATM   13  N3  UNL     1     -30.745  14.830  -8.490  1.00  0.00    -0.378 N 
HETATM   14  C24 UNL     1     -29.875  13.658  -8.250  1.00  0.00     0.153 C 
HETATM   15  C25 UNL     1     -29.943  12.852  -9.553  1.00  0.00     0.293 C 
BRANCH  13  16
HETATM   16  C18 UNL     1     -30.482  15.993  -7.741  1.00  0.00     0.030 A 
HETATM   17  C19 UNL     1     -31.505  16.807  -7.336  1.00  0.00     0.029 A 
HETATM   18  C20 UNL     1     -31.237  17.959  -6.583  1.00  0.00     0.002 A 
HETATM   19  C21 UNL     1     -29.935  18.268  -6.254  1.00  0.00     0.000 A 
HETATM   20  C22 UNL     1     -28.928  17.447  -6.665  1.00  0.00     0.002 A 
HETATM   21  C23 UNL     1     -29.178  16.321  -7.400  1.00  0.00     0.029 A 
ENDBRANCH  13  16
ENDBRANCH   9  10
ENDBRANCH   8   9
ENDBRANCH   4   7
BRANCH   1  22
HETATM   22  C1  UNL     1     -26.099   6.647 -12.995  1.00  0.00     0.237 C 
BRANCH  22  23
HETATM   23  N1  UNL     1     -27.281   5.917 -13.483  1.00  0.00    -0.069 N 
ATOM     24  H13 UNL     1     -27.987   6.525 -13.896  1.00  0.00     0.275 HD
ATOM     25  H12 UNL     1     -27.091   5.357 -14.314  1.00  0.00     0.275 HD
ATOM     26  H11 UNL     1     -27.633   5.367 -12.700  1.00  0.00     0.275 HD
ENDBRANCH  22  23
BRANCH  22  27
HETATM   27  C2  UNL     1     -25.349   7.110 -14.198  1.00  0.00     0.077 C 
BRANCH  27  28
HETATM   28  C3  UNL     1     -24.035   7.694 -13.938  1.00  0.00    -0.056 A 
HETATM   29  C4  UNL     1     -23.808   9.049 -13.937  1.00  0.00     0.010 A 
HETATM   30  C5  UNL     1     -22.542   9.538 -13.682  1.00  0.00     0.043 A 
HETATM   31  C6  UNL     1     -21.475   8.713 -13.423  1.00  0.00     0.116 A 
HETATM   32  F1  UNL     1     -20.234   9.168 -13.172  1.00  0.00    -0.206 F 
HETATM   33  C7  UNL     1     -21.696   7.356 -13.422  1.00  0.00     0.043 A 
HETATM   34  C8  UNL     1     -22.963   6.871 -13.677  1.00  0.00     0.010 A 
ENDBRANCH  27  28
ENDBRANCH  22  27
ENDBRANCH   1  22
TORSDOF 8
ENDMDL
MODEL 3
REMARK VINA RESULT: -7.773857788      1.219      1.892
REMARK  8 active torsions:
REMARK  status: ('A' for Active; 'I' for Inactive)
REMARK    1  A    between atoms: N1_1  and  C1_5 
REMARK    2  A    between atoms: C1_5  and  C2_6 
REMARK    3  A    between atoms: C1_5  and  C9_14 
REMARK    4  A    between atoms: C2_6  and  C3_7 
REMARK    5  A    between atoms: C12_17  and  C13_18 
REMARK    6  A    between atoms: C14_19  and  C15_20 
REMARK    7  A    between atoms: C15_20  and  N2_21 
REMARK    8  A    between atoms: N3_24  and  C18_25 
ROOT
HETATM    1  C9  UNL     1     -22.870   6.735 -15.531  1.00  0.00     0.041 A 
HETATM    2  C10 UNL     1     -22.287   7.017 -14.314  1.00  0.00     0.030 A 
HETATM    3  C11 UNL     1     -22.959   8.121 -13.833  1.00  0.00     0.041 A 
HETATM    4  C12 UNL     1     -23.938   8.502 -14.747  1.00  0.00     0.087 A 
HETATM    5  N4  UNL     1     -23.845   7.636 -15.755  1.00  0.00    -0.351 N 
ATOM      6  H4  UNL     1     -24.435   7.652 -16.587  1.00  0.00     0.166 HD
ENDROOT
BRANCH   4   7
HETATM    7  C13 UNL     1     -24.844   9.613 -14.595  1.00  0.00    -0.047 C 
HETATM    8  C14 UNL     1     -25.592  10.541 -14.490  1.00  0.00    -0.069 C 
BRANCH   8   9
HETATM    9  C15 UNL     1     -26.487  11.667 -14.386  1.00  0.00     0.366 C 
BRANCH   9  10
HETATM   10  N2  UNL     1     -27.443  11.591 -13.336  1.00  0.00     0.102 N 
HETATM   11  C16 UNL     1     -28.827  11.681 -13.777  1.00  0.00     0.293 C 
HETATM   12  C17 UNL     1     -29.686  11.422 -12.541  1.00  0.00     0.153 C 
HETATM   13  N3  UNL     1     -28.976  11.774 -11.338  1.00  0.00    -0.378 N 
HETATM   14  C24 UNL     1     -27.740  11.020 -11.039  1.00  0.00     0.153 C 
HETATM   15  C25 UNL     1     -27.255  10.514 -12.403  1.00  0.00     0.293 C 
BRANCH  13  16
HETATM   16  C18 UNL     1     -29.354  12.782 -10.429  1.00  0.00     0.030 A 
HETATM   17  C19 UNL     1     -29.763  14.007 -10.879  1.00  0.00     0.029 A 
HETATM   18  C20 UNL     1     -30.145  15.003  -9.969  1.00  0.00     0.002 A 
HETATM   19  C21 UNL     1     -30.105  14.740  -8.617  1.00  0.00     0.000 A 
HETATM   20  C22 UNL     1     -29.696  13.514  -8.186  1.00  0.00     0.002 A 
HETATM   21  C23 UNL     1     -29.321  12.535  -9.065  1.00  0.00     0.029 A 
ENDBRANCH  13  16
ENDBRANCH   9  10
ENDBRANCH   8   9
ENDBRANCH   4   7
BRANCH   1  22
HETATM   22  C1  UNL     1     -22.544   5.649 -16.491  1.00  0.00     0.237 C 
BRANCH  22  23
HETATM   23  N1  UNL     1     -22.796   6.126 -17.860  1.00  0.00    -0.069 N 
ATOM     24  H13 UNL     1     -21.947   6.411 -18.349  1.00  0.00     0.275 HD
ATOM     25  H12 UNL     1     -23.070   5.382 -18.501  1.00  0.00     0.275 HD
ATOM     26  H11 UNL     1     -23.488   6.872 -17.791  1.00  0.00     0.275 HD
ENDBRANCH  22  23
BRANCH  22  27
HETATM   27  C2  UNL     1     -21.120   5.207 -16.442  1.00  0.00     0.077 C 
BRANCH  27  28
HETATM   28  C3  UNL     1     -20.714   4.267 -17.485  1.00  0.00    -0.056 A 
HETATM   29  C4  UNL     1     -21.436   3.142 -17.797  1.00  0.00     0.010 A 
HETATM   30  C5  UNL     1     -20.998   2.294 -18.796  1.00  0.00     0.043 A 
HETATM   31  C6  UNL     1     -19.847   2.531 -19.507  1.00  0.00     0.116 A 
HETATM   32  F1  UNL     1     -19.402   1.718 -20.483  1.00  0.00    -0.206 F 
HETATM   33  C7  UNL     1     -19.120   3.656 -19.199  1.00  0.00     0.043 A 
HETATM   34  C8  UNL     1     -19.561   4.501 -18.201  1.00  0.00     0.010 A 
ENDBRANCH  27  28
ENDBRANCH  22  27
ENDBRANCH   1  22
TORSDOF 8
ENDMDL
MODEL 4
REMARK VINA RESULT: -7.614474997      2.479      5.088
REMARK  8 active torsions:
REMARK  status: ('A' for Active; 'I' for Inactive)
REMARK    1  A    between atoms: N1_1  and  C1_5 
REMARK    2  A    between atoms: C1_5  and  C2_6 
REMARK    3  A    between atoms: C1_5  and  C9_14 
REMARK    4  A    between atoms: C2_6  and  C3_7 
REMARK    5  A    between atoms: C12_17  and  C13_18 
REMARK    6  A    between atoms: C14_19  and  C15_20 
REMARK    7  A    between atoms: C15_20  and  N2_21 
REMARK    8  A    between atoms: N3_24  and  C18_25 
ROOT
HETATM    1  C9  UNL     1     -21.151   2.903 -18.307  1.00  0.00     0.041 A 
HETATM    2  C10 UNL     1     -20.191   3.819 -17.932  1.00  0.00     0.030 A 
HETATM    3  C11 UNL     1     -20.890   4.902 -17.441  1.00  0.00     0.041 A 
HETATM    4  C12 UNL     1     -22.257   4.644 -17.518  1.00  0.00     0.087 A 
HETATM    5  N4  UNL     1     -22.363   3.426 -18.047  1.00  0.00    -0.351 N 
ATOM      6  H4  UNL     1     -23.248   2.952 -18.231  1.00  0.00     0.166 HD
ENDROOT
BRANCH   4   7
HETATM    7  C13 UNL     1     -23.305   5.540 -17.099  1.00  0.00    -0.047 C 
HETATM    8  C14 UNL     1     -24.188   6.266 -16.744  1.00  0.00    -0.069 C 
BRANCH   8   9
HETATM    9  C15 UNL     1     -25.265   7.121 -16.308  1.00  0.00     0.366 C 
BRANCH   9  10
HETATM   10  N2  UNL     1     -25.200   7.537 -14.949  1.00  0.00     0.102 N 
HETATM   11  C16 UNL     1     -25.562   6.507 -13.988  1.00  0.00     0.293 C 
HETATM   12  C17 UNL     1     -25.278   7.093 -12.607  1.00  0.00     0.153 C 
HETATM   13  N3  UNL     1     -25.353   8.532 -12.634  1.00  0.00    -0.378 N 
HETATM   14  C24 UNL     1     -24.383   9.242 -13.494  1.00  0.00     0.153 C 
HETATM   15  C25 UNL     1     -23.993   8.217 -14.566  1.00  0.00     0.293 C 
BRANCH  13  16
HETATM   16  C18 UNL     1     -26.279   9.318 -11.919  1.00  0.00     0.030 A 
HETATM   17  C19 UNL     1     -26.566  10.593 -12.320  1.00  0.00     0.029 A 
HETATM   18  C20 UNL     1     -27.495  11.366 -11.609  1.00  0.00     0.002 A 
HETATM   19  C21 UNL     1     -28.116  10.833 -10.500  1.00  0.00     0.000 A 
HETATM   20  C22 UNL     1     -27.819   9.560 -10.115  1.00  0.00     0.002 A 
HETATM   21  C23 UNL     1     -26.915   8.797 -10.801  1.00  0.00     0.029 A 
ENDBRANCH  13  16
ENDBRANCH   9  10
ENDBRANCH   8   9
ENDBRANCH   4   7
BRANCH   1  22
HETATM   22  C1  UNL     1     -20.969   1.554 -18.901  1.00  0.00     0.237 C 
BRANCH  22  23
HETATM   23  N1  UNL     1     -22.195   0.767 -18.690  1.00  0.00    -0.069 N 
ATOM     24  H13 UNL     1     -22.680   1.002 -17.824  1.00  0.00     0.275 HD
ATOM     25  H12 UNL     1     -22.948   1.017 -19.330  1.00  0.00     0.275 HD
ATOM     26  H11 UNL     1     -21.930  -0.216 -18.748  1.00  0.00     0.275 HD
ENDBRANCH  22  23
BRANCH  22  27
HETATM   27  C2  UNL     1     -20.712   1.569 -20.370  1.00  0.00     0.077 C 
BRANCH  27  28
HETATM   28  C3  UNL     1     -19.377   1.144 -20.784  1.00  0.00    -0.056 A 
HETATM   29  C4  UNL     1     -19.160   0.066 -21.607  1.00  0.00     0.010 A 
HETATM   30  C5  UNL     1     -17.871  -0.283 -21.963  1.00  0.00     0.043 A 
HETATM   31  C6  UNL     1     -16.773   0.413 -21.520  1.00  0.00     0.116 A 
HETATM   32  F1  UNL     1     -15.510   0.089 -21.854  1.00  0.00    -0.206 F 
HETATM   33  C7  UNL     1     -16.985   1.492 -20.696  1.00  0.00     0.043 A 
HETATM   34  C8  UNL     1     -18.273   1.839 -20.343  1.00  0.00     0.010 A 
ENDBRANCH  27  28
ENDBRANCH  22  27
ENDBRANCH   1  22
TORSDOF 8
ENDMDL
MODEL 5
REMARK VINA RESULT: -7.495412693      1.091      1.374
REMARK  8 active torsions:
REMARK  status: ('A' for Active; 'I' for Inactive)
REMARK    1  A    between atoms: N1_1  and  C1_5 
REMARK    2  A    between atoms: C1_5  and  C2_6 
REMARK    3  A    between atoms: C1_5  and  C9_14 
REMARK    4  A    between atoms: C2_6  and  C3_7 
REMARK    5  A    between atoms: C12_17  and  C13_18 
REMARK    6  A    between atoms: C14_19  and  C15_20 
REMARK    7  A    between atoms: C15_20  and  N2_21 
REMARK    8  A    between atoms: N3_24  and  C18_25 
ROOT
HETATM    1  C9  UNL     1     -22.985   6.615 -15.092  1.00  0.00     0.041 A 
HETATM    2  C10 UNL     1     -22.101   7.264 -14.256  1.00  0.00     0.030 A 
HETATM    3  C11 UNL     1     -22.887   7.952 -13.355  1.00  0.00     0.041 A 
HETATM    4  C12 UNL     1     -24.231   7.721 -13.642  1.00  0.00     0.087 A 
HETATM    5  N4  UNL     1     -24.238   6.909 -14.699  1.00  0.00    -0.351 N 
ATOM      6  H4  UNL     1     -25.082   6.556 -15.149  1.00  0.00     0.166 HD
ENDROOT
BRANCH   4   7
HETATM    7  C13 UNL     1     -25.351   8.269 -12.920  1.00  0.00    -0.047 C 
HETATM    8  C14 UNL     1     -26.269   8.744 -12.317  1.00  0.00    -0.069 C 
BRANCH   8   9
HETATM    9  C15 UNL     1     -27.363   9.338 -11.588  1.00  0.00     0.366 C 
BRANCH   9  10
HETATM   10  N2  UNL     1     -27.902  10.525 -12.157  1.00  0.00     0.102 N 
HETATM   11  C16 UNL     1     -26.945  11.613 -12.290  1.00  0.00     0.293 C 
HETATM   12  C17 UNL     1     -27.664  12.723 -13.055  1.00  0.00     0.153 C 
HETATM   13  N3  UNL     1     -29.090  12.638 -12.864  1.00  0.00    -0.378 N 
HETATM   14  C24 UNL     1     -29.765  11.416 -13.351  1.00  0.00     0.153 C 
HETATM   15  C25 UNL     1     -28.667  10.344 -13.360  1.00  0.00     0.293 C 
BRANCH  13  16
HETATM   16  C18 UNL     1     -29.893  13.615 -12.242  1.00  0.00     0.030 A 
HETATM   17  C19 UNL     1     -29.562  14.106 -11.009  1.00  0.00     0.029 A 
HETATM   18  C20 UNL     1     -30.361  15.084 -10.400  1.00  0.00     0.002 A 
HETATM   19  C21 UNL     1     -31.484  15.548 -11.052  1.00  0.00     0.000 A 
HETATM   20  C22 UNL     1     -31.798  15.048 -12.280  1.00  0.00     0.002 A 
HETATM   21  C23 UNL     1     -31.026  14.094 -12.883  1.00  0.00     0.029 A 
ENDBRANCH  13  16
ENDBRANCH   9  10
ENDBRANCH   8   9
ENDBRANCH   4   7
BRANCH   1  22
HETATM   22  C1  UNL     1     -22.694   5.728 -16.248  1.00  0.00     0.237 C 
BRANCH  22  23
HETATM   23  N1  UNL     1     -23.066   6.422 -17.492  1.00  0.00    -0.069 N 
ATOM     24  H13 UNL     1     -22.507   7.257 -17.669  1.00  0.00     0.275 HD
ATOM     25  H12 UNL     1     -22.801   5.909 -18.333  1.00  0.00     0.275 HD
ATOM     26  H11 UNL     1     -24.066   6.614 -17.436  1.00  0.00     0.275 HD
ENDBRANCH  22  23
BRANCH  22  27
HETATM   27  C2  UNL     1     -21.255   5.354 -16.375  1.00  0.00     0.077 C 
BRANCH  27  28
HETATM   28  C3  UNL     1     -20.950   4.353 -17.395  1.00  0.00    -0.056 A 
HETATM   29  C4  UNL     1     -21.780   3.295 -17.674  1.00  0.00     0.010 A 
HETATM   30  C5  UNL     1     -21.434   2.384 -18.652  1.00  0.00     0.043 A 
HETATM   31  C6  UNL     1     -20.271   2.489 -19.374  1.00  0.00     0.116 A 
HETATM   32  F1  UNL     1     -19.914   1.612 -20.331  1.00  0.00    -0.206 F 
HETATM   33  C7  UNL     1     -19.436   3.546 -19.100  1.00  0.00     0.043 A 
HETATM   34  C8  UNL     1     -19.785   4.455 -18.122  1.00  0.00     0.010 A 
ENDBRANCH  27  28
ENDBRANCH  22  27
ENDBRANCH   1  22
TORSDOF 8
ENDMDL
