MODEL 1
REMARK VINA RESULT: -8.284948240      0.000      0.000
REMARK  4 active torsions:
REMARK  status: ('A' for Active; 'I' for Inactive)
REMARK       I    between atoms: C1_2  and  N1_3 
REMARK    1  A    between atoms: C1_2  and  C12_20 
REMARK    2  A    between atoms: N3_10  and  C5_11 
REMARK    3  A    between atoms: C12_20  and  C13_21 
REMARK    4  A    between atoms: C12_20  and  C19_27 
ROOT
HETATM    1  O1  UNL     1     -26.451   9.635 -15.711  1.00  0.00    -0.272 OA
HETATM    2  C1  UNL     1     -26.184   9.209 -14.560  1.00  0.00     0.235 C 
HETATM    3  N1  UNL     1     -26.521  10.117 -13.491  1.00  0.00    -0.322 N 
ATOM      4  H1  UNL     1     -25.775  10.561 -12.954  1.00  0.00     0.169 HD
HETATM    5  C2  UNL     1     -27.754  10.376 -13.202  1.00  0.00     0.106 A 
HETATM    6  C3  UNL     1     -28.828   9.837 -13.856  1.00  0.00     0.054 A 
HETATM    7  C4  UNL     1     -30.123  10.163 -13.491  1.00  0.00     0.110 A 
HETATM    8  N2  UNL     1     -30.268  11.026 -12.469  1.00  0.00    -0.302 N 
ATOM      9  H2  UNL     1     -31.214  11.279 -12.183  1.00  0.00     0.186 HD
HETATM   10  N3  UNL     1     -29.254  11.564 -11.816  1.00  0.00    -0.216 N 
HETATM   11  C11 UNL     1     -27.980  11.253 -12.166  1.00  0.00     0.293 A 
HETATM   12  O2  UNL     1     -27.009  11.763 -11.546  1.00  0.00    -0.264 OA
ENDROOT
BRANCH   2  13
HETATM   13  C12 UNL     1     -25.574   7.892 -14.267  1.00  0.00     0.144 C 
BRANCH  13  14
HETATM   14  C13 UNL     1     -26.157   7.193 -13.116  1.00  0.00    -0.041 A 
HETATM   15  C14 UNL     1     -27.111   6.228 -13.327  1.00  0.00     0.008 A 
HETATM   16  C15 UNL     1     -27.653   5.580 -12.249  1.00  0.00     0.001 A 
HETATM   17  C16 UNL     1     -27.246   5.894 -10.950  1.00  0.00     0.000 A 
HETATM   18  C17 UNL     1     -26.292   6.861 -10.738  1.00  0.00     0.001 A 
HETATM   19  C18 UNL     1     -25.740   7.518 -11.818  1.00  0.00     0.008 A 
ENDBRANCH  13  14
BRANCH  13  20
HETATM   20  C19 UNL     1     -24.127   8.070 -13.970  1.00  0.00    -0.041 A 
HETATM   21  C20 UNL     1     -23.327   6.952 -13.960  1.00  0.00     0.008 A 
HETATM   22  C21 UNL     1     -21.980   7.045 -13.685  1.00  0.00     0.001 A 
HETATM   23  C22 UNL     1     -21.441   8.283 -13.419  1.00  0.00     0.000 A 
HETATM   24  C23 UNL     1     -22.247   9.391 -13.433  1.00  0.00     0.001 A 
HETATM   25  C24 UNL     1     -23.591   9.323 -13.704  1.00  0.00     0.008 A 
ENDBRANCH  13  20
ENDBRANCH   2  13
BRANCH  10  26
HETATM   26  C5  UNL     1     -29.428  12.474 -10.740  1.00  0.00     0.098 A 
HETATM   27  C6  UNL     1     -29.305  12.066  -9.439  1.00  0.00     0.035 A 
HETATM   28  C7  UNL     1     -29.471  12.939  -8.396  1.00  0.00     0.002 A 
HETATM   29  C8  UNL     1     -29.770  14.269  -8.621  1.00  0.00     0.003 A 
HETATM   30  C9  UNL     1     -29.899  14.699  -9.919  1.00  0.00     0.045 A 
HETATM   31  C10 UNL     1     -29.730  13.815 -10.953  1.00  0.00     0.145 A 
HETATM   32  F1  UNL     1     -29.859  14.248 -12.227  1.00  0.00    -0.204 F 
ENDBRANCH  10  26
TORSDOF 4
ENDMDL
MODEL 2
REMARK VINA RESULT: -8.247478113      0.846      1.207
REMARK  4 active torsions:
REMARK  status: ('A' for Active; 'I' for Inactive)
REMARK       I    between atoms: C1_2  and  N1_3 
REMARK    1  A    between atoms: C1_2  and  C12_20 
REMARK    2  A    between atoms: N3_10  and  C5_11 
REMARK    3  A    between atoms: C12_20  and  C13_21 
REMARK    4  A    between atoms: C12_20  and  C19_27 
ROOT
HETATM    1  O1  UNL     1     -26.399   9.515 -15.735  1.00  0.00    -0.272 OA
HETATM    2  C1  UNL     1     -26.142   9.127 -14.569  1.00  0.00     0.235 C 
HETATM    3  N1  UNL     1     -26.493  10.066 -13.532  1.00  0.00    -0.322 N 
ATOM      4  H1  UNL     1     -25.754  10.529 -13.002  1.00  0.00     0.169 HD
HETATM    5  C2  UNL     1     -27.730  10.329 -13.263  1.00  0.00     0.106 A 
HETATM    6  C3  UNL     1     -28.795   9.767 -13.912  1.00  0.00     0.054 A 
HETATM    7  C4  UNL     1     -30.095  10.099 -13.569  1.00  0.00     0.110 A 
HETATM    8  N2  UNL     1     -30.254  10.993 -12.576  1.00  0.00    -0.302 N 
ATOM      9  H2  UNL     1     -31.203  11.252 -12.307  1.00  0.00     0.186 HD
HETATM   10  N3  UNL     1     -29.248  11.555 -11.931  1.00  0.00    -0.216 N 
HETATM   11  C11 UNL     1     -27.969  11.238 -12.258  1.00  0.00     0.293 A 
HETATM   12  O2  UNL     1     -27.006  11.771 -11.644  1.00  0.00    -0.264 OA
ENDROOT
BRANCH   2  13
HETATM   13  C12 UNL     1     -25.531   7.821 -14.229  1.00  0.00     0.144 C 
BRANCH  13  14
HETATM   14  C13 UNL     1     -26.123   7.157 -13.062  1.00  0.00    -0.041 A 
HETATM   15  C14 UNL     1     -27.075   6.186 -13.252  1.00  0.00     0.008 A 
HETATM   16  C15 UNL     1     -27.626   5.570 -12.159  1.00  0.00     0.001 A 
HETATM   17  C16 UNL     1     -27.228   5.923 -10.867  1.00  0.00     0.000 A 
HETATM   18  C17 UNL     1     -26.275   6.895 -10.676  1.00  0.00     0.001 A 
HETATM   19  C18 UNL     1     -25.716   7.520 -11.771  1.00  0.00     0.008 A 
ENDBRANCH  13  14
BRANCH  13  20
HETATM   20  C19 UNL     1     -24.087   8.014 -13.924  1.00  0.00    -0.041 A 
HETATM   21  C20 UNL     1     -23.274   6.906 -13.926  1.00  0.00     0.008 A 
HETATM   22  C21 UNL     1     -21.928   7.012 -13.645  1.00  0.00     0.001 A 
HETATM   23  C22 UNL     1     -21.407   8.253 -13.360  1.00  0.00     0.000 A 
HETATM   24  C23 UNL     1     -22.227   9.351 -13.361  1.00  0.00     0.001 A 
HETATM   25  C24 UNL     1     -23.569   9.269 -13.639  1.00  0.00     0.008 A 
ENDBRANCH  13  20
ENDBRANCH   2  13
BRANCH  10  26
HETATM   26  C5  UNL     1     -29.435  12.497 -10.885  1.00  0.00     0.098 A 
HETATM   27  C6  UNL     1     -29.734  13.806 -11.155  1.00  0.00     0.035 A 
HETATM   28  C7  UNL     1     -29.917  14.721 -10.151  1.00  0.00     0.002 A 
HETATM   29  C8  UNL     1     -29.805  14.353  -8.824  1.00  0.00     0.003 A 
HETATM   30  C9  UNL     1     -29.505  13.045  -8.532  1.00  0.00     0.045 A 
HETATM   31  C10 UNL     1     -29.325  12.141  -9.546  1.00  0.00     0.145 A 
HETATM   32  F1  UNL     1     -29.031  10.856  -9.247  1.00  0.00    -0.204 F 
ENDBRANCH  10  26
TORSDOF 4
ENDMDL
MODEL 3
REMARK VINA RESULT: -7.896587621      6.696     10.935
REMARK  4 active torsions:
REMARK  status: ('A' for Active; 'I' for Inactive)
REMARK       I    between atoms: C1_2  and  N1_3 
REMARK    1  A    between atoms: C1_2  and  C12_20 
REMARK    2  A    between atoms: N3_10  and  C5_11 
REMARK    3  A    between atoms: C12_20  and  C13_21 
REMARK    4  A    between atoms: C12_20  and  C19_27 
ROOT
HETATM    1  O1  UNL     1     -23.307   7.007 -17.142  1.00  0.00    -0.272 OA
HETATM    2  C1  UNL     1     -23.646   6.022 -16.442  1.00  0.00     0.235 C 
HETATM    3  N1  UNL     1     -23.657   4.762 -17.143  1.00  0.00    -0.322 N 
ATOM      4  H1  UNL     1     -24.547   4.298 -17.329  1.00  0.00     0.169 HD
HETATM    5  C2  UNL     1     -22.556   4.211 -17.538  1.00  0.00     0.106 A 
HETATM    6  C3  UNL     1     -21.313   4.746 -17.341  1.00  0.00     0.054 A 
HETATM    7  C4  UNL     1     -20.177   4.098 -17.795  1.00  0.00     0.110 A 
HETATM    8  N2  UNL     1     -20.358   2.926 -18.431  1.00  0.00    -0.302 N 
ATOM      9  H2  UNL     1     -19.534   2.431 -18.773  1.00  0.00     0.186 HD
HETATM   10  N3  UNL     1     -21.543   2.382 -18.638  1.00  0.00    -0.216 N 
HETATM   11  C11 UNL     1     -22.664   3.009 -18.199  1.00  0.00     0.293 A 
HETATM   12  O2  UNL     1     -23.797   2.493 -18.393  1.00  0.00    -0.264 OA
ENDROOT
BRANCH   2  13
HETATM   13  C12 UNL     1     -24.012   6.092 -15.009  1.00  0.00     0.144 C 
BRANCH  13  14
HETATM   14  C13 UNL     1     -25.449   6.247 -14.754  1.00  0.00    -0.041 A 
HETATM   15  C14 UNL     1     -25.937   6.021 -13.491  1.00  0.00     0.008 A 
HETATM   16  C15 UNL     1     -27.280   6.165 -13.259  1.00  0.00     0.001 A 
HETATM   17  C16 UNL     1     -28.144   6.536 -14.291  1.00  0.00     0.000 A 
HETATM   18  C17 UNL     1     -27.657   6.762 -15.556  1.00  0.00     0.001 A 
HETATM   19  C18 UNL     1     -26.307   6.620 -15.798  1.00  0.00     0.008 A 
ENDBRANCH  13  14
BRANCH  13  20
HETATM   20  C19 UNL     1     -23.338   7.260 -14.380  1.00  0.00    -0.041 A 
HETATM   21  C20 UNL     1     -22.109   7.059 -13.797  1.00  0.00     0.008 A 
HETATM   22  C21 UNL     1     -21.433   8.097 -13.191  1.00  0.00     0.001 A 
HETATM   23  C22 UNL     1     -22.010   9.346 -13.177  1.00  0.00     0.000 A 
HETATM   24  C23 UNL     1     -23.235   9.535 -13.761  1.00  0.00     0.001 A 
HETATM   25  C24 UNL     1     -23.926   8.517 -14.371  1.00  0.00     0.008 A 
ENDBRANCH  13  20
ENDBRANCH   2  13
BRANCH  10  26
HETATM   26  C5  UNL     1     -21.714   1.144 -19.313  1.00  0.00     0.098 A 
HETATM   27  C6  UNL     1     -22.356   0.093 -18.715  1.00  0.00     0.035 A 
HETATM   28  C7  UNL     1     -22.524  -1.105 -19.360  1.00  0.00     0.002 A 
HETATM   29  C8  UNL     1     -22.050  -1.295 -20.643  1.00  0.00     0.003 A 
HETATM   30  C9  UNL     1     -21.401  -0.252 -21.261  1.00  0.00     0.045 A 
HETATM   31  C10 UNL     1     -21.240   0.939 -20.604  1.00  0.00     0.145 A 
HETATM   32  F1  UNL     1     -20.601   1.958 -21.221  1.00  0.00    -0.204 F 
ENDBRANCH  10  26
TORSDOF 4
ENDMDL
MODEL 4
REMARK VINA RESULT: -7.663854464      1.354      3.115
REMARK  4 active torsions:
REMARK  status: ('A' for Active; 'I' for Inactive)
REMARK       I    between atoms: C1_2  and  N1_3 
REMARK    1  A    between atoms: C1_2  and  C12_20 
REMARK    2  A    between atoms: N3_10  and  C5_11 
REMARK    3  A    between atoms: C12_20  and  C13_21 
REMARK    4  A    between atoms: C12_20  and  C19_27 
ROOT
HETATM    1  O1  UNL     1     -26.427   9.455 -15.716  1.00  0.00    -0.272 OA
HETATM    2  C1  UNL     1     -26.106   9.151 -14.542  1.00  0.00     0.235 C 
HETATM    3  N1  UNL     1     -26.474  10.129 -13.547  1.00  0.00    -0.322 N 
ATOM      4  H1  UNL     1     -25.745  10.664 -13.074  1.00  0.00     0.169 HD
HETATM    5  C2  UNL     1     -27.714  10.336 -13.245  1.00  0.00     0.106 A 
HETATM    6  C3  UNL     1     -28.767   9.676 -13.818  1.00  0.00     0.054 A 
HETATM    7  C4  UNL     1     -30.071   9.953 -13.443  1.00  0.00     0.110 A 
HETATM    8  N2  UNL     1     -30.246  10.894 -12.498  1.00  0.00    -0.302 N 
ATOM      9  H2  UNL     1     -31.199  11.113 -12.207  1.00  0.00     0.186 HD
HETATM   10  N3  UNL     1     -29.253  11.550 -11.926  1.00  0.00    -0.216 N 
HETATM   11  C11 UNL     1     -27.970  11.287 -12.284  1.00  0.00     0.293 A 
HETATM   12  O2  UNL     1     -27.019  11.910 -11.740  1.00  0.00    -0.264 OA
ENDROOT
BRANCH   2  13
HETATM   13  C12 UNL     1     -25.407   7.905 -14.152  1.00  0.00     0.144 C 
BRANCH  13  14
HETATM   14  C13 UNL     1     -23.982   8.076 -13.847  1.00  0.00    -0.041 A 
HETATM   15  C14 UNL     1     -23.239   6.985 -13.469  1.00  0.00     0.008 A 
HETATM   16  C15 UNL     1     -21.909   7.151 -13.183  1.00  0.00     0.001 A 
HETATM   17  C16 UNL     1     -21.313   8.410 -13.274  1.00  0.00     0.000 A 
HETATM   18  C17 UNL     1     -22.056   9.504 -13.652  1.00  0.00     0.001 A 
HETATM   19  C18 UNL     1     -23.395   9.346 -13.942  1.00  0.00     0.008 A 
ENDBRANCH  13  14
BRANCH  13  20
HETATM   20  C19 UNL     1     -25.491   6.921 -15.265  1.00  0.00    -0.041 A 
HETATM   21  C20 UNL     1     -26.419   5.911 -15.165  1.00  0.00     0.008 A 
HETATM   22  C21 UNL     1     -26.544   4.962 -16.157  1.00  0.00     0.001 A 
HETATM   23  C22 UNL     1     -25.721   5.039 -17.257  1.00  0.00     0.000 A 
HETATM   24  C23 UNL     1     -24.800   6.049 -17.346  1.00  0.00     0.001 A 
HETATM   25  C24 UNL     1     -24.657   7.006 -16.372  1.00  0.00     0.008 A 
ENDBRANCH  13  20
ENDBRANCH   2  13
BRANCH  10  26
HETATM   26  C5  UNL     1     -29.458  12.540 -10.929  1.00  0.00     0.098 A 
HETATM   27  C6  UNL     1     -29.388  12.231  -9.597  1.00  0.00     0.035 A 
HETATM   28  C7  UNL     1     -29.586  13.182  -8.630  1.00  0.00     0.002 A 
HETATM   29  C8  UNL     1     -29.863  14.493  -8.966  1.00  0.00     0.003 A 
HETATM   30  C9  UNL     1     -29.939  14.823 -10.298  1.00  0.00     0.045 A 
HETATM   31  C10 UNL     1     -29.739  13.863 -11.254  1.00  0.00     0.145 A 
HETATM   32  F1  UNL     1     -29.816  14.198 -12.561  1.00  0.00    -0.204 F 
ENDBRANCH  10  26
TORSDOF 4
ENDMDL
MODEL 5
REMARK VINA RESULT: -7.647911092      2.692      4.174
REMARK  4 active torsions:
REMARK  status: ('A' for Active; 'I' for Inactive)
REMARK       I    between atoms: C1_2  and  N1_3 
REMARK    1  A    between atoms: C1_2  and  C12_20 
REMARK    2  A    between atoms: N3_10  and  C5_11 
REMARK    3  A    between atoms: C12_20  and  C13_21 
REMARK    4  A    between atoms: C12_20  and  C19_27 
ROOT
HETATM    1  O1  UNL     1     -26.008   5.260 -14.710  1.00  0.00    -0.272 OA
HETATM    2  C1  UNL     1     -25.722   6.464 -14.918  1.00  0.00     0.235 C 
HETATM    3  N1  UNL     1     -26.614   7.410 -14.292  1.00  0.00    -0.322 N 
ATOM      4  H1  UNL     1     -27.233   7.977 -14.872  1.00  0.00     0.169 HD
HETATM    5  C2  UNL     1     -26.639   7.550 -13.007  1.00  0.00     0.106 A 
HETATM    6  C3  UNL     1     -25.853   6.841 -12.139  1.00  0.00     0.054 A 
HETATM    7  C4  UNL     1     -25.936   7.045 -10.772  1.00  0.00     0.110 A 
HETATM    8  N2  UNL     1     -26.819   7.966 -10.347  1.00  0.00    -0.302 N 
ATOM      9  H2  UNL     1     -26.896   8.133  -9.343  1.00  0.00     0.186 HD
HETATM   10  N3  UNL     1     -27.592   8.667 -11.156  1.00  0.00    -0.216 N 
HETATM   11  C11 UNL     1     -27.520   8.476 -12.499  1.00  0.00     0.293 A 
HETATM   12  O2  UNL     1     -28.255   9.143 -13.275  1.00  0.00    -0.264 OA
ENDROOT
BRANCH   2  13
HETATM   13  C12 UNL     1     -24.577   6.933 -15.731  1.00  0.00     0.144 C 
BRANCH  13  14
HETATM   14  C13 UNL     1     -23.886   5.875 -16.477  1.00  0.00    -0.041 A 
HETATM   15  C14 UNL     1     -24.624   4.911 -17.119  1.00  0.00     0.008 A 
HETATM   16  C15 UNL     1     -23.974   3.924 -17.812  1.00  0.00     0.001 A 
HETATM   17  C16 UNL     1     -22.579   3.894 -17.867  1.00  0.00     0.000 A 
HETATM   18  C17 UNL     1     -21.838   4.858 -17.225  1.00  0.00     0.001 A 
HETATM   19  C18 UNL     1     -22.485   5.855 -16.525  1.00  0.00     0.008 A 
ENDBRANCH  13  14
BRANCH  13  20
HETATM   20  C19 UNL     1     -23.562   7.561 -14.843  1.00  0.00    -0.041 A 
HETATM   21  C20 UNL     1     -23.433   8.930 -14.877  1.00  0.00     0.008 A 
HETATM   22  C21 UNL     1     -22.508   9.576 -14.085  1.00  0.00     0.001 A 
HETATM   23  C22 UNL     1     -21.708   8.826 -13.254  1.00  0.00     0.000 A 
HETATM   24  C23 UNL     1     -21.845   7.463 -13.227  1.00  0.00     0.001 A 
HETATM   25  C24 UNL     1     -22.759   6.798 -14.006  1.00  0.00     0.008 A 
ENDBRANCH  13  20
ENDBRANCH   2  13
BRANCH  10  26
HETATM   26  C5  UNL     1     -28.519   9.635 -10.688  1.00  0.00     0.098 A 
HETATM   27  C6  UNL     1     -29.759   9.270 -10.236  1.00  0.00     0.035 A 
HETATM   28  C7  UNL     1     -30.658  10.200  -9.782  1.00  0.00     0.002 A 
HETATM   29  C8  UNL     1     -30.344  11.545  -9.763  1.00  0.00     0.003 A 
HETATM   30  C9  UNL     1     -29.105  11.932 -10.213  1.00  0.00     0.045 A 
HETATM   31  C10 UNL     1     -28.216  10.992 -10.664  1.00  0.00     0.145 A 
HETATM   32  F1  UNL     1     -26.999  11.384 -11.105  1.00  0.00    -0.204 F 
ENDBRANCH  10  26
TORSDOF 4
ENDMDL
