MODEL 1
REMARK VINA RESULT: -7.306502333      0.000      0.000
REMARK  5 active torsions:
REMARK  status: ('A' for Active; 'I' for Inactive)
REMARK    1  A    between atoms: N1_2  and  C3_4 
REMARK    2  A    between atoms: C6_7  and  C7_8 
REMARK    3  A    between atoms: C10_11  and  C11_12 
REMARK    4  A    between atoms: C11_12  and  C12_13 
REMARK    5  A    between atoms: N4_24  and  C17_26 
ROOT
HETATM    1  C11 UNL     1     -25.088   8.204 -14.872  1.00  0.00     0.065 C 
ENDROOT
BRANCH   1   2
HETATM    2  C10 UNL     1     -24.297   7.180 -15.638  1.00  0.00    -0.057 A 
HETATM    3  C9  UNL     1     -22.995   6.965 -15.268  1.00  0.00     0.008 A 
HETATM    4  C8  UNL     1     -22.260   6.022 -15.976  1.00  0.00     0.013 A 
HETATM    5  C7  UNL     1     -22.792   5.312 -17.016  1.00  0.00    -0.026 A 
HETATM    6  C19 UNL     1     -24.096   5.549 -17.365  1.00  0.00     0.013 A 
HETATM    7  C18 UNL     1     -24.868   6.485 -16.681  1.00  0.00     0.008 A 
BRANCH   5   8
HETATM    8  C6  UNL     1     -22.019   4.336 -17.744  1.00  0.00    -0.026 A 
HETATM    9  C5  UNL     1     -20.644   4.508 -17.948  1.00  0.00     0.014 A 
HETATM   10  C4  UNL     1     -19.892   3.584 -18.640  1.00  0.00     0.030 A 
HETATM   11  C3  UNL     1     -20.450   2.442 -19.169  1.00  0.00     0.029 A 
HETATM   12  C21 UNL     1     -21.820   2.259 -18.971  1.00  0.00     0.030 A 
HETATM   13  C20 UNL     1     -22.567   3.187 -18.278  1.00  0.00     0.014 A 
BRANCH  11  14
HETATM   14  N1  UNL     1     -19.718   1.474 -19.881  1.00  0.00    -0.390 N 
HETATM   15  C1  UNL     1     -20.392   0.283 -20.345  1.00  0.00     0.149 C 
HETATM   16  C2  UNL     1     -18.306   1.614 -20.173  1.00  0.00     0.149 C 
ENDBRANCH  11  14
ENDBRANCH   5   8
ENDBRANCH   1   2
BRANCH   1  17
HETATM   17  C12 UNL     1     -25.556   7.692 -13.543  1.00  0.00     0.100 C 
HETATM   18  C13 UNL     1     -24.386   7.386 -12.619  1.00  0.00     0.034 C 
HETATM   19  C14 UNL     1     -26.319   6.438 -13.727  1.00  0.00     0.240 C 
HETATM   20  O1  UNL     1     -25.824   5.298 -13.467  1.00  0.00    -0.272 OA
HETATM   21  N2  UNL     1     -27.649   6.510 -14.211  1.00  0.00    -0.303 N 
HETATM   22  C15 UNL     1     -28.391   7.705 -14.056  1.00  0.00     0.179 C 
ATOM     23  H2  UNL     1     -28.070   5.702 -14.669  1.00  0.00     0.171 HD
HETATM   24  S1  UNL     1     -29.925   7.804 -14.608  1.00  0.00    -0.040 SA
HETATM   25  N3  UNL     1     -27.780   8.813 -13.414  1.00  0.00    -0.322 N 
HETATM   26  C16 UNL     1     -26.449   8.701 -12.943  1.00  0.00     0.098 C 
ATOM     27  H3  UNL     1     -28.296   9.684 -13.292  1.00  0.00     0.169 HD
HETATM   28  N4  UNL     1     -26.068   9.498 -11.994  1.00  0.00    -0.366 N 
ATOM     29  H4  UNL     1     -25.111   9.425 -11.648  1.00  0.00     0.162 HD
BRANCH  28  30
HETATM   30  C17 UNL     1     -26.942  10.481 -11.410  1.00  0.00     0.236 C 
HETATM   31 CL1  UNL     1     -27.338  10.141  -9.716  1.00  0.00    -0.109 Cl
ENDBRANCH  28  30
ENDBRANCH   1  17
TORSDOF 5
ENDMDL
MODEL 2
REMARK VINA RESULT: -7.185373537      2.150      2.656
REMARK  5 active torsions:
REMARK  status: ('A' for Active; 'I' for Inactive)
REMARK    1  A    between atoms: N1_2  and  C3_4 
REMARK    2  A    between atoms: C6_7  and  C7_8 
REMARK    3  A    between atoms: C10_11  and  C11_12 
REMARK    4  A    between atoms: C11_12  and  C12_13 
REMARK    5  A    between atoms: N4_24  and  C17_26 
ROOT
HETATM    1  C11 UNL     1     -25.158   7.232 -15.256  1.00  0.00     0.065 C 
ENDROOT
BRANCH   1   2
HETATM    2  C10 UNL     1     -24.231   6.338 -16.032  1.00  0.00    -0.057 A 
HETATM    3  C9  UNL     1     -24.785   5.335 -16.783  1.00  0.00     0.008 A 
HETATM    4  C8  UNL     1     -23.932   4.505 -17.499  1.00  0.00     0.013 A 
HETATM    5  C7  UNL     1     -22.574   4.658 -17.476  1.00  0.00    -0.026 A 
HETATM    6  C19 UNL     1     -22.048   5.670 -16.715  1.00  0.00     0.013 A 
HETATM    7  C18 UNL     1     -22.868   6.525 -15.982  1.00  0.00     0.008 A 
BRANCH   5   8
HETATM    8  C6  UNL     1     -21.697   3.790 -18.223  1.00  0.00    -0.026 A 
HETATM    9  C5  UNL     1     -20.325   4.052 -18.312  1.00  0.00     0.014 A 
HETATM   10  C4  UNL     1     -19.474   3.231 -19.021  1.00  0.00     0.030 A 
HETATM   11  C3  UNL     1     -19.927   2.112 -19.680  1.00  0.00     0.029 A 
HETATM   12  C21 UNL     1     -21.294   1.841 -19.599  1.00  0.00     0.030 A 
HETATM   13  C20 UNL     1     -22.139   2.664 -18.888  1.00  0.00     0.014 A 
BRANCH  11  14
HETATM   14  N1  UNL     1     -19.093   1.248 -20.415  1.00  0.00    -0.390 N 
HETATM   15  C1  UNL     1     -19.681   0.133 -21.120  1.00  0.00     0.149 C 
HETATM   16  C2  UNL     1     -17.658   1.425 -20.497  1.00  0.00     0.149 C 
ENDBRANCH  11  14
ENDBRANCH   5   8
ENDBRANCH   1   2
BRANCH   1  17
HETATM   17  C12 UNL     1     -24.858   7.236 -13.787  1.00  0.00     0.100 C 
HETATM   18  C13 UNL     1     -24.187   5.942 -13.351  1.00  0.00     0.034 C 
HETATM   19  C14 UNL     1     -26.115   7.369 -13.018  1.00  0.00     0.240 C 
HETATM   20  O1  UNL     1     -26.657   6.383 -12.430  1.00  0.00    -0.272 OA
HETATM   21  N2  UNL     1     -26.736   8.639 -12.934  1.00  0.00    -0.303 N 
HETATM   22  C15 UNL     1     -25.971   9.813 -13.133  1.00  0.00     0.179 C 
ATOM     23  H2  UNL     1     -27.733   8.708 -12.729  1.00  0.00     0.171 HD
HETATM   24  S1  UNL     1     -26.672  11.285 -13.040  1.00  0.00    -0.040 SA
HETATM   25  N3  UNL     1     -24.586   9.687 -13.415  1.00  0.00    -0.322 N 
HETATM   26  C16 UNL     1     -24.001   8.399 -13.489  1.00  0.00     0.098 C 
ATOM     27  H3  UNL     1     -24.015  10.519 -13.563  1.00  0.00     0.169 HD
HETATM   28  N4  UNL     1     -22.724   8.295 -13.290  1.00  0.00    -0.366 N 
ATOM     29  H4  UNL     1     -22.294   7.371 -13.341  1.00  0.00     0.162 HD
BRANCH  28  30
HETATM   30  C17 UNL     1     -21.891   9.431 -13.000  1.00  0.00     0.236 C 
HETATM   31 CL1  UNL     1     -20.548   9.047 -11.907  1.00  0.00    -0.109 Cl
ENDBRANCH  28  30
ENDBRANCH   1  17
TORSDOF 5
ENDMDL
MODEL 3
REMARK VINA RESULT: -7.124262167      4.337     10.312
REMARK  5 active torsions:
REMARK  status: ('A' for Active; 'I' for Inactive)
REMARK    1  A    between atoms: N1_2  and  C3_4 
REMARK    2  A    between atoms: C6_7  and  C7_8 
REMARK    3  A    between atoms: C10_11  and  C11_12 
REMARK    4  A    between atoms: C11_12  and  C12_13 
REMARK    5  A    between atoms: N4_24  and  C17_26 
ROOT
HETATM    1  C11 UNL     1     -24.896   6.547 -13.697  1.00  0.00     0.065 C 
ENDROOT
BRANCH   1   2
HETATM    2  C10 UNL     1     -26.072   7.040 -12.902  1.00  0.00    -0.057 A 
HETATM    3  C9  UNL     1     -27.306   7.020 -13.500  1.00  0.00     0.008 A 
HETATM    4  C8  UNL     1     -28.395   7.479 -12.770  1.00  0.00     0.013 A 
HETATM    5  C7  UNL     1     -28.274   7.942 -11.490  1.00  0.00    -0.026 A 
HETATM    6  C19 UNL     1     -27.029   7.951 -10.918  1.00  0.00     0.013 A 
HETATM    7  C18 UNL     1     -25.910   7.500 -11.614  1.00  0.00     0.008 A 
BRANCH   5   8
HETATM    8  C6  UNL     1     -29.413   8.415 -10.742  1.00  0.00    -0.026 A 
HETATM    9  C5  UNL     1     -29.485   9.741 -10.296  1.00  0.00     0.014 A 
HETATM   10  C4  UNL     1     -30.566  10.209  -9.582  1.00  0.00     0.030 A 
HETATM   11  C3  UNL     1     -31.634   9.399  -9.266  1.00  0.00     0.029 A 
HETATM   12  C21 UNL     1     -31.573   8.075  -9.706  1.00  0.00     0.030 A 
HETATM   13  C20 UNL     1     -30.489   7.613 -10.420  1.00  0.00     0.014 A 
BRANCH  11  14
HETATM   14  N1  UNL     1     -32.757   9.836  -8.539  1.00  0.00    -0.390 N 
HETATM   15  C1  UNL     1     -32.591  10.867  -7.540  1.00  0.00     0.149 C 
HETATM   16  C2  UNL     1     -34.084   9.296  -8.746  1.00  0.00     0.149 C 
ENDBRANCH  11  14
ENDBRANCH   5   8
ENDBRANCH   1   2
BRANCH   1  17
HETATM   17  C12 UNL     1     -24.282   7.621 -14.544  1.00  0.00     0.100 C 
HETATM   18  C13 UNL     1     -24.907   8.980 -14.262  1.00  0.00     0.034 C 
HETATM   19  C14 UNL     1     -24.499   7.318 -15.976  1.00  0.00     0.240 C 
HETATM   20  O1  UNL     1     -25.375   7.919 -16.670  1.00  0.00    -0.272 OA
HETATM   21  N2  UNL     1     -23.703   6.322 -16.594  1.00  0.00    -0.303 N 
HETATM   22  C15 UNL     1     -22.445   5.984 -16.042  1.00  0.00     0.179 C 
ATOM     23  H2  UNL     1     -24.036   5.851 -17.435  1.00  0.00     0.171 HD
HETATM   24  S1  UNL     1     -21.515   4.838 -16.743  1.00  0.00    -0.040 SA
HETATM   25  N3  UNL     1     -22.006   6.656 -14.873  1.00  0.00    -0.322 N 
HETATM   26  C16 UNL     1     -22.830   7.647 -14.285  1.00  0.00     0.098 C 
ATOM     27  H3  UNL     1     -21.103   6.428 -14.458  1.00  0.00     0.169 HD
HETATM   28  N4  UNL     1     -22.268   8.545 -13.537  1.00  0.00    -0.366 N 
ATOM     29  H4  UNL     1     -22.853   9.262 -13.110  1.00  0.00     0.162 HD
BRANCH  28  30
HETATM   30  C17 UNL     1     -20.851   8.567 -13.286  1.00  0.00     0.236 C 
HETATM   31 CL1  UNL     1     -20.435   9.260 -11.708  1.00  0.00    -0.109 Cl
ENDBRANCH  28  30
ENDBRANCH   1  17
TORSDOF 5
ENDMDL
MODEL 4
REMARK VINA RESULT: -7.000947386      2.239      2.704
REMARK  5 active torsions:
REMARK  status: ('A' for Active; 'I' for Inactive)
REMARK    1  A    between atoms: N1_2  and  C3_4 
REMARK    2  A    between atoms: C6_7  and  C7_8 
REMARK    3  A    between atoms: C10_11  and  C11_12 
REMARK    4  A    between atoms: C11_12  and  C12_13 
REMARK    5  A    between atoms: N4_24  and  C17_26 
ROOT
HETATM    1  C11 UNL     1     -25.855   7.335 -15.282  1.00  0.00     0.065 C 
ENDROOT
BRANCH   1   2
HETATM    2  C10 UNL     1     -25.100   6.285 -16.049  1.00  0.00    -0.057 A 
HETATM    3  C9  UNL     1     -23.805   6.556 -16.406  1.00  0.00     0.008 A 
HETATM    4  C8  UNL     1     -23.105   5.590 -17.118  1.00  0.00     0.013 A 
HETATM    5  C7  UNL     1     -23.663   4.393 -17.466  1.00  0.00    -0.026 A 
HETATM    6  C19 UNL     1     -24.960   4.148 -17.097  1.00  0.00     0.013 A 
HETATM    7  C18 UNL     1     -25.697   5.090 -16.382  1.00  0.00     0.008 A 
BRANCH   5   8
HETATM    8  C6  UNL     1     -22.926   3.396 -18.206  1.00  0.00    -0.026 A 
HETATM    9  C5  UNL     1     -21.550   3.226 -18.014  1.00  0.00     0.014 A 
HETATM   10  C4  UNL     1     -20.832   2.278 -18.711  1.00  0.00     0.030 A 
HETATM   11  C3  UNL     1     -21.429   1.449 -19.634  1.00  0.00     0.029 A 
HETATM   12  C21 UNL     1     -22.801   1.610 -19.833  1.00  0.00     0.030 A 
HETATM   13  C20 UNL     1     -23.513   2.559 -19.132  1.00  0.00     0.014 A 
BRANCH  11  14
HETATM   14  N1  UNL     1     -20.734   0.469 -20.367  1.00  0.00    -0.390 N 
HETATM   15  C1  UNL     1     -19.413   0.771 -20.869  1.00  0.00     0.149 C 
HETATM   16  C2  UNL     1     -21.285  -0.841 -20.646  1.00  0.00     0.149 C 
ENDBRANCH  11  14
ENDBRANCH   5   8
ENDBRANCH   1   2
BRANCH   1  17
HETATM   17  C12 UNL     1     -25.471   7.375 -13.833  1.00  0.00     0.100 C 
HETATM   18  C13 UNL     1     -24.855   6.060 -13.381  1.00  0.00     0.034 C 
HETATM   19  C14 UNL     1     -26.672   7.615 -13.002  1.00  0.00     0.240 C 
HETATM   20  O1  UNL     1     -27.237   6.687 -12.346  1.00  0.00    -0.272 OA
HETATM   21  N2  UNL     1     -27.211   8.923 -12.936  1.00  0.00    -0.303 N 
HETATM   22  C15 UNL     1     -26.389  10.039 -13.226  1.00  0.00     0.179 C 
ATOM     23  H2  UNL     1     -28.188   9.062 -12.681  1.00  0.00     0.171 HD
HETATM   24  S1  UNL     1     -26.994  11.554 -13.155  1.00  0.00    -0.040 SA
HETATM   25  N3  UNL     1     -25.032   9.818 -13.578  1.00  0.00    -0.322 N 
HETATM   26  C16 UNL     1     -24.531   8.494 -13.631  1.00  0.00     0.098 C 
ATOM     27  H3  UNL     1     -24.422  10.606 -13.791  1.00  0.00     0.169 HD
HETATM   28  N4  UNL     1     -23.253   8.318 -13.498  1.00  0.00    -0.366 N 
ATOM     29  H4  UNL     1     -22.882   7.369 -13.535  1.00  0.00     0.162 HD
BRANCH  28  30
HETATM   30  C17 UNL     1     -22.338   9.411 -13.300  1.00  0.00     0.236 C 
HETATM   31 CL1  UNL     1     -20.717   8.882 -12.813  1.00  0.00    -0.109 Cl
ENDBRANCH  28  30
ENDBRANCH   1  17
TORSDOF 5
ENDMDL
MODEL 5
REMARK VINA RESULT: -6.988702723      5.508     11.694
REMARK  5 active torsions:
REMARK  status: ('A' for Active; 'I' for Inactive)
REMARK    1  A    between atoms: N1_2  and  C3_4 
REMARK    2  A    between atoms: C6_7  and  C7_8 
REMARK    3  A    between atoms: C10_11  and  C11_12 
REMARK    4  A    between atoms: C11_12  and  C12_13 
REMARK    5  A    between atoms: N4_24  and  C17_26 
ROOT
HETATM    1  C11 UNL     1     -26.604   7.389 -11.318  1.00  0.00     0.065 C 
ENDROOT
BRANCH   1   2
HETATM    2  C10 UNL     1     -27.449   8.510 -10.780  1.00  0.00    -0.057 A 
HETATM    3  C9  UNL     1     -26.816   9.536 -10.129  1.00  0.00     0.008 A 
HETATM    4  C8  UNL     1     -27.593  10.573  -9.628  1.00  0.00     0.013 A 
HETATM    5  C7  UNL     1     -28.953  10.598  -9.764  1.00  0.00    -0.026 A 
HETATM    6  C19 UNL     1     -29.559   9.558 -10.419  1.00  0.00     0.013 A 
HETATM    7  C18 UNL     1     -28.817   8.499 -10.938  1.00  0.00     0.008 A 
BRANCH   5   8
HETATM    8  C6  UNL     1     -29.750  11.680  -9.240  1.00  0.00    -0.026 A 
HETATM    9  C5  UNL     1     -29.192  12.944  -9.011  1.00  0.00     0.014 A 
HETATM   10  C4  UNL     1     -29.940  13.988  -8.512  1.00  0.00     0.030 A 
HETATM   11  C3  UNL     1     -31.275  13.845  -8.210  1.00  0.00     0.029 A 
HETATM   12  C21 UNL     1     -31.843  12.589  -8.433  1.00  0.00     0.030 A 
HETATM   13  C20 UNL     1     -31.089  11.549  -8.933  1.00  0.00     0.014 A 
BRANCH  11  14
HETATM   14  N1  UNL     1     -32.075  14.884  -7.698  1.00  0.00    -0.390 N 
HETATM   15  C1  UNL     1     -31.459  16.148  -7.366  1.00  0.00     0.149 C 
HETATM   16  C2  UNL     1     -33.501  14.745  -7.485  1.00  0.00     0.149 C 
ENDBRANCH  11  14
ENDBRANCH   5   8
ENDBRANCH   1   2
BRANCH   1  17
HETATM   17  C12 UNL     1     -26.536   7.387 -12.816  1.00  0.00     0.100 C 
HETATM   18  C13 UNL     1     -27.863   6.975 -13.435  1.00  0.00     0.034 C 
HETATM   19  C14 UNL     1     -25.511   6.423 -13.271  1.00  0.00     0.240 C 
HETATM   20  O1  UNL     1     -25.815   5.286 -13.750  1.00  0.00    -0.272 OA
HETATM   21  N2  UNL     1     -24.143   6.777 -13.170  1.00  0.00    -0.303 N 
HETATM   22  C15 UNL     1     -23.771   8.141 -13.115  1.00  0.00     0.179 C 
ATOM     23  H2  UNL     1     -23.428   6.050 -13.138  1.00  0.00     0.171 HD
HETATM   24  S1  UNL     1     -22.198   8.567 -12.999  1.00  0.00    -0.040 SA
HETATM   25  N3  UNL     1     -24.786   9.131 -13.163  1.00  0.00    -0.322 N 
HETATM   26  C16 UNL     1     -26.143   8.736 -13.266  1.00  0.00     0.098 C 
ATOM     27  H3  UNL     1     -24.541  10.120 -13.124  1.00  0.00     0.169 HD
HETATM   28  N4  UNL     1     -26.991   9.585 -13.756  1.00  0.00    -0.366 N 
ATOM     29  H4  UNL     1     -27.970   9.310 -13.834  1.00  0.00     0.162 HD
BRANCH  28  30
HETATM   30  C17 UNL     1     -26.604  10.901 -14.194  1.00  0.00     0.236 C 
HETATM   31 CL1  UNL     1     -26.939  12.160 -12.993  1.00  0.00    -0.109 Cl
ENDBRANCH  28  30
ENDBRANCH   1  17
TORSDOF 5
ENDMDL
