MODEL 1
REMARK VINA RESULT: -7.481859440      0.000      0.000
REMARK  5 active torsions:
REMARK  status: ('A' for Active; 'I' for Inactive)
REMARK    1  A    between atoms: N2_8  and  C7_9 
REMARK    2  A    between atoms: C7_9  and  C8_10 
REMARK    3  A    between atoms: C11_13  and  N3_14 
REMARK    4  A    between atoms: N3_14  and  S1_16 
REMARK    5  A    between atoms: S1_16  and  C12_19 
ROOT
HETATM    1  C8  UNL     1     -27.100   5.294 -16.601  1.00  0.00    -0.040 A 
HETATM    2  C9  UNL     1     -27.422   6.612 -16.325  1.00  0.00     0.011 A 
HETATM    3  C10 UNL     1     -27.697   6.938 -15.021  1.00  0.00     0.031 A 
HETATM    4  C11 UNL     1     -27.652   5.978 -14.021  1.00  0.00     0.042 A 
HETATM    5  C18 UNL     1     -27.330   4.667 -14.300  1.00  0.00     0.031 A 
HETATM    6  C19 UNL     1     -27.051   4.336 -15.627  1.00  0.00     0.011 A 
ENDROOT
BRANCH   1   7
HETATM    7  C7  UNL     1     -26.799   4.920 -18.005  1.00  0.00     0.166 C 
BRANCH   7   8
HETATM    8  N2  UNL     1     -25.497   4.281 -18.129  1.00  0.00    -0.361 N 
HETATM    9  C6  UNL     1     -25.341   3.096 -18.744  1.00  0.00     0.091 A 
HETATM   10  C5  UNL     1     -24.132   2.464 -18.880  1.00  0.00     0.029 A 
HETATM   11  C4  UNL     1     -23.015   3.090 -18.352  1.00  0.00    -0.023 A 
HETATM   12  C3  UNL     1     -21.759   2.536 -18.437  1.00  0.00     0.014 A 
HETATM   13  C21 UNL     1     -23.141   4.306 -17.716  1.00  0.00    -0.009 A 
HETATM   14  C2  UNL     1     -20.684   3.204 -17.895  1.00  0.00     0.027 A 
HETATM   15  C1  UNL     1     -20.789   4.428 -17.251  1.00  0.00     0.047 A 
HETATM   16  N1  UNL     1     -19.654   5.085 -16.703  1.00  0.00    -0.102 NA
HETATM   17  C22 UNL     1     -22.050   4.978 -17.168  1.00  0.00     0.040 A 
HETATM   18  C20 UNL     1     -24.409   4.883 -17.620  1.00  0.00     0.103 A 
ENDBRANCH   7   8
ENDBRANCH   1   7
BRANCH   4  19
HETATM   19  N3  UNL     1     -27.945   6.368 -12.679  1.00  0.00    -0.281 N 
ATOM     20  H3  UNL     1     -28.917   6.385 -12.369  1.00  0.00     0.179 HD
BRANCH  19  21
HETATM   21  S1  UNL     1     -26.708   6.807 -11.572  1.00  0.00     0.263 S 
HETATM   22  O1  UNL     1     -27.219   7.963 -10.730  1.00  0.00    -0.200 OA
HETATM   23  O2  UNL     1     -26.406   5.695 -10.603  1.00  0.00    -0.200 OA
BRANCH  21  24
HETATM   24  C12 UNL     1     -25.294   7.277 -12.466  1.00  0.00     0.080 A 
HETATM   25  C13 UNL     1     -24.299   6.430 -12.882  1.00  0.00     0.028 A 
HETATM   26  C14 UNL     1     -23.186   6.852 -13.595  1.00  0.00     0.044 A 
HETATM   27  C15 UNL     1     -23.061   8.179 -13.907  1.00  0.00     0.116 A 
HETATM   28  F1  UNL     1     -21.984   8.643 -14.608  1.00  0.00    -0.206 F 
HETATM   29  C16 UNL     1     -24.051   9.047 -13.498  1.00  0.00     0.044 A 
HETATM   30  C17 UNL     1     -25.164   8.628 -12.784  1.00  0.00     0.028 A 
ENDBRANCH  21  24
ENDBRANCH  19  21
ENDBRANCH   4  19
TORSDOF 5
ENDMDL
MODEL 2
REMARK VINA RESULT: -7.278087461      3.220      4.480
REMARK  5 active torsions:
REMARK  status: ('A' for Active; 'I' for Inactive)
REMARK    1  A    between atoms: N2_8  and  C7_9 
REMARK    2  A    between atoms: C7_9  and  C8_10 
REMARK    3  A    between atoms: C11_13  and  N3_14 
REMARK    4  A    between atoms: N3_14  and  S1_16 
REMARK    5  A    between atoms: S1_16  and  C12_19 
ROOT
HETATM    1  C8  UNL     1     -22.426   5.981 -16.011  1.00  0.00    -0.040 A 
HETATM    2  C9  UNL     1     -22.743   6.404 -14.732  1.00  0.00     0.011 A 
HETATM    3  C10 UNL     1     -23.952   7.028 -14.552  1.00  0.00     0.031 A 
HETATM    4  C11 UNL     1     -24.819   7.223 -15.615  1.00  0.00     0.042 A 
HETATM    5  C18 UNL     1     -24.501   6.799 -16.888  1.00  0.00     0.031 A 
HETATM    6  C19 UNL     1     -23.270   6.165 -17.071  1.00  0.00     0.011 A 
ENDROOT
BRANCH   1   7
HETATM    7  C7  UNL     1     -21.124   5.304 -16.228  1.00  0.00     0.166 C 
BRANCH   7   8
HETATM    8  N2  UNL     1     -21.207   4.286 -17.265  1.00  0.00    -0.361 N 
HETATM    9  C6  UNL     1     -22.329   3.575 -17.476  1.00  0.00     0.091 A 
HETATM   10  C5  UNL     1     -22.446   2.608 -18.442  1.00  0.00     0.029 A 
HETATM   11  C4  UNL     1     -21.341   2.358 -19.239  1.00  0.00    -0.023 A 
HETATM   12  C3  UNL     1     -21.358   1.408 -20.233  1.00  0.00     0.014 A 
HETATM   13  C21 UNL     1     -20.176   3.069 -19.048  1.00  0.00    -0.009 A 
HETATM   14  C2  UNL     1     -20.231   1.202 -20.996  1.00  0.00     0.027 A 
HETATM   15  C1  UNL     1     -19.049   1.907 -20.821  1.00  0.00     0.047 A 
HETATM   16  N1  UNL     1     -17.906   1.663 -21.629  1.00  0.00    -0.102 NA
HETATM   17  C22 UNL     1     -19.037   2.857 -19.823  1.00  0.00     0.040 A 
HETATM   18  C20 UNL     1     -20.140   4.037 -18.043  1.00  0.00     0.103 A 
ENDBRANCH   7   8
ENDBRANCH   1   7
BRANCH   4  19
HETATM   19  N3  UNL     1     -26.067   7.876 -15.376  1.00  0.00    -0.281 N 
ATOM     20  H3  UNL     1     -26.933   7.355 -15.513  1.00  0.00     0.179 HD
BRANCH  19  21
HETATM   21  S1  UNL     1     -26.149   9.513 -14.864  1.00  0.00     0.263 S 
HETATM   22  O1  UNL     1     -24.807  10.164 -15.148  1.00  0.00    -0.200 OA
HETATM   23  O2  UNL     1     -27.161  10.295 -15.660  1.00  0.00    -0.200 OA
BRANCH  21  24
HETATM   24  C12 UNL     1     -26.504   9.554 -13.164  1.00  0.00     0.080 A 
HETATM   25  C13 UNL     1     -26.601   8.458 -12.345  1.00  0.00     0.028 A 
HETATM   26  C14 UNL     1     -26.887   8.540 -10.990  1.00  0.00     0.044 A 
HETATM   27  C15 UNL     1     -27.086   9.772 -10.426  1.00  0.00     0.116 A 
HETATM   28  F1  UNL     1     -27.369   9.905  -9.096  1.00  0.00    -0.206 F 
HETATM   29  C16 UNL     1     -26.992  10.887 -11.233  1.00  0.00     0.044 A 
HETATM   30  C17 UNL     1     -26.707  10.808 -12.587  1.00  0.00     0.028 A 
ENDBRANCH  21  24
ENDBRANCH  19  21
ENDBRANCH   4  19
TORSDOF 5
ENDMDL
MODEL 3
REMARK VINA RESULT: -7.240526063      5.344      9.638
REMARK  5 active torsions:
REMARK  status: ('A' for Active; 'I' for Inactive)
REMARK    1  A    between atoms: N2_8  and  C7_9 
REMARK    2  A    between atoms: C7_9  and  C8_10 
REMARK    3  A    between atoms: C11_13  and  N3_14 
REMARK    4  A    between atoms: N3_14  and  S1_16 
REMARK    5  A    between atoms: S1_16  and  C12_19 
ROOT
HETATM    1  C8  UNL     1     -28.802   8.625 -10.986  1.00  0.00    -0.040 A 
HETATM    2  C9  UNL     1     -29.361   7.782 -11.932  1.00  0.00     0.011 A 
HETATM    3  C10 UNL     1     -28.512   7.184 -12.828  1.00  0.00     0.031 A 
HETATM    4  C11 UNL     1     -27.147   7.420 -12.784  1.00  0.00     0.042 A 
HETATM    5  C18 UNL     1     -26.594   8.259 -11.839  1.00  0.00     0.031 A 
HETATM    6  C19 UNL     1     -27.458   8.868 -10.927  1.00  0.00     0.011 A 
ENDROOT
BRANCH   1   7
HETATM    7  C7  UNL     1     -29.703   9.282 -10.006  1.00  0.00     0.166 C 
BRANCH   7   8
HETATM    8  N2  UNL     1     -29.875  10.699 -10.293  1.00  0.00    -0.361 N 
HETATM    9  C6  UNL     1     -30.318  11.136 -11.485  1.00  0.00     0.091 A 
HETATM   10  C5  UNL     1     -30.492  12.461 -11.792  1.00  0.00     0.029 A 
HETATM   11  C4  UNL     1     -30.194  13.393 -10.812  1.00  0.00    -0.023 A 
HETATM   12  C3  UNL     1     -30.335  14.745 -11.024  1.00  0.00     0.014 A 
HETATM   13  C21 UNL     1     -29.738  12.979  -9.580  1.00  0.00    -0.009 A 
HETATM   14  C2  UNL     1     -30.025  15.626 -10.014  1.00  0.00     0.027 A 
HETATM   15  C1  UNL     1     -29.565  15.231  -8.766  1.00  0.00     0.047 A 
HETATM   16  N1  UNL     1     -29.253  16.173  -7.749  1.00  0.00    -0.102 NA
HETATM   17  C22 UNL     1     -29.424  13.875  -8.560  1.00  0.00     0.040 A 
HETATM   18  C20 UNL     1     -29.588  11.610  -9.348  1.00  0.00     0.103 A 
ENDBRANCH   7   8
ENDBRANCH   1   7
BRANCH   4  19
HETATM   19  N3  UNL     1     -26.305   6.773 -13.738  1.00  0.00    -0.281 N 
ATOM     20  H3  UNL     1     -26.219   5.756 -13.715  1.00  0.00     0.179 HD
BRANCH  19  21
HETATM   21  S1  UNL     1     -25.433   7.657 -14.925  1.00  0.00     0.263 S 
HETATM   22  O1  UNL     1     -25.358   6.808 -16.183  1.00  0.00    -0.200 OA
HETATM   23  O2  UNL     1     -26.154   8.918 -15.322  1.00  0.00    -0.200 OA
BRANCH  21  24
HETATM   24  C12 UNL     1     -23.841   7.995 -14.318  1.00  0.00     0.080 A 
HETATM   25  C13 UNL     1     -22.810   7.095 -14.244  1.00  0.00     0.028 A 
HETATM   26  C14 UNL     1     -21.553   7.413 -13.749  1.00  0.00     0.044 A 
HETATM   27  C15 UNL     1     -21.314   8.686 -13.309  1.00  0.00     0.116 A 
HETATM   28  F1  UNL     1     -20.093   9.048 -12.814  1.00  0.00    -0.206 F 
HETATM   29  C16 UNL     1     -22.339   9.607 -13.375  1.00  0.00     0.044 A 
HETATM   30  C17 UNL     1     -23.596   9.293 -13.868  1.00  0.00     0.028 A 
ENDBRANCH  21  24
ENDBRANCH  19  21
ENDBRANCH   4  19
TORSDOF 5
ENDMDL
MODEL 4
REMARK VINA RESULT: -7.149678195      5.011      9.341
REMARK  5 active torsions:
REMARK  status: ('A' for Active; 'I' for Inactive)
REMARK    1  A    between atoms: N2_8  and  C7_9 
REMARK    2  A    between atoms: C7_9  and  C8_10 
REMARK    3  A    between atoms: C11_13  and  N3_14 
REMARK    4  A    between atoms: N3_14  and  S1_16 
REMARK    5  A    between atoms: S1_16  and  C12_19 
ROOT
HETATM    1  C8  UNL     1     -27.033   8.728 -11.053  1.00  0.00    -0.040 A 
HETATM    2  C9  UNL     1     -27.367   9.227 -12.301  1.00  0.00     0.011 A 
HETATM    3  C10 UNL     1     -27.085   8.443 -13.392  1.00  0.00     0.031 A 
HETATM    4  C11 UNL     1     -26.488   7.201 -13.243  1.00  0.00     0.042 A 
HETATM    5  C18 UNL     1     -26.159   6.707 -11.998  1.00  0.00     0.031 A 
HETATM    6  C19 UNL     1     -26.445   7.505 -10.888  1.00  0.00     0.011 A 
ENDROOT
BRANCH   1   7
HETATM    7  C7  UNL     1     -27.329   9.559  -9.859  1.00  0.00     0.166 C 
BRANCH   7   8
HETATM    8  N2  UNL     1     -28.527  10.365 -10.043  1.00  0.00    -0.361 N 
HETATM    9  C6  UNL     1     -29.758   9.827 -10.023  1.00  0.00     0.091 A 
HETATM   10  C5  UNL     1     -30.909  10.553 -10.193  1.00  0.00     0.029 A 
HETATM   11  C4  UNL     1     -30.784  11.918 -10.394  1.00  0.00    -0.023 A 
HETATM   12  C3  UNL     1     -31.878  12.732 -10.574  1.00  0.00     0.014 A 
HETATM   13  C21 UNL     1     -29.537  12.502 -10.420  1.00  0.00    -0.009 A 
HETATM   14  C2  UNL     1     -31.695  14.082 -10.770  1.00  0.00     0.027 A 
HETATM   15  C1  UNL     1     -30.448  14.690 -10.799  1.00  0.00     0.047 A 
HETATM   16  N1  UNL     1     -30.302  16.088 -11.004  1.00  0.00    -0.102 NA
HETATM   17  C22 UNL     1     -29.356  13.869 -10.618  1.00  0.00     0.040 A 
HETATM   18  C20 UNL     1     -28.415  11.690 -10.239  1.00  0.00     0.103 A 
ENDBRANCH   7   8
ENDBRANCH   1   7
BRANCH   4  19
HETATM   19  N3  UNL     1     -26.217   6.423 -14.409  1.00  0.00    -0.281 N 
ATOM     20  H3  UNL     1     -26.746   5.565 -14.567  1.00  0.00     0.179 HD
BRANCH  19  21
HETATM   21  S1  UNL     1     -25.025   6.891 -15.554  1.00  0.00     0.263 S 
HETATM   22  O1  UNL     1     -24.531   5.640 -16.258  1.00  0.00    -0.200 OA
HETATM   23  O2  UNL     1     -25.604   7.768 -16.633  1.00  0.00    -0.200 OA
BRANCH  21  24
HETATM   24  C12 UNL     1     -23.723   7.681 -14.720  1.00  0.00     0.080 A 
HETATM   25  C13 UNL     1     -23.634   9.028 -14.476  1.00  0.00     0.028 A 
HETATM   26  C14 UNL     1     -22.572   9.614 -13.804  1.00  0.00     0.044 A 
HETATM   27  C15 UNL     1     -21.551   8.821 -13.354  1.00  0.00     0.116 A 
HETATM   28  F1  UNL     1     -20.484   9.351 -12.686  1.00  0.00    -0.206 F 
HETATM   29  C16 UNL     1     -21.622   7.463 -13.588  1.00  0.00     0.044 A 
HETATM   30  C17 UNL     1     -22.682   6.875 -14.260  1.00  0.00     0.028 A 
ENDBRANCH  21  24
ENDBRANCH  19  21
ENDBRANCH   4  19
TORSDOF 5
ENDMDL
MODEL 5
REMARK VINA RESULT: -7.143152385      6.263      7.983
REMARK  5 active torsions:
REMARK  status: ('A' for Active; 'I' for Inactive)
REMARK    1  A    between atoms: N2_8  and  C7_9 
REMARK    2  A    between atoms: C7_9  and  C8_10 
REMARK    3  A    between atoms: C11_13  and  N3_14 
REMARK    4  A    between atoms: N3_14  and  S1_16 
REMARK    5  A    between atoms: S1_16  and  C12_19 
ROOT
HETATM    1  C8  UNL     1     -27.653  10.707 -13.307  1.00  0.00    -0.040 A 
HETATM    2  C9  UNL     1     -27.611  12.040 -12.933  1.00  0.00     0.011 A 
HETATM    3  C10 UNL     1     -28.084  12.362 -11.685  1.00  0.00     0.031 A 
HETATM    4  C11 UNL     1     -28.583  11.386 -10.837  1.00  0.00     0.042 A 
HETATM    5  C18 UNL     1     -28.621  10.060 -11.213  1.00  0.00     0.031 A 
HETATM    6  C19 UNL     1     -28.141   9.732 -12.482  1.00  0.00     0.011 A 
ENDROOT
BRANCH   1   7
HETATM    7  C7  UNL     1     -27.147  10.336 -14.652  1.00  0.00     0.166 C 
BRANCH   7   8
HETATM    8  N2  UNL     1     -26.031   9.405 -14.573  1.00  0.00    -0.361 N 
HETATM    9  C6  UNL     1     -26.137   8.130 -14.986  1.00  0.00     0.091 A 
HETATM   10  C5  UNL     1     -25.108   7.224 -14.928  1.00  0.00     0.029 A 
HETATM   11  C4  UNL     1     -23.897   7.658 -14.414  1.00  0.00    -0.023 A 
HETATM   12  C3  UNL     1     -22.807   6.826 -14.314  1.00  0.00     0.014 A 
HETATM   13  C21 UNL     1     -23.756   8.958 -13.983  1.00  0.00    -0.009 A 
HETATM   14  C2  UNL     1     -21.628   7.310 -13.796  1.00  0.00     0.027 A 
HETATM   15  C1  UNL     1     -21.464   8.616 -13.356  1.00  0.00     0.047 A 
HETATM   16  N1  UNL     1     -20.229   9.077 -12.826  1.00  0.00    -0.102 NA
HETATM   17  C22 UNL     1     -22.559   9.445 -13.458  1.00  0.00     0.040 A 
HETATM   18  C20 UNL     1     -24.853   9.818 -14.077  1.00  0.00     0.103 A 
ENDBRANCH   7   8
ENDBRANCH   1   7
BRANCH   4  19
HETATM   19  N3  UNL     1     -29.061  11.773  -9.548  1.00  0.00    -0.281 N 
ATOM     20  H3  UNL     1     -28.416  11.770  -8.758  1.00  0.00     0.179 HD
BRANCH  19  21
HETATM   21  S1  UNL     1     -30.693  12.243  -9.291  1.00  0.00     0.263 S 
HETATM   22  O1  UNL     1     -31.392  12.277 -10.639  1.00  0.00    -0.200 OA
HETATM   23  O2  UNL     1     -31.441  11.230  -8.465  1.00  0.00    -0.200 OA
BRANCH  21  24
HETATM   24  C12 UNL     1     -30.715  13.814  -8.549  1.00  0.00     0.080 A 
HETATM   25  C13 UNL     1     -31.784  14.369  -7.894  1.00  0.00     0.028 A 
HETATM   26  C14 UNL     1     -31.755  15.630  -7.316  1.00  0.00     0.044 A 
HETATM   27  C15 UNL     1     -30.606  16.370  -7.394  1.00  0.00     0.116 A 
HETATM   28  F1  UNL     1     -30.527  17.617  -6.840  1.00  0.00    -0.206 F 
HETATM   29  C16 UNL     1     -29.519  15.829  -8.048  1.00  0.00     0.044 A 
HETATM   30  C17 UNL     1     -29.546  14.570  -8.627  1.00  0.00     0.028 A 
ENDBRANCH  21  24
ENDBRANCH  19  21
ENDBRANCH   4  19
TORSDOF 5
ENDMDL
