MODEL 1
REMARK VINA RESULT: -8.134149811      0.000      0.000
REMARK  6 active torsions:
REMARK  status: ('A' for Active; 'I' for Inactive)
REMARK    1  A    between atoms: N2_5  and  C3_6 
REMARK    2  A    between atoms: C3_6  and  C4_7 
REMARK    3  A    between atoms: C4_7  and  C5_8 
REMARK    4  A    between atoms: N3_9  and  C6_11 
REMARK    5  A    between atoms: C22_31  and  C23_32 
REMARK    6  A    between atoms: C23_32  and  C24_33 
ROOT
HETATM    1  C5  UNL     1       1.862  36.072  80.463  1.00  0.00     0.063 C 
HETATM    2  N3  UNL     1       2.369  37.312  80.654  1.00  0.00    -0.368 N 
ATOM      3  H3  UNL     1       2.598  37.277  81.647  1.00  0.00     0.165 HD
ENDROOT
BRANCH   2   4
HETATM    4  C6  UNL     1       2.713  38.418  80.383  1.00  0.00     0.055 C 
HETATM    5  C7  UNL     1       1.856  39.505  80.645  1.00  0.00     0.018 A 
HETATM    6  C8  UNL     1       1.124  39.311  81.788  1.00  0.00     0.019 A 
HETATM    7  C12 UNL     1       1.736  40.635  79.867  1.00  0.00     0.048 A 
HETATM    8  C9  UNL     1       0.232  40.288  82.169  1.00  0.00     0.043 A 
HETATM    9  C10 UNL     1       0.059  41.450  81.434  1.00  0.00     0.118 A 
HETATM   10  F1  UNL     1      -0.818  42.421  81.797  1.00  0.00    -0.206 F 
HETATM   11  C11 UNL     1       0.830  41.583  80.290  1.00  0.00     0.072 A 
HETATM   12  N4  UNL     1       2.406  40.979  78.725  1.00  0.00    -0.358 N 
HETATM   13  C13 UNL     1       3.732  40.689  78.484  1.00  0.00     0.017 C 
ATOM     14  H4  UNL     1       1.891  41.483  78.004  1.00  0.00     0.166 HD
HETATM   15  C14 UNL     1       4.474  41.663  77.645  1.00  0.00     0.069 C 
HETATM   16  C15 UNL     1       4.428  39.579  78.951  1.00  0.00    -0.002 A 
HETATM   17  C16 UNL     1       5.737  39.560  78.453  1.00  0.00     0.014 A 
HETATM   18  C20 UNL     1       3.990  38.583  79.777  1.00  0.00     0.004 A 
HETATM   19  C17 UNL     1       6.579  38.529  78.801  1.00  0.00     0.001 A 
HETATM   20  C18 UNL     1       6.114  37.517  79.648  1.00  0.00     0.001 A 
HETATM   21  C19 UNL     1       4.823  37.551  80.129  1.00  0.00     0.014 A 
ENDBRANCH   2   4
BRANCH   1  22
HETATM   22  C4  UNL     1       2.426  34.986  81.393  1.00  0.00     0.066 C 
BRANCH  22  23
HETATM   23  C3  UNL     1       2.864  33.767  80.626  1.00  0.00     0.157 C 
BRANCH  23  24
HETATM   24  N2  UNL     1       4.177  33.837  80.075  1.00  0.00    -0.256 N 
HETATM   25  N1  UNL     1       5.302  33.905  80.751  1.00  0.00    -0.296 N 
HETATM   26  C2  UNL     1       6.360  33.954  79.928  1.00  0.00     0.054 A 
ATOM     27  H1  UNL     1       5.362  33.917  81.768  1.00  0.00     0.187 HD
HETATM   28  C1  UNL     1       7.636  34.027  80.286  1.00  0.00     0.045 C 
HETATM   29  C22 UNL     1       5.871  33.915  78.643  1.00  0.00     0.061 A 
HETATM   30  C21 UNL     1       4.507  33.842  78.772  1.00  0.00     0.274 A 
HETATM   31  O1  UNL     1       3.744  33.790  77.766  1.00  0.00    -0.266 OA
BRANCH  29  32
HETATM   32  C23 UNL     1       6.631  33.945  77.561  1.00  0.00     0.030 C 
BRANCH  32  33
HETATM   33  C24 UNL     1       7.027  35.185  76.911  1.00  0.00    -0.035 A 
HETATM   34  C25 UNL     1       8.343  35.570  76.967  1.00  0.00     0.012 A 
HETATM   35  C26 UNL     1       8.721  36.757  76.342  1.00  0.00     0.007 A 
HETATM   36  C27 UNL     1       7.768  37.528  75.678  1.00  0.00    -0.062 A 
HETATM   37  C28 UNL     1       8.260  38.777  75.042  1.00  0.00     0.048 C 
HETATM   38  C29 UNL     1       6.454  37.128  75.630  1.00  0.00     0.007 A 
HETATM   39  C30 UNL     1       6.099  35.953  76.252  1.00  0.00     0.012 A 
ENDBRANCH  32  33
ENDBRANCH  29  32
ENDBRANCH  23  24
ENDBRANCH  22  23
ENDBRANCH   1  22
TORSDOF 6
ENDMDL
MODEL 2
REMARK VINA RESULT: -8.123247770      2.968      5.470
REMARK  6 active torsions:
REMARK  status: ('A' for Active; 'I' for Inactive)
REMARK    1  A    between atoms: N2_5  and  C3_6 
REMARK    2  A    between atoms: C3_6  and  C4_7 
REMARK    3  A    between atoms: C4_7  and  C5_8 
REMARK    4  A    between atoms: N3_9  and  C6_11 
REMARK    5  A    between atoms: C22_31  and  C23_32 
REMARK    6  A    between atoms: C23_32  and  C24_33 
ROOT
HETATM    1  C5  UNL     1       3.822  41.749  78.643  1.00  0.00     0.063 C 
HETATM    2  N3  UNL     1       2.631  41.401  79.183  1.00  0.00    -0.368 N 
ATOM      3  H3  UNL     1       2.209  40.891  78.407  1.00  0.00     0.165 HD
ENDROOT
BRANCH   2   4
HETATM    4  C6  UNL     1       1.771  41.321  80.000  1.00  0.00     0.055 C 
HETATM    5  C7  UNL     1       1.280  40.057  80.382  1.00  0.00     0.018 A 
HETATM    6  C8  UNL     1       2.269  39.107  80.380  1.00  0.00     0.019 A 
HETATM    7  C12 UNL     1      -0.025  39.773  80.716  1.00  0.00     0.048 A 
HETATM    8  C9  UNL     1       1.937  37.816  80.724  1.00  0.00     0.043 A 
HETATM    9  C10 UNL     1       0.643  37.458  81.070  1.00  0.00     0.118 A 
HETATM   10  F1  UNL     1       0.303  36.188  81.410  1.00  0.00    -0.206 F 
HETATM   11  C11 UNL     1      -0.306  38.467  81.052  1.00  0.00     0.072 A 
HETATM   12  N4  UNL     1      -1.105  40.609  80.786  1.00  0.00    -0.358 N 
HETATM   13  C13 UNL     1      -1.051  41.916  81.219  1.00  0.00     0.017 C 
ATOM     14  H4  UNL     1      -2.012  40.240  80.499  1.00  0.00     0.166 HD
HETATM   15  C14 UNL     1      -2.264  42.433  81.901  1.00  0.00     0.069 C 
HETATM   16  C15 UNL     1       0.026  42.784  81.075  1.00  0.00    -0.002 A 
HETATM   17  C16 UNL     1      -0.287  44.060  81.560  1.00  0.00     0.014 A 
HETATM   18  C20 UNL     1       1.259  42.533  80.542  1.00  0.00     0.004 A 
HETATM   19  C17 UNL     1       0.656  45.060  81.496  1.00  0.00     0.001 A 
HETATM   20  C18 UNL     1       1.913  44.785  80.946  1.00  0.00     0.001 A 
HETATM   21  C19 UNL     1       2.205  43.525  80.473  1.00  0.00     0.014 A 
ENDBRANCH   2   4
BRANCH   1  22
HETATM   22  C4  UNL     1       4.364  40.784  77.577  1.00  0.00     0.066 C 
BRANCH  22  23
HETATM   23  C3  UNL     1       5.087  39.617  78.196  1.00  0.00     0.157 C 
BRANCH  23  24
HETATM   24  N2  UNL     1       6.171  39.099  77.430  1.00  0.00    -0.256 N 
HETATM   25  N1  UNL     1       6.497  39.452  76.207  1.00  0.00    -0.296 N 
HETATM   26  C2  UNL     1       7.572  38.774  75.778  1.00  0.00     0.054 A 
ATOM     27  H1  UNL     1       5.998  40.150  75.656  1.00  0.00     0.187 HD
HETATM   28  C1  UNL     1       8.158  38.891  74.592  1.00  0.00     0.045 C 
HETATM   29  C22 UNL     1       7.952  37.935  76.799  1.00  0.00     0.061 A 
HETATM   30  C21 UNL     1       7.057  38.164  77.813  1.00  0.00     0.274 A 
HETATM   31  O1  UNL     1       7.124  37.547  78.914  1.00  0.00    -0.266 OA
BRANCH  29  32
HETATM   32  C23 UNL     1       8.983  37.109  76.733  1.00  0.00     0.030 C 
BRANCH  32  33
HETATM   33  C24 UNL     1       8.850  35.712  76.351  1.00  0.00    -0.035 A 
HETATM   34  C25 UNL     1       9.859  34.839  76.673  1.00  0.00     0.012 A 
HETATM   35  C26 UNL     1       9.730  33.500  76.307  1.00  0.00     0.007 A 
HETATM   36  C27 UNL     1       8.591  33.073  75.626  1.00  0.00    -0.062 A 
HETATM   37  C28 UNL     1       8.538  31.630  75.275  1.00  0.00     0.048 C 
HETATM   38  C29 UNL     1       7.589  33.959  75.311  1.00  0.00     0.007 A 
HETATM   39  C30 UNL     1       7.734  35.276  75.680  1.00  0.00     0.012 A 
ENDBRANCH  32  33
ENDBRANCH  29  32
ENDBRANCH  23  24
ENDBRANCH  22  23
ENDBRANCH   1  22
TORSDOF 6
ENDMDL
MODEL 3
REMARK VINA RESULT: -7.868929368      2.025      2.924
REMARK  6 active torsions:
REMARK  status: ('A' for Active; 'I' for Inactive)
REMARK    1  A    between atoms: N2_5  and  C3_6 
REMARK    2  A    between atoms: C3_6  and  C4_7 
REMARK    3  A    between atoms: C4_7  and  C5_8 
REMARK    4  A    between atoms: N3_9  and  C6_11 
REMARK    5  A    between atoms: C22_31  and  C23_32 
REMARK    6  A    between atoms: C23_32  and  C24_33 
ROOT
HETATM    1  C5  UNL     1       0.701  38.000  80.819  1.00  0.00     0.063 C 
HETATM    2  N3  UNL     1       1.416  39.113  81.102  1.00  0.00    -0.368 N 
ATOM      3  H3  UNL     1       2.276  38.703  81.466  1.00  0.00     0.165 HD
ENDROOT
BRANCH   2   4
HETATM    4  C6  UNL     1       1.665  40.273  81.191  1.00  0.00     0.055 C 
HETATM    5  C7  UNL     1       1.160  41.019  82.273  1.00  0.00     0.018 A 
HETATM    6  C8  UNL     1       1.105  40.274  83.423  1.00  0.00     0.019 A 
HETATM    7  C12 UNL     1       0.754  42.334  82.219  1.00  0.00     0.048 A 
HETATM    8  C9  UNL     1       0.623  40.868  84.567  1.00  0.00     0.043 A 
HETATM    9  C10 UNL     1       0.196  42.186  84.585  1.00  0.00     0.118 A 
HETATM   10  F1  UNL     1      -0.283  42.784  85.706  1.00  0.00    -0.206 F 
HETATM   11  C11 UNL     1       0.279  42.883  83.390  1.00  0.00     0.072 A 
HETATM   12  N4  UNL     1       0.769  43.205  81.164  1.00  0.00    -0.358 N 
HETATM   13  C13 UNL     1       1.752  43.241  80.200  1.00  0.00     0.017 C 
ATOM     14  H4  UNL     1       0.001  43.872  81.087  1.00  0.00     0.166 HD
HETATM   15  C14 UNL     1       2.038  44.570  79.603  1.00  0.00     0.069 C 
HETATM   16  C15 UNL     1       2.492  42.157  79.739  1.00  0.00    -0.002 A 
HETATM   17  C16 UNL     1       3.352  42.538  78.702  1.00  0.00     0.014 A 
HETATM   18  C20 UNL     1       2.458  40.859  80.165  1.00  0.00     0.004 A 
HETATM   19  C17 UNL     1       4.162  41.594  78.113  1.00  0.00     0.001 A 
HETATM   20  C18 UNL     1       4.114  40.270  78.560  1.00  0.00     0.001 A 
HETATM   21  C19 UNL     1       3.262  39.912  79.583  1.00  0.00     0.014 A 
ENDBRANCH   2   4
BRANCH   1  22
HETATM   22  C4  UNL     1       1.535  36.763  80.450  1.00  0.00     0.066 C 
BRANCH  22  23
HETATM   23  C3  UNL     1       2.931  36.846  81.009  1.00  0.00     0.157 C 
BRANCH  23  24
HETATM   24  N2  UNL     1       3.960  36.373  80.143  1.00  0.00    -0.256 N 
HETATM   25  N1  UNL     1       3.861  35.381  79.286  1.00  0.00    -0.296 N 
HETATM   26  C2  UNL     1       5.013  35.196  78.624  1.00  0.00     0.054 A 
ATOM     27  H1  UNL     1       3.018  34.825  79.143  1.00  0.00     0.187 HD
HETATM   28  C1  UNL     1       5.250  34.281  77.692  1.00  0.00     0.045 C 
HETATM   29  C22 UNL     1       5.902  36.135  79.094  1.00  0.00     0.061 A 
HETATM   30  C21 UNL     1       5.211  36.851  80.039  1.00  0.00     0.274 A 
HETATM   31  O1  UNL     1       5.745  37.804  80.674  1.00  0.00    -0.266 OA
BRANCH  29  32
HETATM   32  C23 UNL     1       7.147  36.254  78.666  1.00  0.00     0.030 C 
BRANCH  32  33
HETATM   33  C24 UNL     1       7.515  37.090  77.534  1.00  0.00    -0.035 A 
HETATM   34  C25 UNL     1       8.776  36.973  77.007  1.00  0.00     0.012 A 
HETATM   35  C26 UNL     1       9.126  37.775  75.921  1.00  0.00     0.007 A 
HETATM   36  C27 UNL     1       8.201  38.674  75.394  1.00  0.00    -0.062 A 
HETATM   37  C28 UNL     1       8.661  39.488  74.238  1.00  0.00     0.048 C 
HETATM   38  C29 UNL     1       6.941  38.780  75.932  1.00  0.00     0.007 A 
HETATM   39  C30 UNL     1       6.613  37.980  77.003  1.00  0.00     0.012 A 
ENDBRANCH  32  33
ENDBRANCH  29  32
ENDBRANCH  23  24
ENDBRANCH  22  23
ENDBRANCH   1  22
TORSDOF 6
ENDMDL
MODEL 4
REMARK VINA RESULT: -7.655255809      2.875      5.408
REMARK  6 active torsions:
REMARK  status: ('A' for Active; 'I' for Inactive)
REMARK    1  A    between atoms: N2_5  and  C3_6 
REMARK    2  A    between atoms: C3_6  and  C4_7 
REMARK    3  A    between atoms: C4_7  and  C5_8 
REMARK    4  A    between atoms: N3_9  and  C6_11 
REMARK    5  A    between atoms: C22_31  and  C23_32 
REMARK    6  A    between atoms: C23_32  and  C24_33 
ROOT
HETATM    1  C5  UNL     1       3.874  41.621  78.633  1.00  0.00     0.063 C 
HETATM    2  N3  UNL     1       2.669  41.314  79.166  1.00  0.00    -0.368 N 
ATOM      3  H3  UNL     1       2.222  40.848  78.377  1.00  0.00     0.165 HD
ENDROOT
BRANCH   2   4
HETATM    4  C6  UNL     1       1.807  41.251  79.983  1.00  0.00     0.055 C 
HETATM    5  C7  UNL     1       1.302  39.996  80.376  1.00  0.00     0.018 A 
HETATM    6  C8  UNL     1       2.281  39.035  80.383  1.00  0.00     0.019 A 
HETATM    7  C12 UNL     1      -0.006  39.728  80.712  1.00  0.00     0.048 A 
HETATM    8  C9  UNL     1       1.935  37.750  80.739  1.00  0.00     0.043 A 
HETATM    9  C10 UNL     1       0.637  37.409  81.087  1.00  0.00     0.118 A 
HETATM   10  F1  UNL     1       0.283  36.147  81.439  1.00  0.00    -0.206 F 
HETATM   11  C11 UNL     1      -0.301  38.429  81.059  1.00  0.00     0.072 A 
HETATM   12  N4  UNL     1      -1.078  40.576  80.773  1.00  0.00    -0.358 N 
HETATM   13  C13 UNL     1      -1.010  41.886  81.194  1.00  0.00     0.017 C 
ATOM     14  H4  UNL     1      -1.988  40.214  80.489  1.00  0.00     0.166 HD
HETATM   15  C14 UNL     1      -2.217  42.423  81.869  1.00  0.00     0.069 C 
HETATM   16  C15 UNL     1       0.077  42.742  81.043  1.00  0.00    -0.002 A 
HETATM   17  C16 UNL     1      -0.223  44.025  81.517  1.00  0.00     0.014 A 
HETATM   18  C20 UNL     1       1.307  42.473  80.513  1.00  0.00     0.004 A 
HETATM   19  C17 UNL     1       0.730  45.014  81.444  1.00  0.00     0.001 A 
HETATM   20  C18 UNL     1       1.985  44.722  80.898  1.00  0.00     0.001 A 
HETATM   21  C19 UNL     1       2.264  43.454  80.437  1.00  0.00     0.014 A 
ENDBRANCH   2   4
BRANCH   1  22
HETATM   22  C4  UNL     1       4.367  40.663  77.538  1.00  0.00     0.066 C 
BRANCH  22  23
HETATM   23  C3  UNL     1       5.173  39.527  78.111  1.00  0.00     0.157 C 
BRANCH  23  24
HETATM   24  N2  UNL     1       6.020  38.855  77.183  1.00  0.00    -0.256 N 
HETATM   25  N1  UNL     1       6.721  39.415  76.223  1.00  0.00    -0.296 N 
HETATM   26  C2  UNL     1       7.416  38.499  75.531  1.00  0.00     0.054 A 
ATOM     27  H1  UNL     1       6.736  40.416  76.029  1.00  0.00     0.187 HD
HETATM   28  C1  UNL     1       8.221  38.730  74.501  1.00  0.00     0.045 C 
HETATM   29  C22 UNL     1       7.135  37.275  76.092  1.00  0.00     0.061 A 
HETATM   30  C21 UNL     1       6.262  37.535  77.119  1.00  0.00     0.274 A 
HETATM   31  O1  UNL     1       5.799  36.614  77.850  1.00  0.00    -0.266 OA
BRANCH  29  32
HETATM   32  C23 UNL     1       7.645  36.132  75.667  1.00  0.00     0.030 C 
BRANCH  32  33
HETATM   33  C24 UNL     1       8.769  35.480  76.321  1.00  0.00    -0.035 A 
HETATM   34  C25 UNL     1       9.406  36.131  77.348  1.00  0.00     0.012 A 
HETATM   35  C26 UNL     1      10.481  35.504  77.975  1.00  0.00     0.007 A 
HETATM   36  C27 UNL     1      10.891  34.239  77.554  1.00  0.00    -0.062 A 
HETATM   37  C28 UNL     1      12.046  33.648  78.277  1.00  0.00     0.048 C 
HETATM   38  C29 UNL     1      10.243  33.600  76.524  1.00  0.00     0.007 A 
HETATM   39  C30 UNL     1       9.183  34.234  75.917  1.00  0.00     0.012 A 
ENDBRANCH  32  33
ENDBRANCH  29  32
ENDBRANCH  23  24
ENDBRANCH  22  23
ENDBRANCH   1  22
TORSDOF 6
ENDMDL
MODEL 5
REMARK VINA RESULT: -7.632069243      3.506      9.145
REMARK  6 active torsions:
REMARK  status: ('A' for Active; 'I' for Inactive)
REMARK    1  A    between atoms: N2_5  and  C3_6 
REMARK    2  A    between atoms: C3_6  and  C4_7 
REMARK    3  A    between atoms: C4_7  and  C5_8 
REMARK    4  A    between atoms: N3_9  and  C6_11 
REMARK    5  A    between atoms: C22_31  and  C23_32 
REMARK    6  A    between atoms: C23_32  and  C24_33 
ROOT
HETATM    1  C5  UNL     1       5.183  39.883  78.879  1.00  0.00     0.063 C 
HETATM    2  N3  UNL     1       5.525  38.691  78.335  1.00  0.00    -0.368 N 
ATOM      3  H3  UNL     1       4.763  38.556  77.670  1.00  0.00     0.165 HD
ENDROOT
BRANCH   2   4
HETATM    4  C6  UNL     1       6.162  37.704  78.150  1.00  0.00     0.055 C 
HETATM    5  C7  UNL     1       5.913  36.552  78.921  1.00  0.00     0.018 A 
HETATM    6  C8  UNL     1       4.582  36.423  79.226  1.00  0.00     0.019 A 
HETATM    7  C12 UNL     1       6.864  35.650  79.342  1.00  0.00     0.048 A 
HETATM    8  C9  UNL     1       4.186  35.346  79.986  1.00  0.00     0.043 A 
HETATM    9  C10 UNL     1       5.089  34.399  80.444  1.00  0.00     0.118 A 
HETATM   10  F1  UNL     1       4.712  33.333  81.195  1.00  0.00    -0.206 F 
HETATM   11  C11 UNL     1       6.418  34.590  80.099  1.00  0.00     0.072 A 
HETATM   12  N4  UNL     1       8.211  35.631  79.101  1.00  0.00    -0.358 N 
HETATM   13  C13 UNL     1       8.795  36.026  77.918  1.00  0.00     0.017 C 
ATOM     14  H4  UNL     1       8.823  35.304  79.849  1.00  0.00     0.166 HD
HETATM   15  C14 UNL     1      10.048  35.327  77.539  1.00  0.00     0.069 C 
HETATM   16  C15 UNL     1       8.323  37.011  77.057  1.00  0.00    -0.002 A 
HETATM   17  C16 UNL     1       9.203  37.209  75.986  1.00  0.00     0.014 A 
HETATM   18  C20 UNL     1       7.177  37.749  77.153  1.00  0.00     0.004 A 
HETATM   19  C17 UNL     1       8.906  38.153  75.031  1.00  0.00     0.001 A 
HETATM   20  C18 UNL     1       7.729  38.900  75.144  1.00  0.00     0.001 A 
HETATM   21  C19 UNL     1       6.873  38.693  76.204  1.00  0.00     0.014 A 
ENDBRANCH   2   4
BRANCH   1  22
HETATM   22  C4  UNL     1       4.392  40.820  77.954  1.00  0.00     0.066 C 
BRANCH  22  23
HETATM   23  C3  UNL     1       4.106  42.144  78.613  1.00  0.00     0.157 C 
BRANCH  23  24
HETATM   24  N2  UNL     1       2.819  42.257  79.214  1.00  0.00    -0.256 N 
HETATM   25  N1  UNL     1       1.909  41.312  79.288  1.00  0.00    -0.296 N 
HETATM   26  C2  UNL     1       0.809  41.746  79.922  1.00  0.00     0.054 A 
ATOM     27  H1  UNL     1       2.025  40.370  78.914  1.00  0.00     0.187 HD
HETATM   28  C1  UNL     1      -0.292  41.044  80.164  1.00  0.00     0.045 C 
HETATM   29  C22 UNL     1       1.038  43.056  80.272  1.00  0.00     0.061 A 
HETATM   30  C21 UNL     1       2.301  43.341  79.815  1.00  0.00     0.274 A 
HETATM   31  O1  UNL     1       2.827  44.479  79.976  1.00  0.00    -0.266 OA
BRANCH  29  32
HETATM   32  C23 UNL     1       0.167  43.812  80.917  1.00  0.00     0.030 C 
BRANCH  32  33
HETATM   33  C24 UNL     1       0.279  44.109  82.336  1.00  0.00    -0.035 A 
HETATM   34  C25 UNL     1       0.326  45.420  82.737  1.00  0.00     0.012 A 
HETATM   35  C26 UNL     1       0.432  45.702  84.098  1.00  0.00     0.007 A 
HETATM   36  C27 UNL     1       0.489  44.660  85.022  1.00  0.00    -0.062 A 
HETATM   37  C28 UNL     1       0.603  45.053  86.450  1.00  0.00     0.048 C 
HETATM   38  C29 UNL     1       0.441  43.351  84.605  1.00  0.00     0.007 A 
HETATM   39  C30 UNL     1       0.335  43.092  83.258  1.00  0.00     0.012 A 
ENDBRANCH  32  33
ENDBRANCH  29  32
ENDBRANCH  23  24
ENDBRANCH  22  23
ENDBRANCH   1  22
TORSDOF 6
ENDMDL
