MODEL 1
REMARK VINA RESULT: -7.706966554      0.000      0.000
REMARK  16 active torsions:
REMARK  status: ('A' for Active; 'I' for Inactive)
REMARK    1  A    between atoms: N1_1  and  C1_4 
REMARK    2  A    between atoms: C2_7  and  C3_8 
REMARK    3  A    between atoms: C3_8  and  C4_9 
REMARK    4  A    between atoms: C4_9  and  C5_10 
REMARK    5  A    between atoms: C5_10  and  C6_11 
REMARK    6  A    between atoms: C6_11  and  C7_12 
REMARK    7  A    between atoms: C7_12  and  C8_13 
REMARK    8  A    between atoms: C8_13  and  C9_14 
REMARK    9  A    between atoms: N5_19  and  C10_20 
REMARK   10  A    between atoms: C10_20  and  C11_21 
REMARK   11  A    between atoms: C11_21  and  C12_22 
REMARK   12  A    between atoms: C12_22  and  C13_23 
REMARK   13  A    between atoms: C13_23  and  C14_24 
REMARK   14  A    between atoms: C14_24  and  C15_25 
REMARK   15  A    between atoms: C16_27  and  O1_28 
REMARK   16  A    between atoms: C18_32  and  N6_33 
ROOT
HETATM    1  C6  UNL     1      -0.599 -34.547  20.238  1.00  0.00     0.000 C 
ENDROOT
BRANCH   1   2
HETATM    2  C5  UNL     1      -0.870 -36.008  20.071  1.00  0.00     0.000 C 
BRANCH   2   3
HETATM    3  C4  UNL     1      -0.095 -36.920  20.937  1.00  0.00     0.006 C 
BRANCH   3   4
HETATM    4  C3  UNL     1       0.406 -38.139  20.203  1.00  0.00     0.059 C 
BRANCH   4   5
HETATM    5  C2  UNL     1       0.313 -39.398  20.939  1.00  0.00     0.052 A 
HETATM    6  N2  UNL     1       1.501 -39.941  21.383  1.00  0.00    -0.194 N 
HETATM    7  C1  UNL     1       1.462 -41.045  22.133  1.00  0.00     0.677 A 
ATOM      8  H2  UNL     1       2.392 -39.507  21.143  1.00  0.00     0.184 HD
HETATM    9  N7  UNL     1       0.301 -41.630  22.459  1.00  0.00    -0.176 N 
HETATM   10  C18 UNL     1      -0.863 -41.127  22.043  1.00  0.00     0.138 A 
ATOM     11  H7  UNL     1       0.308 -42.473  23.034  1.00  0.00     0.186 HD
HETATM   12  C17 UNL     1      -0.876 -39.978  21.256  1.00  0.00     0.101 A 
HETATM   13 CL2  UNL     1      -2.445 -39.429  20.654  1.00  0.00    -0.078 Cl
BRANCH   7  14
HETATM   14  N1  UNL     1       2.574 -41.598  22.578  1.00  0.00    -0.234 N 
ATOM     15  H12 UNL     1       3.439 -41.390  22.080  1.00  0.00     0.174 HD
ATOM     16  H11 UNL     1       2.563 -42.210  23.393  1.00  0.00     0.174 HD
ENDBRANCH   7  14
BRANCH  10  17
HETATM   17  N6  UNL     1      -1.995 -41.683  22.355  1.00  0.00    -0.384 N 
ATOM     18  H62 UNL     1      -2.833 -41.540  21.791  1.00  0.00     0.157 HD
ATOM     19  H61 UNL     1      -2.038 -42.275  23.184  1.00  0.00     0.157 HD
ENDBRANCH  10  17
ENDBRANCH   4   5
ENDBRANCH   3   4
ENDBRANCH   2   3
ENDBRANCH   1   2
BRANCH   1  20
HETATM   20  C7  UNL     1       0.399 -34.064  21.185  1.00  0.00     0.006 C 
BRANCH  20  21
HETATM   21  C8  UNL     1       1.465 -33.134  20.806  1.00  0.00     0.063 C 
BRANCH  21  22
HETATM   22  C9  UNL     1       1.930 -33.215  19.400  1.00  0.00     0.079 A 
HETATM   23  N3  UNL     1       2.641 -34.121  18.734  1.00  0.00    -0.286 N 
HETATM   24  N4  UNL     1       2.781 -33.703  17.463  1.00  0.00    -0.238 N 
ATOM     25  H3  UNL     1       3.017 -34.987  19.121  1.00  0.00     0.188 HD
HETATM   26  N5  UNL     1       2.171 -32.549  17.319  1.00  0.00    -0.252 N 
ATOM     27  H4  UNL     1       3.282 -34.203  16.729  1.00  0.00     0.208 HD
HETATM   28  C16 UNL     1       1.634 -32.215  18.489  1.00  0.00     0.183 A 
BRANCH  26  29
HETATM   29  C10 UNL     1       2.081 -31.723  16.083  1.00  0.00     0.180 C 
BRANCH  29  30
HETATM   30  C11 UNL     1       0.963 -32.270  15.314  1.00  0.00    -0.009 C 
BRANCH  30  31
HETATM   31  C12 UNL     1      -0.185 -31.490  14.889  1.00  0.00    -0.029 C 
BRANCH  31  32
HETATM   32  C13 UNL     1      -1.569 -31.815  15.212  1.00  0.00     0.028 C 
BRANCH  32  33
HETATM   33  C14 UNL     1      -2.219 -32.931  14.458  1.00  0.00     0.019 C 
BRANCH  33  34
HETATM   34  C15 UNL     1      -2.977 -33.853  15.414  1.00  0.00     0.115 C 
HETATM   35 CL1  UNL     1      -2.195 -33.950  16.983  1.00  0.00    -0.130 Cl
ENDBRANCH  33  34
ENDBRANCH  32  33
ENDBRANCH  31  32
ENDBRANCH  30  31
ENDBRANCH  29  30
ENDBRANCH  26  29
BRANCH  28  36
HETATM   36  O1  UNL     1       0.907 -31.045  18.702  1.00  0.00    -0.344 OA
ATOM     37  H1  UNL     1       1.198 -30.147  18.599  1.00  0.00     0.219 HD
ENDBRANCH  28  36
ENDBRANCH  21  22
ENDBRANCH  20  21
ENDBRANCH   1  20
TORSDOF 16
ENDMDL
MODEL 2
REMARK VINA RESULT: -7.625865908      3.278      5.351
REMARK  16 active torsions:
REMARK  status: ('A' for Active; 'I' for Inactive)
REMARK    1  A    between atoms: N1_1  and  C1_4 
REMARK    2  A    between atoms: C2_7  and  C3_8 
REMARK    3  A    between atoms: C3_8  and  C4_9 
REMARK    4  A    between atoms: C4_9  and  C5_10 
REMARK    5  A    between atoms: C5_10  and  C6_11 
REMARK    6  A    between atoms: C6_11  and  C7_12 
REMARK    7  A    between atoms: C7_12  and  C8_13 
REMARK    8  A    between atoms: C8_13  and  C9_14 
REMARK    9  A    between atoms: N5_19  and  C10_20 
REMARK   10  A    between atoms: C10_20  and  C11_21 
REMARK   11  A    between atoms: C11_21  and  C12_22 
REMARK   12  A    between atoms: C12_22  and  C13_23 
REMARK   13  A    between atoms: C13_23  and  C14_24 
REMARK   14  A    between atoms: C14_24  and  C15_25 
REMARK   15  A    between atoms: C16_27  and  O1_28 
REMARK   16  A    between atoms: C18_32  and  N6_33 
ROOT
HETATM    1  C6  UNL     1       0.745 -30.589  19.907  1.00  0.00     0.000 C 
ENDROOT
BRANCH   1   2
HETATM    2  C5  UNL     1      -0.214 -31.141  20.913  1.00  0.00     0.000 C 
BRANCH   2   3
HETATM    3  C4  UNL     1      -0.182 -32.605  21.112  1.00  0.00     0.006 C 
BRANCH   3   4
HETATM    4  C3  UNL     1       1.184 -33.198  20.870  1.00  0.00     0.059 C 
BRANCH   4   5
HETATM    5  C2  UNL     1       1.194 -34.573  20.379  1.00  0.00     0.052 A 
HETATM    6  N2  UNL     1       0.482 -35.496  21.116  1.00  0.00    -0.194 N 
HETATM    7  C1  UNL     1       0.390 -36.749  20.662  1.00  0.00     0.677 A 
ATOM      8  H2  UNL     1       0.034 -35.228  21.991  1.00  0.00     0.184 HD
HETATM    9  N7  UNL     1       0.972 -37.122  19.514  1.00  0.00    -0.176 N 
HETATM   10  C18 UNL     1       1.668 -36.250  18.781  1.00  0.00     0.138 A 
ATOM     11  H7  UNL     1       0.882 -38.087  19.195  1.00  0.00     0.186 HD
HETATM   12  C17 UNL     1       1.795 -34.932  19.213  1.00  0.00     0.101 A 
HETATM   13 CL2  UNL     1       2.818 -33.861  18.247  1.00  0.00    -0.078 Cl
BRANCH   7  14
HETATM   14  N1  UNL     1      -0.281 -37.663  21.335  1.00  0.00    -0.234 N 
ATOM     15  H12 UNL     1      -1.292 -37.700  21.207  1.00  0.00     0.174 HD
ATOM     16  H11 UNL     1       0.200 -38.309  21.961  1.00  0.00     0.174 HD
ENDBRANCH   7  14
BRANCH  10  17
HETATM   17  N6  UNL     1       2.235 -36.599  17.664  1.00  0.00    -0.384 N 
ATOM     18  H62 UNL     1       2.212 -37.563  17.332  1.00  0.00     0.157 HD
ATOM     19  H61 UNL     1       2.709 -35.885  17.112  1.00  0.00     0.157 HD
ENDBRANCH  10  17
ENDBRANCH   4   5
ENDBRANCH   3   4
ENDBRANCH   2   3
ENDBRANCH   1   2
BRANCH   1  20
HETATM   20  C7  UNL     1       0.333 -30.318  18.535  1.00  0.00     0.006 C 
BRANCH  20  21
HETATM   21  C8  UNL     1       0.708 -31.179  17.410  1.00  0.00     0.063 C 
BRANCH  21  22
HETATM   22  C9  UNL     1      -0.391 -31.568  16.495  1.00  0.00     0.079 A 
HETATM   23  N3  UNL     1      -0.850 -31.047  15.359  1.00  0.00    -0.286 N 
HETATM   24  N4  UNL     1      -1.878 -31.800  14.929  1.00  0.00    -0.238 N 
ATOM     25  H3  UNL     1      -0.484 -30.216  14.894  1.00  0.00     0.188 HD
HETATM   26  N5  UNL     1      -2.074 -32.786  15.774  1.00  0.00    -0.252 N 
ATOM     27  H4  UNL     1      -2.419 -31.633  14.082  1.00  0.00     0.208 HD
HETATM   28  C16 UNL     1      -1.178 -32.679  16.752  1.00  0.00     0.183 A 
BRANCH  26  29
HETATM   29  C10 UNL     1      -3.111 -33.852  15.695  1.00  0.00     0.180 C 
BRANCH  29  30
HETATM   30  C11 UNL     1      -2.487 -34.968  14.983  1.00  0.00    -0.009 C 
BRANCH  30  31
HETATM   31  C12 UNL     1      -2.170 -36.243  15.599  1.00  0.00    -0.029 C 
BRANCH  31  32
HETATM   32  C13 UNL     1      -1.640 -37.397  14.882  1.00  0.00     0.028 C 
BRANCH  32  33
HETATM   33  C14 UNL     1      -0.532 -38.171  15.522  1.00  0.00     0.019 C 
BRANCH  33  34
HETATM   34  C15 UNL     1      -0.106 -39.335  14.627  1.00  0.00     0.115 C 
HETATM   35 CL1  UNL     1       0.030 -38.849  12.945  1.00  0.00    -0.130 Cl
ENDBRANCH  33  34
ENDBRANCH  32  33
ENDBRANCH  31  32
ENDBRANCH  30  31
ENDBRANCH  29  30
ENDBRANCH  26  29
BRANCH  28  36
HETATM   36  O1  UNL     1      -1.093 -33.563  17.827  1.00  0.00    -0.344 OA
ATOM     37  H1  UNL     1      -0.915 -34.495  17.806  1.00  0.00     0.219 HD
ENDBRANCH  28  36
ENDBRANCH  21  22
ENDBRANCH  20  21
ENDBRANCH   1  20
TORSDOF 16
ENDMDL
MODEL 3
REMARK VINA RESULT: -7.568801540      1.150      1.352
REMARK  16 active torsions:
REMARK  status: ('A' for Active; 'I' for Inactive)
REMARK    1  A    between atoms: N1_1  and  C1_4 
REMARK    2  A    between atoms: C2_7  and  C3_8 
REMARK    3  A    between atoms: C3_8  and  C4_9 
REMARK    4  A    between atoms: C4_9  and  C5_10 
REMARK    5  A    between atoms: C5_10  and  C6_11 
REMARK    6  A    between atoms: C6_11  and  C7_12 
REMARK    7  A    between atoms: C7_12  and  C8_13 
REMARK    8  A    between atoms: C8_13  and  C9_14 
REMARK    9  A    between atoms: N5_19  and  C10_20 
REMARK   10  A    between atoms: C10_20  and  C11_21 
REMARK   11  A    between atoms: C11_21  and  C12_22 
REMARK   12  A    between atoms: C12_22  and  C13_23 
REMARK   13  A    between atoms: C13_23  and  C14_24 
REMARK   14  A    between atoms: C14_24  and  C15_25 
REMARK   15  A    between atoms: C16_27  and  O1_28 
REMARK   16  A    between atoms: C18_32  and  N6_33 
ROOT
HETATM    1  C6  UNL     1      -0.263 -34.450  20.648  1.00  0.00     0.000 C 
ENDROOT
BRANCH   1   2
HETATM    2  C5  UNL     1       0.344 -35.708  20.114  1.00  0.00     0.000 C 
BRANCH   2   3
HETATM    3  C4  UNL     1       0.071 -36.943  20.880  1.00  0.00     0.006 C 
BRANCH   3   4
HETATM    4  C3  UNL     1       0.488 -38.191  20.143  1.00  0.00     0.059 C 
BRANCH   4   5
HETATM    5  C2  UNL     1       0.384 -39.434  20.904  1.00  0.00     0.052 A 
HETATM    6  N2  UNL     1       1.567 -39.983  21.353  1.00  0.00    -0.194 N 
HETATM    7  C1  UNL     1       1.519 -41.072  22.124  1.00  0.00     0.677 A 
ATOM      8  H2  UNL     1       2.462 -39.566  21.100  1.00  0.00     0.184 HD
HETATM    9  N7  UNL     1       0.352 -41.636  22.468  1.00  0.00    -0.176 N 
HETATM   10  C18 UNL     1      -0.808 -41.126  22.047  1.00  0.00     0.138 A 
ATOM     11  H7  UNL     1       0.350 -42.467  23.059  1.00  0.00     0.186 HD
HETATM   12  C17 UNL     1      -0.810 -39.992  21.238  1.00  0.00     0.101 A 
HETATM   13 CL2  UNL     1      -2.376 -39.436  20.633  1.00  0.00    -0.078 Cl
BRANCH   7  14
HETATM   14  N1  UNL     1       2.626 -41.629  22.575  1.00  0.00    -0.234 N 
ATOM     15  H12 UNL     1       3.303 -41.960  21.888  1.00  0.00     0.174 HD
ATOM     16  H11 UNL     1       2.793 -41.723  23.576  1.00  0.00     0.174 HD
ENDBRANCH   7  14
BRANCH  10  17
HETATM   17  N6  UNL     1      -1.946 -41.661  22.376  1.00  0.00    -0.384 N 
ATOM     18  H62 UNL     1      -1.994 -42.500  22.955  1.00  0.00     0.157 HD
ATOM     19  H61 UNL     1      -2.806 -41.225  22.045  1.00  0.00     0.157 HD
ENDBRANCH  10  17
ENDBRANCH   4   5
ENDBRANCH   3   4
ENDBRANCH   2   3
ENDBRANCH   1   2
BRANCH   1  20
HETATM   20  C7  UNL     1       0.565 -33.381  21.193  1.00  0.00     0.006 C 
BRANCH  20  21
HETATM   21  C8  UNL     1       1.657 -32.761  20.438  1.00  0.00     0.063 C 
BRANCH  21  22
HETATM   22  C9  UNL     1       1.282 -32.141  19.145  1.00  0.00     0.079 A 
HETATM   23  N3  UNL     1       0.607 -31.037  18.833  1.00  0.00    -0.286 N 
HETATM   24  N4  UNL     1       0.552 -30.935  17.493  1.00  0.00    -0.238 N 
ATOM     25  H3  UNL     1       0.199 -30.379  19.498  1.00  0.00     0.188 HD
HETATM   26  N5  UNL     1       1.181 -31.956  16.956  1.00  0.00    -0.252 N 
ATOM     27  H4  UNL     1       0.095 -30.185  16.976  1.00  0.00     0.208 HD
HETATM   28  C16 UNL     1       1.646 -32.721  17.941  1.00  0.00     0.183 A 
BRANCH  26  29
HETATM   29  C10 UNL     1       1.357 -32.248  15.507  1.00  0.00     0.180 C 
BRANCH  29  30
HETATM   30  C11 UNL     1       0.276 -31.541  14.820  1.00  0.00    -0.009 C 
BRANCH  30  31
HETATM   31  C12 UNL     1      -0.969 -32.167  14.414  1.00  0.00    -0.029 C 
BRANCH  31  32
HETATM   32  C13 UNL     1      -2.128 -32.338  15.282  1.00  0.00     0.028 C 
BRANCH  32  33
HETATM   33  C14 UNL     1      -2.978 -33.553  15.083  1.00  0.00     0.019 C 
BRANCH  33  34
HETATM   34  C15 UNL     1      -2.856 -34.493  16.282  1.00  0.00     0.115 C 
HETATM   35 CL1  UNL     1      -1.803 -33.834  17.523  1.00  0.00    -0.130 Cl
ENDBRANCH  33  34
ENDBRANCH  32  33
ENDBRANCH  31  32
ENDBRANCH  30  31
ENDBRANCH  29  30
ENDBRANCH  26  29
BRANCH  28  36
HETATM   36  O1  UNL     1       2.368 -33.895  17.735  1.00  0.00    -0.344 OA
ATOM     37  H1  UNL     1       3.308 -33.998  17.651  1.00  0.00     0.219 HD
ENDBRANCH  28  36
ENDBRANCH  21  22
ENDBRANCH  20  21
ENDBRANCH   1  20
TORSDOF 16
ENDMDL
MODEL 4
REMARK VINA RESULT: -7.538381711      2.919      5.209
REMARK  16 active torsions:
REMARK  status: ('A' for Active; 'I' for Inactive)
REMARK    1  A    between atoms: N1_1  and  C1_4 
REMARK    2  A    between atoms: C2_7  and  C3_8 
REMARK    3  A    between atoms: C3_8  and  C4_9 
REMARK    4  A    between atoms: C4_9  and  C5_10 
REMARK    5  A    between atoms: C5_10  and  C6_11 
REMARK    6  A    between atoms: C6_11  and  C7_12 
REMARK    7  A    between atoms: C7_12  and  C8_13 
REMARK    8  A    between atoms: C8_13  and  C9_14 
REMARK    9  A    between atoms: N5_19  and  C10_20 
REMARK   10  A    between atoms: C10_20  and  C11_21 
REMARK   11  A    between atoms: C11_21  and  C12_22 
REMARK   12  A    between atoms: C12_22  and  C13_23 
REMARK   13  A    between atoms: C13_23  and  C14_24 
REMARK   14  A    between atoms: C14_24  and  C15_25 
REMARK   15  A    between atoms: C16_27  and  O1_28 
REMARK   16  A    between atoms: C18_32  and  N6_33 
ROOT
HETATM    1  C6  UNL     1       0.734 -30.659  19.961  1.00  0.00     0.000 C 
ENDROOT
BRANCH   1   2
HETATM    2  C5  UNL     1      -0.240 -31.216  20.950  1.00  0.00     0.000 C 
BRANCH   2   3
HETATM    3  C4  UNL     1      -0.186 -32.676  21.170  1.00  0.00     0.006 C 
BRANCH   3   4
HETATM    4  C3  UNL     1       1.183 -33.255  20.911  1.00  0.00     0.059 C 
BRANCH   4   5
HETATM    5  C2  UNL     1       1.199 -34.623  20.397  1.00  0.00     0.052 A 
HETATM    6  N2  UNL     1       0.487 -35.560  21.116  1.00  0.00    -0.194 N 
HETATM    7  C1  UNL     1       0.402 -36.805  20.642  1.00  0.00     0.677 A 
ATOM      8  H2  UNL     1       0.035 -35.307  21.994  1.00  0.00     0.184 HD
HETATM    9  N7  UNL     1       0.989 -37.158  19.490  1.00  0.00    -0.176 N 
HETATM   10  C18 UNL     1       1.685 -36.271  18.774  1.00  0.00     0.138 A 
ATOM     11  H7  UNL     1       0.904 -38.117  19.155  1.00  0.00     0.186 HD
HETATM   12  C17 UNL     1       1.806 -34.960  19.228  1.00  0.00     0.101 A 
HETATM   13 CL2  UNL     1       2.829 -33.870  18.283  1.00  0.00    -0.078 Cl
BRANCH   7  14
HETATM   14  N1  UNL     1      -0.269 -37.733  21.297  1.00  0.00    -0.234 N 
ATOM     15  H12 UNL     1       0.211 -38.608  21.504  1.00  0.00     0.174 HD
ATOM     16  H11 UNL     1      -1.234 -37.573  21.586  1.00  0.00     0.174 HD
ENDBRANCH   7  14
BRANCH  10  17
HETATM   17  N6  UNL     1       2.257 -36.600  17.654  1.00  0.00    -0.384 N 
ATOM     18  H62 UNL     1       2.608 -35.894  17.006  1.00  0.00     0.157 HD
ATOM     19  H61 UNL     1       2.355 -37.589  17.425  1.00  0.00     0.157 HD
ENDBRANCH  10  17
ENDBRANCH   4   5
ENDBRANCH   3   4
ENDBRANCH   2   3
ENDBRANCH   1   2
BRANCH   1  20
HETATM   20  C7  UNL     1       0.323 -30.310  18.606  1.00  0.00     0.006 C 
BRANCH  20  21
HETATM   21  C8  UNL     1       0.724 -31.088  17.431  1.00  0.00     0.063 C 
BRANCH  21  22
HETATM   22  C9  UNL     1      -0.367 -31.477  16.507  1.00  0.00     0.079 A 
HETATM   23  N3  UNL     1      -0.832 -30.943  15.380  1.00  0.00    -0.286 N 
HETATM   24  N4  UNL     1      -1.848 -31.703  14.934  1.00  0.00    -0.238 N 
ATOM     25  H3  UNL     1      -0.478 -30.098  14.930  1.00  0.00     0.188 HD
HETATM   26  N5  UNL     1      -2.030 -32.707  15.761  1.00  0.00    -0.252 N 
ATOM     27  H4  UNL     1      -2.390 -31.528  14.088  1.00  0.00     0.208 HD
HETATM   28  C16 UNL     1      -1.138 -32.604  16.742  1.00  0.00     0.183 A 
BRANCH  26  29
HETATM   29  C10 UNL     1      -3.052 -33.786  15.660  1.00  0.00     0.180 C 
BRANCH  29  30
HETATM   30  C11 UNL     1      -2.410 -34.880  14.928  1.00  0.00    -0.009 C 
BRANCH  30  31
HETATM   31  C12 UNL     1      -2.283 -36.231  15.442  1.00  0.00    -0.029 C 
BRANCH  31  32
HETATM   32  C13 UNL     1      -1.160 -36.708  16.240  1.00  0.00     0.028 C 
BRANCH  32  33
HETATM   33  C14 UNL     1      -0.505 -37.989  15.830  1.00  0.00     0.019 C 
BRANCH  33  34
HETATM   34  C15 UNL     1      -0.973 -39.138  16.723  1.00  0.00     0.115 C 
HETATM   35 CL1  UNL     1      -1.896 -38.560  18.100  1.00  0.00    -0.130 Cl
ENDBRANCH  33  34
ENDBRANCH  32  33
ENDBRANCH  31  32
ENDBRANCH  30  31
ENDBRANCH  29  30
ENDBRANCH  26  29
BRANCH  28  36
HETATM   36  O1  UNL     1      -1.042 -33.505  17.801  1.00  0.00    -0.344 OA
ATOM     37  H1  UNL     1      -1.648 -33.629  18.522  1.00  0.00     0.219 HD
ENDBRANCH  28  36
ENDBRANCH  21  22
ENDBRANCH  20  21
ENDBRANCH   1  20
TORSDOF 16
ENDMDL
MODEL 5
REMARK VINA RESULT: -7.531453039      4.411      7.228
REMARK  16 active torsions:
REMARK  status: ('A' for Active; 'I' for Inactive)
REMARK    1  A    between atoms: N1_1  and  C1_4 
REMARK    2  A    between atoms: C2_7  and  C3_8 
REMARK    3  A    between atoms: C3_8  and  C4_9 
REMARK    4  A    between atoms: C4_9  and  C5_10 
REMARK    5  A    between atoms: C5_10  and  C6_11 
REMARK    6  A    between atoms: C6_11  and  C7_12 
REMARK    7  A    between atoms: C7_12  and  C8_13 
REMARK    8  A    between atoms: C8_13  and  C9_14 
REMARK    9  A    between atoms: N5_19  and  C10_20 
REMARK   10  A    between atoms: C10_20  and  C11_21 
REMARK   11  A    between atoms: C11_21  and  C12_22 
REMARK   12  A    between atoms: C12_22  and  C13_23 
REMARK   13  A    between atoms: C13_23  and  C14_24 
REMARK   14  A    between atoms: C14_24  and  C15_25 
REMARK   15  A    between atoms: C16_27  and  O1_28 
REMARK   16  A    between atoms: C18_32  and  N6_33 
ROOT
HETATM    1  C6  UNL     1       0.005 -31.896  14.590  1.00  0.00     0.000 C 
ENDROOT
BRANCH   1   2
HETATM    2  C5  UNL     1       1.259 -31.923  15.403  1.00  0.00     0.000 C 
BRANCH   2   3
HETATM    3  C4  UNL     1       1.377 -33.017  16.389  1.00  0.00     0.006 C 
BRANCH   3   4
HETATM    4  C3  UNL     1       2.212 -32.638  17.586  1.00  0.00     0.059 C 
BRANCH   4   5
HETATM    5  C2  UNL     1       1.561 -32.800  18.884  1.00  0.00     0.052 A 
HETATM    6  N2  UNL     1       1.892 -33.931  19.602  1.00  0.00    -0.194 N 
HETATM    7  C1  UNL     1       1.389 -34.083  20.829  1.00  0.00     0.677 A 
ATOM      8  H2  UNL     1       2.508 -34.638  19.203  1.00  0.00     0.184 HD
HETATM    9  N7  UNL     1       0.576 -33.165  21.372  1.00  0.00    -0.176 N 
HETATM   10  C18 UNL     1       0.239 -32.062  20.700  1.00  0.00     0.138 A 
ATOM     11  H7  UNL     1       0.210 -33.311  22.313  1.00  0.00     0.186 HD
HETATM   12  C17 UNL     1       0.736 -31.858  19.415  1.00  0.00     0.101 A 
HETATM   13 CL2  UNL     1       0.164 -30.429  18.545  1.00  0.00    -0.078 Cl
BRANCH   7  14
HETATM   14  N1  UNL     1       1.678 -35.148  21.551  1.00  0.00    -0.234 N 
ATOM     15  H12 UNL     1       2.482 -35.708  21.268  1.00  0.00     0.174 HD
ATOM     16  H11 UNL     1       1.114 -35.398  22.363  1.00  0.00     0.174 HD
ENDBRANCH   7  14
BRANCH  10  17
HETATM   17  N6  UNL     1      -0.545 -31.163  21.216  1.00  0.00    -0.384 N 
ATOM     18  H62 UNL     1      -0.666 -30.247  20.782  1.00  0.00     0.157 HD
ATOM     19  H61 UNL     1      -1.049 -31.387  22.073  1.00  0.00     0.157 HD
ENDBRANCH  10  17
ENDBRANCH   4   5
ENDBRANCH   3   4
ENDBRANCH   2   3
ENDBRANCH   1   2
BRANCH   1  20
HETATM   20  C7  UNL     1      -1.298 -31.687  15.210  1.00  0.00     0.006 C 
BRANCH  20  21
HETATM   21  C8  UNL     1      -2.383 -32.667  15.125  1.00  0.00     0.063 C 
BRANCH  21  22
HETATM   22  C9  UNL     1      -2.218 -33.892  15.944  1.00  0.00     0.079 A 
HETATM   23  N3  UNL     1      -2.040 -34.092  17.248  1.00  0.00    -0.286 N 
HETATM   24  N4  UNL     1      -1.948 -35.415  17.468  1.00  0.00    -0.238 N 
ATOM     25  H3  UNL     1      -1.982 -33.364  17.960  1.00  0.00     0.188 HD
HETATM   26  N5  UNL     1      -2.065 -36.052  16.326  1.00  0.00    -0.252 N 
ATOM     27  H4  UNL     1      -1.810 -35.855  18.378  1.00  0.00     0.208 HD
HETATM   28  C16 UNL     1      -2.233 -35.150  15.363  1.00  0.00     0.183 A 
BRANCH  26  29
HETATM   29  C10 UNL     1      -2.014 -37.524  16.102  1.00  0.00     0.180 C 
BRANCH  29  30
HETATM   30  C11 UNL     1      -0.603 -37.850  15.893  1.00  0.00    -0.009 C 
BRANCH  30  31
HETATM   31  C12 UNL     1      -0.134 -38.833  14.934  1.00  0.00    -0.029 C 
BRANCH  31  32
HETATM   32  C13 UNL     1      -0.410 -38.787  13.503  1.00  0.00     0.028 C 
BRANCH  32  33
HETATM   33  C14 UNL     1       0.692 -39.166  12.565  1.00  0.00     0.019 C 
BRANCH  33  34
HETATM   34  C15 UNL     1       1.817 -39.875  13.321  1.00  0.00     0.115 C 
HETATM   35 CL1  UNL     1       1.804 -41.608  13.035  1.00  0.00    -0.130 Cl
ENDBRANCH  33  34
ENDBRANCH  32  33
ENDBRANCH  31  32
ENDBRANCH  30  31
ENDBRANCH  29  30
ENDBRANCH  26  29
BRANCH  28  36
HETATM   36  O1  UNL     1      -2.392 -35.473  14.016  1.00  0.00    -0.344 OA
ATOM     37  H1  UNL     1      -2.904 -36.178  13.639  1.00  0.00     0.219 HD
ENDBRANCH  28  36
ENDBRANCH  21  22
ENDBRANCH  20  21
ENDBRANCH   1  20
TORSDOF 16
ENDMDL
