MODEL 1
REMARK VINA RESULT: -7.445745205      0.000      0.000
REMARK  6 active torsions:
REMARK  status: ('A' for Active; 'I' for Inactive)
REMARK    1  A    between atoms: N3_4  and  C2_6 
REMARK    2  A    between atoms: C2_6  and  C3_7 
REMARK    3  A    between atoms: C3_7  and  C4_8 
REMARK    4  A    between atoms: C7_16  and  C8_17 
REMARK    5  A    between atoms: C8_17  and  C9_18 
REMARK    6  A    between atoms: C9_18  and  C10_19 
ROOT
HETATM    1  C4  UNL     1     -33.057 -56.800   7.993  1.00  0.00    -0.018 A 
HETATM    2  C5  UNL     1     -33.837 -56.979   6.833  1.00  0.00     0.102 A 
HETATM    3  N4  UNL     1     -34.796 -57.894   6.842  1.00  0.00    -0.318 N 
ATOM      4  H4  UNL     1     -35.374 -58.042   6.014  1.00  0.00     0.170 HD
HETATM    5  C6  UNL     1     -34.999 -58.624   7.951  1.00  0.00     0.324 A 
HETATM    6  O1  UNL     1     -35.926 -59.493   7.922  1.00  0.00    -0.247 OA
HETATM    7  N5  UNL     1     -34.276 -58.470   9.062  1.00  0.00    -0.312 N 
ATOM      8  H5  UNL     1     -34.472 -59.051   9.877  1.00  0.00     0.170 HD
HETATM    9  C7  UNL     1     -33.266 -57.535   9.118  1.00  0.00     0.021 A 
ENDROOT
BRANCH   9  10
HETATM   10  C8  UNL     1     -32.591 -57.304  10.416  1.00  0.00     0.062 C 
BRANCH  10  11
HETATM   11  C9  UNL     1     -31.621 -58.383  10.728  1.00  0.00     0.044 C 
BRANCH  11  12
HETATM   12  C10 UNL     1     -30.361 -58.425  10.019  1.00  0.00    -0.058 A 
HETATM   13  C11 UNL     1     -29.433 -57.381  10.142  1.00  0.00     0.007 A 
HETATM   14  C12 UNL     1     -28.241 -57.467   9.479  1.00  0.00     0.001 A 
HETATM   15  C13 UNL     1     -27.926 -58.545   8.697  1.00  0.00     0.000 A 
HETATM   16  C14 UNL     1     -28.838 -59.565   8.579  1.00  0.00     0.001 A 
HETATM   17  C15 UNL     1     -30.044 -59.504   9.234  1.00  0.00     0.007 A 
ENDBRANCH  11  12
ENDBRANCH  10  11
ENDBRANCH   9  10
BRANCH   1  18
HETATM   18  C3  UNL     1     -31.894 -55.882   7.910  1.00  0.00     0.061 C 
BRANCH  18  19
HETATM   19  C2  UNL     1     -31.585 -55.620   6.429  1.00  0.00     0.126 C 
BRANCH  19  20
HETATM   20  N3  UNL     1     -30.466 -54.739   6.405  1.00  0.00    -0.367 N 
HETATM   21  C1  UNL     1     -30.600 -53.490   6.171  1.00  0.00     0.196 C 
HETATM   22  N1  UNL     1     -31.884 -52.965   5.932  1.00  0.00    -0.067 NA
HETATM   23  N2  UNL     1     -29.438 -52.646   6.155  1.00  0.00    -0.067 NA
ATOM     24  H3  UNL     1     -29.534 -55.115   6.577  1.00  0.00     0.161 HD
ENDBRANCH  19  20
ENDBRANCH  18  19
ENDBRANCH   1  18
TORSDOF 6
ENDMDL
MODEL 2
REMARK VINA RESULT: -7.429561515      0.169      1.049
REMARK  6 active torsions:
REMARK  status: ('A' for Active; 'I' for Inactive)
REMARK    1  A    between atoms: N3_4  and  C2_6 
REMARK    2  A    between atoms: C2_6  and  C3_7 
REMARK    3  A    between atoms: C3_7  and  C4_8 
REMARK    4  A    between atoms: C7_16  and  C8_17 
REMARK    5  A    between atoms: C8_17  and  C9_18 
REMARK    6  A    between atoms: C9_18  and  C10_19 
ROOT
HETATM    1  C4  UNL     1     -32.967 -56.857   8.076  1.00  0.00    -0.018 A 
HETATM    2  C5  UNL     1     -33.794 -57.056   6.952  1.00  0.00     0.102 A 
HETATM    3  N4  UNL     1     -34.781 -57.936   7.032  1.00  0.00    -0.318 N 
ATOM      4  H4  UNL     1     -35.393 -58.098   6.232  1.00  0.00     0.170 HD
HETATM    5  C6  UNL     1     -34.968 -58.614   8.177  1.00  0.00     0.324 A 
HETATM    6  O1  UNL     1     -35.923 -59.451   8.216  1.00  0.00    -0.247 OA
HETATM    7  N5  UNL     1     -34.201 -58.440   9.255  1.00  0.00    -0.312 N 
ATOM      8  H5  UNL     1     -34.387 -58.980  10.100  1.00  0.00     0.170 HD
HETATM    9  C7  UNL     1     -33.159 -57.538   9.237  1.00  0.00     0.021 A 
ENDROOT
BRANCH   9  10
HETATM   10  C8  UNL     1     -32.431 -57.278  10.500  1.00  0.00     0.062 C 
BRANCH  10  11
HETATM   11  C9  UNL     1     -31.495 -58.382  10.829  1.00  0.00     0.044 C 
BRANCH  11  12
HETATM   12  C10 UNL     1     -30.260 -58.504  10.088  1.00  0.00    -0.058 A 
HETATM   13  C11 UNL     1     -30.011 -59.628   9.288  1.00  0.00     0.007 A 
HETATM   14  C12 UNL     1     -28.844 -59.697   8.580  1.00  0.00     0.001 A 
HETATM   15  C13 UNL     1     -27.909 -58.700   8.630  1.00  0.00     0.000 A 
HETATM   16  C14 UNL     1     -28.155 -57.601   9.416  1.00  0.00     0.001 A 
HETATM   17  C15 UNL     1     -29.320 -57.506  10.138  1.00  0.00     0.007 A 
ENDBRANCH  11  12
ENDBRANCH  10  11
ENDBRANCH   9  10
BRANCH   1  18
HETATM   18  C3  UNL     1     -31.778 -55.983   7.915  1.00  0.00     0.061 C 
BRANCH  18  19
HETATM   19  C2  UNL     1     -31.569 -55.717   6.417  1.00  0.00     0.126 C 
BRANCH  19  20
HETATM   20  N3  UNL     1     -30.479 -54.805   6.322  1.00  0.00    -0.367 N 
HETATM   21  C1  UNL     1     -30.663 -53.561   6.098  1.00  0.00     0.196 C 
HETATM   22  N1  UNL     1     -31.974 -53.073   5.941  1.00  0.00    -0.067 NA
HETATM   23  N2  UNL     1     -29.528 -52.684   6.009  1.00  0.00    -0.067 NA
ATOM     24  H3  UNL     1     -29.527 -55.155   6.435  1.00  0.00     0.161 HD
ENDBRANCH  19  20
ENDBRANCH  18  19
ENDBRANCH   1  18
TORSDOF 6
ENDMDL
MODEL 3
REMARK VINA RESULT: -7.427805021      0.852      1.500
REMARK  6 active torsions:
REMARK  status: ('A' for Active; 'I' for Inactive)
REMARK    1  A    between atoms: N3_4  and  C2_6 
REMARK    2  A    between atoms: C2_6  and  C3_7 
REMARK    3  A    between atoms: C3_7  and  C4_8 
REMARK    4  A    between atoms: C7_16  and  C8_17 
REMARK    5  A    between atoms: C8_17  and  C9_18 
REMARK    6  A    between atoms: C9_18  and  C10_19 
ROOT
HETATM    1  C4  UNL     1     -33.035 -57.353   7.402  1.00  0.00    -0.018 A 
HETATM    2  C5  UNL     1     -33.605 -58.106   6.357  1.00  0.00     0.102 A 
HETATM    3  N4  UNL     1     -34.696 -58.817   6.601  1.00  0.00    -0.318 N 
ATOM      4  H4  UNL     1     -35.127 -59.370   5.860  1.00  0.00     0.170 HD
HETATM    5  C6  UNL     1     -35.229 -58.802   7.835  1.00  0.00     0.324 A 
HETATM    6  O1  UNL     1     -36.273 -59.498   8.033  1.00  0.00    -0.247 OA
HETATM    7  N5  UNL     1     -34.709 -58.095   8.839  1.00  0.00    -0.312 N 
ATOM      8  H5  UNL     1     -35.154 -58.118   9.757  1.00  0.00     0.170 HD
HETATM    9  C7  UNL     1     -33.577 -57.332   8.649  1.00  0.00     0.021 A 
ENDROOT
BRANCH   9  10
HETATM   10  C8  UNL     1     -33.125 -56.455   9.753  1.00  0.00     0.062 C 
BRANCH  10  11
HETATM   11  C9  UNL     1     -32.465 -57.230  10.834  1.00  0.00     0.044 C 
BRANCH  11  12
HETATM   12  C10 UNL     1     -31.397 -58.143  10.495  1.00  0.00    -0.058 A 
HETATM   13  C11 UNL     1     -31.651 -59.511  10.316  1.00  0.00     0.007 A 
HETATM   14  C12 UNL     1     -30.622 -60.341   9.970  1.00  0.00     0.001 A 
HETATM   15  C13 UNL     1     -29.348 -59.875   9.793  1.00  0.00     0.000 A 
HETATM   16  C14 UNL     1     -29.102 -58.535   9.969  1.00  0.00     0.001 A 
HETATM   17  C15 UNL     1     -30.118 -57.679  10.318  1.00  0.00     0.007 A 
ENDBRANCH  11  12
ENDBRANCH  10  11
ENDBRANCH   9  10
BRANCH   1  18
HETATM   18  C3  UNL     1     -31.733 -56.689   7.147  1.00  0.00     0.061 C 
BRANCH  18  19
HETATM   19  C2  UNL     1     -31.913 -55.686   5.999  1.00  0.00     0.126 C 
BRANCH  19  20
HETATM   20  N3  UNL     1     -30.755 -54.857   6.006  1.00  0.00    -0.367 N 
HETATM   21  C1  UNL     1     -30.842 -53.582   6.002  1.00  0.00     0.196 C 
HETATM   22  N1  UNL     1     -32.112 -52.976   5.990  1.00  0.00    -0.067 NA
HETATM   23  N2  UNL     1     -29.642 -52.793   6.007  1.00  0.00    -0.067 NA
ATOM     24  H3  UNL     1     -29.833 -55.293   6.015  1.00  0.00     0.161 HD
ENDBRANCH  19  20
ENDBRANCH  18  19
ENDBRANCH   1  18
TORSDOF 6
ENDMDL
MODEL 4
REMARK VINA RESULT: -7.369222036      0.963      1.322
REMARK  6 active torsions:
REMARK  status: ('A' for Active; 'I' for Inactive)
REMARK    1  A    between atoms: N3_4  and  C2_6 
REMARK    2  A    between atoms: C2_6  and  C3_7 
REMARK    3  A    between atoms: C3_7  and  C4_8 
REMARK    4  A    between atoms: C7_16  and  C8_17 
REMARK    5  A    between atoms: C8_17  and  C9_18 
REMARK    6  A    between atoms: C9_18  and  C10_19 
ROOT
HETATM    1  C4  UNL     1     -32.997 -57.246   7.072  1.00  0.00    -0.018 A 
HETATM    2  C5  UNL     1     -33.486 -57.976   5.970  1.00  0.00     0.102 A 
HETATM    3  N4  UNL     1     -34.590 -58.694   6.118  1.00  0.00    -0.318 N 
ATOM      4  H4  UNL     1     -34.963 -59.231   5.335  1.00  0.00     0.170 HD
HETATM    5  C6  UNL     1     -35.213 -58.707   7.309  1.00  0.00     0.324 A 
HETATM    6  O1  UNL     1     -36.267 -59.408   7.413  1.00  0.00    -0.247 OA
HETATM    7  N5  UNL     1     -34.771 -58.021   8.364  1.00  0.00    -0.312 N 
ATOM      8  H5  UNL     1     -35.282 -58.065   9.246  1.00  0.00     0.170 HD
HETATM    9  C7  UNL     1     -33.629 -57.253   8.275  1.00  0.00     0.021 A 
ENDROOT
BRANCH   9  10
HETATM   10  C8  UNL     1     -33.263 -56.400   9.429  1.00  0.00     0.062 C 
BRANCH  10  11
HETATM   11  C9  UNL     1     -32.729 -57.204  10.557  1.00  0.00     0.044 C 
BRANCH  11  12
HETATM   12  C10 UNL     1     -31.642 -58.126  10.314  1.00  0.00    -0.058 A 
HETATM   13  C11 UNL     1     -30.317 -57.672  10.249  1.00  0.00     0.007 A 
HETATM   14  C12 UNL     1     -29.312 -58.575  10.044  1.00  0.00     0.001 A 
HETATM   15  C13 UNL     1     -29.562 -59.912   9.900  1.00  0.00     0.000 A 
HETATM   16  C14 UNL     1     -30.861 -60.354   9.964  1.00  0.00     0.001 A 
HETATM   17  C15 UNL     1     -31.890 -59.467  10.168  1.00  0.00     0.007 A 
ENDBRANCH  11  12
ENDBRANCH  10  11
ENDBRANCH   9  10
BRANCH   1  18
HETATM   18  C3  UNL     1     -31.681 -56.575   6.929  1.00  0.00     0.061 C 
BRANCH  18  19
HETATM   19  C2  UNL     1     -31.719 -55.690   5.674  1.00  0.00     0.126 C 
BRANCH  19  20
HETATM   20  N3  UNL     1     -30.606 -54.807   5.774  1.00  0.00    -0.367 N 
HETATM   21  C1  UNL     1     -30.760 -53.549   5.927  1.00  0.00     0.196 C 
HETATM   22  N1  UNL     1     -32.060 -53.014   6.000  1.00  0.00    -0.067 NA
HETATM   23  N2  UNL     1     -29.603 -52.702   6.019  1.00  0.00    -0.067 NA
ATOM     24  H3  UNL     1     -29.662 -55.190   5.722  1.00  0.00     0.161 HD
ENDBRANCH  19  20
ENDBRANCH  18  19
ENDBRANCH   1  18
TORSDOF 6
ENDMDL
MODEL 5
REMARK VINA RESULT: -7.322136181      1.912      2.579
REMARK  6 active torsions:
REMARK  status: ('A' for Active; 'I' for Inactive)
REMARK    1  A    between atoms: N3_4  and  C2_6 
REMARK    2  A    between atoms: C2_6  and  C3_7 
REMARK    3  A    between atoms: C3_7  and  C4_8 
REMARK    4  A    between atoms: C7_16  and  C8_17 
REMARK    5  A    between atoms: C8_17  and  C9_18 
REMARK    6  A    between atoms: C9_18  and  C10_19 
ROOT
HETATM    1  C4  UNL     1     -33.302 -56.433   6.420  1.00  0.00    -0.018 A 
HETATM    2  C5  UNL     1     -33.785 -55.184   5.981  1.00  0.00     0.102 A 
HETATM    3  N4  UNL     1     -35.068 -55.067   5.673  1.00  0.00    -0.318 N 
ATOM      4  H4  UNL     1     -35.441 -54.173   5.352  1.00  0.00     0.170 HD
HETATM    5  C6  UNL     1     -35.874 -56.136   5.787  1.00  0.00     0.324 A 
HETATM    6  O1  UNL     1     -37.097 -55.986   5.481  1.00  0.00    -0.247 OA
HETATM    7  N5  UNL     1     -35.440 -57.327   6.204  1.00  0.00    -0.312 N 
ATOM      8  H5  UNL     1     -36.094 -58.107   6.274  1.00  0.00     0.170 HD
HETATM    9  C7  UNL     1     -34.117 -57.515   6.542  1.00  0.00     0.021 A 
ENDROOT
BRANCH   9  10
HETATM   10  C8  UNL     1     -33.719 -58.811   7.134  1.00  0.00     0.062 C 
BRANCH  10  11
HETATM   11  C9  UNL     1     -33.819 -58.791   8.615  1.00  0.00     0.044 C 
BRANCH  11  12
HETATM   12  C10 UNL     1     -32.609 -58.835   9.405  1.00  0.00    -0.058 A 
HETATM   13  C11 UNL     1     -32.238 -57.750  10.211  1.00  0.00     0.007 A 
HETATM   14  C12 UNL     1     -31.102 -57.837  10.965  1.00  0.00     0.001 A 
HETATM   15  C13 UNL     1     -30.314 -58.956  10.956  1.00  0.00     0.000 A 
HETATM   16  C14 UNL     1     -30.680 -60.017  10.165  1.00  0.00     0.001 A 
HETATM   17  C15 UNL     1     -31.817 -59.955   9.397  1.00  0.00     0.007 A 
ENDBRANCH  11  12
ENDBRANCH  10  11
ENDBRANCH   9  10
BRANCH   1  18
HETATM   18  C3  UNL     1     -31.838 -56.581   6.611  1.00  0.00     0.061 C 
BRANCH  18  19
HETATM   19  C2  UNL     1     -31.283 -55.261   7.164  1.00  0.00     0.126 C 
BRANCH  19  20
HETATM   20  N3  UNL     1     -30.384 -54.761   6.179  1.00  0.00    -0.367 N 
HETATM   21  C1  UNL     1     -30.447 -53.555   5.763  1.00  0.00     0.196 C 
HETATM   22  N1  UNL     1     -31.428 -52.693   6.288  1.00  0.00    -0.067 NA
HETATM   23  N2  UNL     1     -29.518 -53.103   4.765  1.00  0.00    -0.067 NA
ATOM     24  H3  UNL     1     -29.671 -55.383   5.796  1.00  0.00     0.161 HD
ENDBRANCH  19  20
ENDBRANCH  18  19
ENDBRANCH   1  18
TORSDOF 6
ENDMDL
