MODEL 1
REMARK VINA RESULT: -6.403942313      0.000      0.000
REMARK  7 active torsions:
REMARK  status: ('A' for Active; 'I' for Inactive)
REMARK    1  A    between atoms: N1_1  and  C1_5 
REMARK    2  A    between atoms: C1_5  and  C2_6 
REMARK    3  A    between atoms: C2_6  and  C3_7 
REMARK    4  A    between atoms: C3_7  and  C4_8 
REMARK    5  A    between atoms: N3_15  and  C9_17 
REMARK    6  A    between atoms: C9_17  and  C10_18 
REMARK    7  A    between atoms: C10_18  and  N4_19 
ROOT
HETATM    1  C4  UNL     1     -29.865 -53.931   4.769  1.00  0.00     0.003 C 
HETATM    2  C5  UNL     1     -30.952 -54.394   5.306  1.00  0.00     0.046 A 
HETATM    3  C6  UNL     1     -32.191 -54.698   4.612  1.00  0.00     0.047 A 
HETATM    4  C7  UNL     1     -33.286 -55.169   5.208  1.00  0.00     0.108 A 
HETATM    5  N2  UNL     1     -33.273 -55.397   6.604  1.00  0.00    -0.202 N 
ATOM      6  H2  UNL     1     -34.116 -55.757   7.051  1.00  0.00     0.183 HD
HETATM    7  C8  UNL     1     -32.131 -55.143   7.404  1.00  0.00     0.678 A 
HETATM    8  N3  UNL     1     -32.162 -55.356   8.658  1.00  0.00    -0.224 N 
ATOM      9  H3  UNL     1     -31.320 -55.161   9.200  1.00  0.00     0.177 HD
HETATM   10  N5  UNL     1     -30.987 -54.643   6.733  1.00  0.00    -0.192 N 
ATOM     11  H5  UNL     1     -30.149 -54.448   7.281  1.00  0.00     0.184 HD
ENDROOT
BRANCH   8  12
HETATM   12  C9  UNL     1     -33.318 -55.857   9.353  1.00  0.00     0.168 C 
BRANCH  12  13
HETATM   13  C10 UNL     1     -32.865 -56.909  10.367  1.00  0.00     0.292 C 
BRANCH  13  14
HETATM   14  N4  UNL     1     -31.775 -57.708   9.863  1.00  0.00     0.090 N 
HETATM   15  C11 UNL     1     -30.736 -57.810  10.837  1.00  0.00     0.272 C 
HETATM   16  C12 UNL     1     -30.623 -59.256  11.267  1.00  0.00     0.030 C 
HETATM   17  C13 UNL     1     -30.020 -60.005  10.075  1.00  0.00     0.003 C 
HETATM   18  C14 UNL     1     -31.003 -59.851   8.950  1.00  0.00     0.030 C 
HETATM   19  C15 UNL     1     -32.154 -58.953   9.302  1.00  0.00     0.272 C 
ENDBRANCH  13  14
ENDBRANCH  12  13
ENDBRANCH   8  12
BRANCH   1  20
HETATM   20  C3  UNL     1     -29.717 -53.635   3.339  1.00  0.00     0.031 C 
BRANCH  20  21
HETATM   21  C2  UNL     1     -29.084 -54.783   2.572  1.00  0.00     0.031 C 
BRANCH  21  22
HETATM   22  C1  UNL     1     -27.615 -54.508   2.408  1.00  0.00     0.230 C 
BRANCH  22  23
HETATM   23  N1  UNL     1     -26.863 -55.501   3.174  1.00  0.00    -0.079 N 
ATOM     24  H13 UNL     1     -27.316 -56.416   3.179  1.00  0.00     0.274 HD
ATOM     25  H12 UNL     1     -25.996 -55.776   2.713  1.00  0.00     0.274 HD
ATOM     26  H11 UNL     1     -26.707 -55.140   4.114  1.00  0.00     0.274 HD
ENDBRANCH  22  23
ENDBRANCH  21  22
ENDBRANCH  20  21
ENDBRANCH   1  20
TORSDOF 7
ENDMDL
MODEL 2
REMARK VINA RESULT: -6.377864062      4.962      7.639
REMARK  7 active torsions:
REMARK  status: ('A' for Active; 'I' for Inactive)
REMARK    1  A    between atoms: N1_1  and  C1_5 
REMARK    2  A    between atoms: C1_5  and  C2_6 
REMARK    3  A    between atoms: C2_6  and  C3_7 
REMARK    4  A    between atoms: C3_7  and  C4_8 
REMARK    5  A    between atoms: N3_15  and  C9_17 
REMARK    6  A    between atoms: C9_17  and  C10_18 
REMARK    7  A    between atoms: C10_18  and  N4_19 
ROOT
HETATM    1  C4  UNL     1     -26.827 -48.415   1.546  1.00  0.00     0.003 C 
HETATM    2  C5  UNL     1     -27.826 -49.244   1.547  1.00  0.00     0.046 A 
HETATM    3  C6  UNL     1     -29.198 -48.937   1.184  1.00  0.00     0.047 A 
HETATM    4  C7  UNL     1     -30.193 -49.823   1.205  1.00  0.00     0.108 A 
HETATM    5  N2  UNL     1     -29.928 -51.156   1.601  1.00  0.00    -0.202 N 
ATOM      6  H2  UNL     1     -30.696 -51.826   1.614  1.00  0.00     0.183 HD
HETATM    7  C8  UNL     1     -28.634 -51.591   1.981  1.00  0.00     0.678 A 
HETATM    8  N3  UNL     1     -28.438 -52.797   2.337  1.00  0.00    -0.224 N 
ATOM      9  H3  UNL     1     -27.494 -53.073   2.603  1.00  0.00     0.177 HD
HETATM   10  N5  UNL     1     -27.603 -50.619   1.946  1.00  0.00    -0.192 N 
ATOM     11  H5  UNL     1     -26.660 -50.901   2.215  1.00  0.00     0.184 HD
ENDROOT
BRANCH   8  12
HETATM   12  C9  UNL     1     -29.477 -53.793   2.383  1.00  0.00     0.168 C 
BRANCH  12  13
HETATM   13  C10 UNL     1     -29.322 -54.607   3.669  1.00  0.00     0.292 C 
BRANCH  13  14
HETATM   14  N4  UNL     1     -30.590 -55.088   4.158  1.00  0.00     0.090 N 
HETATM   15  C11 UNL     1     -30.707 -54.856   5.562  1.00  0.00     0.272 C 
HETATM   16  C12 UNL     1     -31.830 -53.869   5.793  1.00  0.00     0.030 C 
HETATM   17  C13 UNL     1     -33.126 -54.623   5.483  1.00  0.00     0.003 C 
HETATM   18  C14 UNL     1     -33.040 -55.015   4.036  1.00  0.00     0.030 C 
HETATM   19  C15 UNL     1     -31.719 -54.662   3.414  1.00  0.00     0.272 C 
ENDBRANCH  13  14
ENDBRANCH  12  13
ENDBRANCH   8  12
BRANCH   1  20
HETATM   20  C3  UNL     1     -26.935 -47.000   1.169  1.00  0.00     0.031 C 
BRANCH  20  21
HETATM   21  C2  UNL     1     -25.581 -46.368   0.897  1.00  0.00     0.031 C 
BRANCH  21  22
HETATM   22  C1  UNL     1     -24.677 -47.401   0.282  1.00  0.00     0.230 C 
BRANCH  22  23
HETATM   23  N1  UNL     1     -23.530 -46.722  -0.320  1.00  0.00    -0.079 N 
ATOM     24  H13 UNL     1     -23.460 -45.745  -0.034  1.00  0.00     0.274 HD
ATOM     25  H12 UNL     1     -22.641 -47.045   0.061  1.00  0.00     0.274 HD
ATOM     26  H11 UNL     1     -23.581 -46.828  -1.333  1.00  0.00     0.274 HD
ENDBRANCH  22  23
ENDBRANCH  21  22
ENDBRANCH  20  21
ENDBRANCH   1  20
TORSDOF 7
ENDMDL
MODEL 3
REMARK VINA RESULT: -6.273534449      3.333      5.214
REMARK  7 active torsions:
REMARK  status: ('A' for Active; 'I' for Inactive)
REMARK    1  A    between atoms: N1_1  and  C1_5 
REMARK    2  A    between atoms: C1_5  and  C2_6 
REMARK    3  A    between atoms: C2_6  and  C3_7 
REMARK    4  A    between atoms: C3_7  and  C4_8 
REMARK    5  A    between atoms: N3_15  and  C9_17 
REMARK    6  A    between atoms: C9_17  and  C10_18 
REMARK    7  A    between atoms: C10_18  and  N4_19 
ROOT
HETATM    1  C4  UNL     1     -35.818 -56.029   6.318  1.00  0.00     0.003 C 
HETATM    2  C5  UNL     1     -34.726 -55.882   7.005  1.00  0.00     0.046 A 
HETATM    3  C6  UNL     1     -33.581 -55.069   6.637  1.00  0.00     0.047 A 
HETATM    4  C7  UNL     1     -32.478 -54.953   7.375  1.00  0.00     0.108 A 
HETATM    5  N2  UNL     1     -32.385 -55.654   8.600  1.00  0.00    -0.202 N 
ATOM      6  H2  UNL     1     -31.537 -55.558   9.157  1.00  0.00     0.183 HD
HETATM    7  C8  UNL     1     -33.429 -56.484   9.080  1.00  0.00     0.678 A 
HETATM    8  N3  UNL     1     -33.304 -57.102  10.185  1.00  0.00    -0.224 N 
ATOM      9  H3  UNL     1     -34.076 -57.690  10.498  1.00  0.00     0.177 HD
HETATM   10  N5  UNL     1     -34.585 -56.581   8.267  1.00  0.00    -0.192 N 
ATOM     11  H5  UNL     1     -35.354 -57.172   8.584  1.00  0.00     0.184 HD
ENDROOT
BRANCH   8  12
HETATM   12  C9  UNL     1     -32.133 -57.017  11.018  1.00  0.00     0.168 C 
BRANCH  12  13
HETATM   13  C10 UNL     1     -31.364 -58.336  10.923  1.00  0.00     0.292 C 
BRANCH  13  14
HETATM   14  N4  UNL     1     -30.451 -58.347   9.806  1.00  0.00     0.090 N 
HETATM   15  C11 UNL     1     -29.597 -57.203   9.846  1.00  0.00     0.272 C 
HETATM   16  C12 UNL     1     -28.176 -57.675  10.061  1.00  0.00     0.030 C 
HETATM   17  C13 UNL     1     -27.751 -58.348   8.753  1.00  0.00     0.003 C 
HETATM   18  C14 UNL     1     -28.683 -59.510   8.565  1.00  0.00     0.030 C 
HETATM   19  C15 UNL     1     -29.760 -59.568   9.610  1.00  0.00     0.272 C 
ENDBRANCH  13  14
ENDBRANCH  12  13
ENDBRANCH   8  12
BRANCH   1  20
HETATM   20  C3  UNL     1     -36.068 -55.377   5.026  1.00  0.00     0.031 C 
BRANCH  20  21
HETATM   21  C2  UNL     1     -37.030 -56.168   4.156  1.00  0.00     0.031 C 
BRANCH  21  22
HETATM   22  C1  UNL     1     -38.214 -55.302   3.827  1.00  0.00     0.230 C 
BRANCH  22  23
HETATM   23  N1  UNL     1     -39.379 -55.804   4.553  1.00  0.00    -0.079 N 
ATOM     24  H13 UNL     1     -40.103 -56.163   3.930  1.00  0.00     0.274 HD
ATOM     25  H12 UNL     1     -39.183 -56.670   5.055  1.00  0.00     0.274 HD
ATOM     26  H11 UNL     1     -39.725 -55.067   5.167  1.00  0.00     0.274 HD
ENDBRANCH  22  23
ENDBRANCH  21  22
ENDBRANCH  20  21
ENDBRANCH   1  20
TORSDOF 7
ENDMDL
MODEL 4
REMARK VINA RESULT: -6.221709155      3.321      5.121
REMARK  7 active torsions:
REMARK  status: ('A' for Active; 'I' for Inactive)
REMARK    1  A    between atoms: N1_1  and  C1_5 
REMARK    2  A    between atoms: C1_5  and  C2_6 
REMARK    3  A    between atoms: C2_6  and  C3_7 
REMARK    4  A    between atoms: C3_7  and  C4_8 
REMARK    5  A    between atoms: N3_15  and  C9_17 
REMARK    6  A    between atoms: C9_17  and  C10_18 
REMARK    7  A    between atoms: C10_18  and  N4_19 
ROOT
HETATM    1  C4  UNL     1     -35.556 -55.666   6.763  1.00  0.00     0.003 C 
HETATM    2  C5  UNL     1     -34.412 -55.733   7.373  1.00  0.00     0.046 A 
HETATM    3  C6  UNL     1     -33.151 -55.193   6.897  1.00  0.00     0.047 A 
HETATM    4  C7  UNL     1     -31.998 -55.292   7.557  1.00  0.00     0.108 A 
HETATM    5  N2  UNL     1     -31.967 -55.961   8.803  1.00  0.00    -0.202 N 
ATOM      6  H2  UNL     1     -31.079 -56.031   9.301  1.00  0.00     0.183 HD
HETATM    7  C8  UNL     1     -33.124 -56.536   9.385  1.00  0.00     0.678 A 
HETATM    8  N3  UNL     1     -33.052 -57.134  10.506  1.00  0.00    -0.224 N 
ATOM      9  H3  UNL     1     -33.906 -57.535  10.892  1.00  0.00     0.177 HD
HETATM   10  N5  UNL     1     -34.330 -56.410   8.652  1.00  0.00    -0.192 N 
ATOM     11  H5  UNL     1     -35.181 -56.814   9.043  1.00  0.00     0.184 HD
ENDROOT
BRANCH   8  12
HETATM   12  C9  UNL     1     -31.833 -57.275  11.258  1.00  0.00     0.168 C 
BRANCH  12  13
HETATM   13  C10 UNL     1     -31.339 -58.717  11.129  1.00  0.00     0.292 C 
BRANCH  13  14
HETATM   14  N4  UNL     1     -29.960 -58.778  10.712  1.00  0.00     0.090 N 
HETATM   15  C11 UNL     1     -29.737 -59.919   9.882  1.00  0.00     0.272 C 
HETATM   16  C12 UNL     1     -29.364 -59.439   8.497  1.00  0.00     0.030 C 
HETATM   17  C13 UNL     1     -27.956 -58.850   8.618  1.00  0.00     0.003 C 
HETATM   18  C14 UNL     1     -28.070 -57.699   9.577  1.00  0.00     0.030 C 
HETATM   19  C15 UNL     1     -29.443 -57.573  10.174  1.00  0.00     0.272 C 
ENDBRANCH  13  14
ENDBRANCH  12  13
ENDBRANCH   8  12
BRANCH   1  20
HETATM   20  C3  UNL     1     -35.757 -55.014   5.463  1.00  0.00     0.031 C 
BRANCH  20  21
HETATM   21  C2  UNL     1     -36.426 -55.930   4.454  1.00  0.00     0.031 C 
BRANCH  21  22
HETATM   22  C1  UNL     1     -37.599 -55.210   3.846  1.00  0.00     0.230 C 
BRANCH  22  23
HETATM   23  N1  UNL     1     -38.828 -55.894   4.246  1.00  0.00    -0.079 N 
ATOM     24  H13 UNL     1     -38.651 -56.823   4.629  1.00  0.00     0.274 HD
ATOM     25  H12 UNL     1     -39.253 -55.479   5.075  1.00  0.00     0.274 HD
ATOM     26  H11 UNL     1     -39.465 -55.915   3.451  1.00  0.00     0.274 HD
ENDBRANCH  22  23
ENDBRANCH  21  22
ENDBRANCH  20  21
ENDBRANCH   1  20
TORSDOF 7
ENDMDL
MODEL 5
REMARK VINA RESULT: -6.174821072      1.888      7.806
REMARK  7 active torsions:
REMARK  status: ('A' for Active; 'I' for Inactive)
REMARK    1  A    between atoms: N1_1  and  C1_5 
REMARK    2  A    between atoms: C1_5  and  C2_6 
REMARK    3  A    between atoms: C2_6  and  C3_7 
REMARK    4  A    between atoms: C3_7  and  C4_8 
REMARK    5  A    between atoms: N3_15  and  C9_17 
REMARK    6  A    between atoms: C9_17  and  C10_18 
REMARK    7  A    between atoms: C10_18  and  N4_19 
ROOT
HETATM    1  C4  UNL     1     -31.924 -58.011   8.862  1.00  0.00     0.003 C 
HETATM    2  C5  UNL     1     -31.121 -57.138   8.335  1.00  0.00     0.046 A 
HETATM    3  C6  UNL     1     -29.924 -56.590   8.947  1.00  0.00     0.047 A 
HETATM    4  C7  UNL     1     -29.133 -55.689   8.367  1.00  0.00     0.108 A 
HETATM    5  N2  UNL     1     -29.452 -55.215   7.072  1.00  0.00    -0.202 N 
ATOM      6  H2  UNL     1     -28.840 -54.526   6.637  1.00  0.00     0.183 HD
HETATM    7  C8  UNL     1     -30.591 -55.665   6.359  1.00  0.00     0.678 A 
HETATM    8  N3  UNL     1     -30.846 -55.210   5.199  1.00  0.00    -0.224 N 
ATOM      9  H3  UNL     1     -31.675 -55.557   4.717  1.00  0.00     0.177 HD
HETATM   10  N5  UNL     1     -31.408 -56.623   7.010  1.00  0.00    -0.192 N 
ATOM     11  H5  UNL     1     -32.236 -56.966   6.524  1.00  0.00     0.184 HD
ENDROOT
BRANCH   8  12
HETATM   12  C9  UNL     1     -30.029 -54.232   4.528  1.00  0.00     0.168 C 
BRANCH  12  13
HETATM   13  C10 UNL     1     -30.259 -54.350   3.021  1.00  0.00     0.292 C 
BRANCH  13  14
HETATM   14  N4  UNL     1     -29.032 -54.205   2.276  1.00  0.00     0.090 N 
HETATM   15  C11 UNL     1     -28.944 -52.899   1.705  1.00  0.00     0.272 C 
HETATM   16  C12 UNL     1     -27.777 -52.176   2.342  1.00  0.00     0.030 C 
HETATM   17  C13 UNL     1     -26.515 -52.851   1.798  1.00  0.00     0.003 C 
HETATM   18  C14 UNL     1     -26.580 -54.280   2.257  1.00  0.00     0.030 C 
HETATM   19  C15 UNL     1     -27.862 -54.605   2.968  1.00  0.00     0.272 C 
ENDBRANCH  13  14
ENDBRANCH  12  13
ENDBRANCH   8  12
BRANCH   1  20
HETATM   20  C3  UNL     1     -31.738 -58.595  10.197  1.00  0.00     0.031 C 
BRANCH  20  21
HETATM   21  C2  UNL     1     -31.335 -60.059  10.137  1.00  0.00     0.031 C 
BRANCH  21  22
HETATM   22  C1  UNL     1     -29.851 -60.145   9.912  1.00  0.00     0.230 C 
BRANCH  22  23
HETATM   23  N1  UNL     1     -29.178 -59.282  10.883  1.00  0.00    -0.079 N 
ATOM     24  H13 UNL     1     -29.219 -59.656  11.831  1.00  0.00     0.274 HD
ATOM     25  H12 UNL     1     -28.164 -59.287  10.773  1.00  0.00     0.274 HD
ATOM     26  H11 UNL     1     -29.573 -58.345  10.816  1.00  0.00     0.274 HD
ENDBRANCH  22  23
ENDBRANCH  21  22
ENDBRANCH  20  21
ENDBRANCH   1  20
TORSDOF 7
ENDMDL
