MODEL 1
REMARK VINA RESULT: -6.765733986      0.000      0.000
REMARK  12 active torsions:
REMARK  status: ('A' for Active; 'I' for Inactive)
REMARK    1  A    between atoms: C2_2  and  N1_3 
REMARK       I    between atoms: C3_5  and  N3_7 
REMARK    2  A    between atoms: N3_7  and  C4_9 
REMARK    3  A    between atoms: C6_13  and  C7_14 
REMARK    4  A    between atoms: C7_14  and  C8_15 
REMARK    5  A    between atoms: C8_15  and  C9_16 
REMARK    6  A    between atoms: C9_16  and  C10_17 
REMARK    7  A    between atoms: C10_17  and  C11_18 
REMARK    8  A    between atoms: C11_18  and  C12_19 
REMARK    9  A    between atoms: C17_25  and  C18_26 
REMARK   10  A    between atoms: C18_26  and  C19_27 
REMARK   11  A    between atoms: C20_28  and  C21_29 
REMARK   12  A    between atoms: C22_30  and  C23_31 
ROOT
HETATM    1  C12 UNL     1     -26.581   4.156  48.096  1.00  0.00    -0.048 A 
HETATM    2  C13 UNL     1     -26.027   3.003  47.576  1.00  0.00     0.025 A 
HETATM    3  C14 UNL     1     -24.704   2.643  47.783  1.00  0.00     0.090 A 
HETATM    4  N5  UNL     1     -23.904   3.427  48.515  1.00  0.00    -0.370 N 
HETATM    5  C15 UNL     1     -22.516   3.081  48.739  1.00  0.00     0.154 C 
HETATM    6  C16 UNL     1     -24.427   4.549  49.027  1.00  0.00     0.098 A 
HETATM    7  C17 UNL     1     -25.741   4.946  48.848  1.00  0.00    -0.025 A 
ENDROOT
BRANCH   1   8
HETATM    8  C11 UNL     1     -27.964   4.590  47.896  1.00  0.00     0.039 C 
BRANCH   8   9
HETATM    9  C10 UNL     1     -29.035   3.715  48.431  1.00  0.00     0.005 C 
BRANCH   9  10
HETATM   10  C9  UNL     1     -29.669   4.252  49.649  1.00  0.00     0.001 C 
BRANCH  10  11
HETATM   11  C8  UNL     1     -28.859   4.033  50.938  1.00  0.00     0.005 C 
BRANCH  11  12
HETATM   12  C7  UNL     1     -29.559   4.892  51.970  1.00  0.00     0.048 C 
BRANCH  12  13
HETATM   13  C6  UNL     1     -28.914   6.234  52.026  1.00  0.00     0.001 A 
HETATM   14  C5  UNL     1     -29.223   7.379  51.354  1.00  0.00     0.104 A 
HETATM   15  N4  UNL     1     -28.520   8.452  51.585  1.00  0.00    -0.345 N 
HETATM   16  C4  UNL     1     -27.525   8.373  52.474  1.00  0.00     0.151 A 
ATOM     17  H4  UNL     1     -28.722   9.327  51.101  1.00  0.00     0.167 HD
HETATM   18  S1  UNL     1     -27.593   6.748  52.989  1.00  0.00    -0.057 SA
BRANCH  16  19
HETATM   19  N3  UNL     1     -26.707   9.339  52.837  1.00  0.00    -0.311 N 
HETATM   20  C3  UNL     1     -27.301  10.607  53.060  1.00  0.00     0.190 C 
HETATM   21  N1  UNL     1     -28.171  10.715  54.001  1.00  0.00    -0.365 N 
HETATM   22  N2  UNL     1     -26.928  11.732  52.243  1.00  0.00    -0.063 NA
ATOM     23  H1  UNL     1     -28.383   9.875  54.538  1.00  0.00     0.162 HD
ATOM     24  H3  UNL     1     -25.705   9.184  52.950  1.00  0.00     0.170 HD
BRANCH  21  25
HETATM   25  C2  UNL     1     -28.863  11.908  54.356  1.00  0.00     0.118 C 
HETATM   26  C1  UNL     1     -30.204  11.932  53.681  1.00  0.00     0.026 C 
ENDBRANCH  21  25
ENDBRANCH  16  19
ENDBRANCH  12  13
ENDBRANCH  11  12
ENDBRANCH  10  11
ENDBRANCH   9  10
ENDBRANCH   8   9
ENDBRANCH   1   8
BRANCH   7  27
HETATM   27  C18 UNL     1     -26.169   6.196  49.526  1.00  0.00     0.135 C 
BRANCH  27  28
HETATM   28  C19 UNL     1     -25.566   7.341  48.787  1.00  0.00    -0.088 C 
HETATM   29  C20 UNL     1     -25.063   8.247  48.172  1.00  0.00    -0.014 C 
BRANCH  29  30
HETATM   30  C21 UNL     1     -24.448   9.297  47.430  1.00  0.00    -0.008 C 
HETATM   31  C22 UNL     1     -23.924  10.186  46.772  1.00  0.00    -0.034 C 
BRANCH  31  32
HETATM   32  C23 UNL     1     -23.303  11.218  45.988  1.00  0.00     0.097 A 
HETATM   33  C24 UNL     1     -24.061  12.169  45.319  1.00  0.00     0.113 A 
HETATM   34  C25 UNL     1     -23.448  13.151  44.574  1.00  0.00     0.252 A 
HETATM   35  O1  UNL     1     -24.180  13.976  43.998  1.00  0.00    -0.268 OA
HETATM   36  N6  UNL     1     -22.098  13.145  44.524  1.00  0.00    -0.275 N 
HETATM   37  C26 UNL     1     -21.348  12.232  45.164  1.00  0.00     0.328 A 
ATOM     38  H6  UNL     1     -21.627  13.866  43.977  1.00  0.00     0.173 HD
HETATM   39  O2  UNL     1     -20.085  12.285  45.073  1.00  0.00    -0.247 OA
HETATM   40  N7  UNL     1     -21.964  11.267  45.897  1.00  0.00    -0.301 N 
ATOM     41  H7  UNL     1     -21.402  10.570  46.386  1.00  0.00     0.171 HD
ENDBRANCH  31  32
ENDBRANCH  29  30
ENDBRANCH  27  28
ENDBRANCH   7  27
TORSDOF 12
ENDMDL
MODEL 2
REMARK VINA RESULT: -6.716107029      2.048      4.186
REMARK  12 active torsions:
REMARK  status: ('A' for Active; 'I' for Inactive)
REMARK    1  A    between atoms: C2_2  and  N1_3 
REMARK       I    between atoms: C3_5  and  N3_7 
REMARK    2  A    between atoms: N3_7  and  C4_9 
REMARK    3  A    between atoms: C6_13  and  C7_14 
REMARK    4  A    between atoms: C7_14  and  C8_15 
REMARK    5  A    between atoms: C8_15  and  C9_16 
REMARK    6  A    between atoms: C9_16  and  C10_17 
REMARK    7  A    between atoms: C10_17  and  C11_18 
REMARK    8  A    between atoms: C11_18  and  C12_19 
REMARK    9  A    between atoms: C17_25  and  C18_26 
REMARK   10  A    between atoms: C18_26  and  C19_27 
REMARK   11  A    between atoms: C20_28  and  C21_29 
REMARK   12  A    between atoms: C22_30  and  C23_31 
ROOT
HETATM    1  C12 UNL     1     -25.397   4.136  48.522  1.00  0.00    -0.048 A 
HETATM    2  C13 UNL     1     -25.513   3.117  47.598  1.00  0.00     0.025 A 
HETATM    3  C14 UNL     1     -26.618   2.972  46.772  1.00  0.00     0.090 A 
HETATM    4  N5  UNL     1     -27.630   3.843  46.851  1.00  0.00    -0.370 N 
HETATM    5  C15 UNL     1     -28.800   3.711  46.007  1.00  0.00     0.154 C 
HETATM    6  C16 UNL     1     -27.531   4.839  47.741  1.00  0.00     0.098 A 
HETATM    7  C17 UNL     1     -26.448   5.022  48.584  1.00  0.00    -0.025 A 
ENDROOT
BRANCH   1   8
HETATM    8  C11 UNL     1     -24.262   4.326  49.428  1.00  0.00     0.039 C 
BRANCH   8   9
HETATM    9  C10 UNL     1     -22.985   3.669  49.062  1.00  0.00     0.005 C 
BRANCH   9  10
HETATM   10  C9  UNL     1     -21.875   4.622  48.870  1.00  0.00     0.001 C 
BRANCH  10  11
HETATM   11  C8  UNL     1     -22.319   6.076  48.638  1.00  0.00     0.005 C 
BRANCH  11  12
HETATM   12  C7  UNL     1     -21.370   6.896  49.488  1.00  0.00     0.048 C 
BRANCH  12  13
HETATM   13  C6  UNL     1     -22.145   7.874  50.301  1.00  0.00     0.001 A 
HETATM   14  C5  UNL     1     -22.251   9.227  50.169  1.00  0.00     0.104 A 
HETATM   15  N4  UNL     1     -23.015   9.880  50.999  1.00  0.00    -0.345 N 
HETATM   16  C4  UNL     1     -23.659   9.185  51.943  1.00  0.00     0.151 A 
ATOM     17  H4  UNL     1     -23.120  10.892  50.932  1.00  0.00     0.167 HD
HETATM   18  S1  UNL     1     -23.168   7.579  51.643  1.00  0.00    -0.057 SA
BRANCH  16  19
HETATM   19  N3  UNL     1     -24.466   9.662  52.867  1.00  0.00    -0.311 N 
HETATM   20  C3  UNL     1     -25.841   9.720  52.524  1.00  0.00     0.190 C 
HETATM   21  N1  UNL     1     -26.453   8.618  52.271  1.00  0.00    -0.365 N 
HETATM   22  N2  UNL     1     -26.517  10.989  52.465  1.00  0.00    -0.063 NA
ATOM     23  H1  UNL     1     -25.909   7.757  52.335  1.00  0.00     0.162 HD
ATOM     24  H3  UNL     1     -24.122   9.971  53.777  1.00  0.00     0.170 HD
BRANCH  21  25
HETATM   25  C2  UNL     1     -27.825   8.496  51.909  1.00  0.00     0.118 C 
HETATM   26  C1  UNL     1     -28.404   7.262  52.540  1.00  0.00     0.026 C 
ENDBRANCH  21  25
ENDBRANCH  16  19
ENDBRANCH  12  13
ENDBRANCH  11  12
ENDBRANCH  10  11
ENDBRANCH   9  10
ENDBRANCH   8   9
ENDBRANCH   1   8
BRANCH   7  27
HETATM   27  C18 UNL     1     -26.480   6.206  49.480  1.00  0.00     0.135 C 
BRANCH  27  28
HETATM   28  C19 UNL     1     -25.799   7.327  48.773  1.00  0.00    -0.088 C 
HETATM   29  C20 UNL     1     -25.234   8.214  48.183  1.00  0.00    -0.014 C 
BRANCH  29  30
HETATM   30  C21 UNL     1     -24.549   9.240  47.470  1.00  0.00    -0.008 C 
HETATM   31  C22 UNL     1     -23.966  10.110  46.837  1.00  0.00    -0.034 C 
BRANCH  31  32
HETATM   32  C23 UNL     1     -23.277  11.119  46.081  1.00  0.00     0.097 A 
HETATM   33  C24 UNL     1     -21.909  11.044  45.859  1.00  0.00     0.113 A 
HETATM   34  C25 UNL     1     -21.266  12.020  45.130  1.00  0.00     0.252 A 
HETATM   35  O1  UNL     1     -20.040  11.898  44.964  1.00  0.00    -0.268 OA
HETATM   36  N6  UNL     1     -22.017  13.036  44.650  1.00  0.00    -0.275 N 
HETATM   37  C26 UNL     1     -23.342  13.125  44.856  1.00  0.00     0.328 A 
ATOM     38  H6  UNL     1     -21.557  13.767  44.107  1.00  0.00     0.173 HD
HETATM   39  O2  UNL     1     -23.985  14.107  44.377  1.00  0.00    -0.247 OA
HETATM   40  N7  UNL     1     -23.966  12.156  45.577  1.00  0.00    -0.301 N 
ATOM     41  H7  UNL     1     -24.971  12.216  45.737  1.00  0.00     0.171 HD
ENDBRANCH  31  32
ENDBRANCH  29  30
ENDBRANCH  27  28
ENDBRANCH   7  27
TORSDOF 12
ENDMDL
MODEL 3
REMARK VINA RESULT: -6.663170401      4.214      7.499
REMARK  12 active torsions:
REMARK  status: ('A' for Active; 'I' for Inactive)
REMARK    1  A    between atoms: C2_2  and  N1_3 
REMARK       I    between atoms: C3_5  and  N3_7 
REMARK    2  A    between atoms: N3_7  and  C4_9 
REMARK    3  A    between atoms: C6_13  and  C7_14 
REMARK    4  A    between atoms: C7_14  and  C8_15 
REMARK    5  A    between atoms: C8_15  and  C9_16 
REMARK    6  A    between atoms: C9_16  and  C10_17 
REMARK    7  A    between atoms: C10_17  and  C11_18 
REMARK    8  A    between atoms: C11_18  and  C12_19 
REMARK    9  A    between atoms: C17_25  and  C18_26 
REMARK   10  A    between atoms: C18_26  and  C19_27 
REMARK   11  A    between atoms: C20_28  and  C21_29 
REMARK   12  A    between atoms: C22_30  and  C23_31 
ROOT
HETATM    1  C12 UNL     1     -25.275   4.178  48.581  1.00  0.00    -0.048 A 
HETATM    2  C13 UNL     1     -25.413   3.144  47.677  1.00  0.00     0.025 A 
HETATM    3  C14 UNL     1     -26.542   2.978  46.889  1.00  0.00     0.090 A 
HETATM    4  N5  UNL     1     -27.558   3.842  46.987  1.00  0.00    -0.370 N 
HETATM    5  C15 UNL     1     -28.754   3.689  46.183  1.00  0.00     0.154 C 
HETATM    6  C16 UNL     1     -27.439   4.852  47.858  1.00  0.00     0.098 A 
HETATM    7  C17 UNL     1     -26.331   5.057  48.662  1.00  0.00    -0.025 A 
ENDROOT
BRANCH   1   8
HETATM    8  C11 UNL     1     -24.113   4.390  49.446  1.00  0.00     0.039 C 
BRANCH   8   9
HETATM    9  C10 UNL     1     -22.849   4.810  48.796  1.00  0.00     0.005 C 
BRANCH   9  10
HETATM   10  C9  UNL     1     -22.314   6.077  49.328  1.00  0.00     0.001 C 
BRANCH  10  11
HETATM   11  C8  UNL     1     -21.691   7.000  48.267  1.00  0.00     0.005 C 
BRANCH  11  12
HETATM   12  C7  UNL     1     -21.366   8.272  49.023  1.00  0.00     0.048 C 
BRANCH  12  13
HETATM   13  C6  UNL     1     -20.324   9.040  48.286  1.00  0.00     0.001 A 
HETATM   14  C5  UNL     1     -19.872  10.310  48.486  1.00  0.00     0.104 A 
HETATM   15  N4  UNL     1     -18.925  10.768  47.717  1.00  0.00    -0.345 N 
HETATM   16  C4  UNL     1     -18.442   9.962  46.765  1.00  0.00     0.151 A 
ATOM     17  H4  UNL     1     -18.561  11.714  47.837  1.00  0.00     0.167 HD
HETATM   18  S1  UNL     1     -19.351   8.534  46.970  1.00  0.00    -0.057 SA
BRANCH  16  19
HETATM   19  N3  UNL     1     -17.495  10.243  45.894  1.00  0.00    -0.311 N 
HETATM   20  C3  UNL     1     -17.686   9.739  44.582  1.00  0.00     0.190 C 
HETATM   21  N1  UNL     1     -18.705  10.151  43.914  1.00  0.00    -0.365 N 
HETATM   22  N2  UNL     1     -16.755   8.790  44.031  1.00  0.00    -0.063 NA
ATOM     23  H1  UNL     1     -19.320  10.825  44.369  1.00  0.00     0.162 HD
ATOM     24  H3  UNL     1     -16.673  10.790  46.148  1.00  0.00     0.170 HD
BRANCH  21  25
HETATM   25  C2  UNL     1     -19.046   9.747  42.591  1.00  0.00     0.118 C 
HETATM   26  C1  UNL     1     -20.417  10.254  42.248  1.00  0.00     0.026 C 
ENDBRANCH  21  25
ENDBRANCH  16  19
ENDBRANCH  12  13
ENDBRANCH  11  12
ENDBRANCH  10  11
ENDBRANCH   9  10
ENDBRANCH   8   9
ENDBRANCH   1   8
BRANCH   7  27
HETATM   27  C18 UNL     1     -26.343   6.254  49.541  1.00  0.00     0.135 C 
BRANCH  27  28
HETATM   28  C19 UNL     1     -25.704   7.372  48.791  1.00  0.00    -0.088 C 
HETATM   29  C20 UNL     1     -25.185   8.259  48.160  1.00  0.00    -0.014 C 
BRANCH  29  30
HETATM   30  C21 UNL     1     -24.568   9.286  47.389  1.00  0.00    -0.008 C 
HETATM   31  C22 UNL     1     -24.018  10.164  46.738  1.00  0.00    -0.034 C 
BRANCH  31  32
HETATM   32  C23 UNL     1     -23.360  11.198  45.988  1.00  0.00     0.097 A 
HETATM   33  C24 UNL     1     -24.085  12.155  45.292  1.00  0.00     0.113 A 
HETATM   34  C25 UNL     1     -23.438  13.140  44.580  1.00  0.00     0.252 A 
HETATM   35  O1  UNL     1     -24.141  13.970  43.977  1.00  0.00    -0.268 OA
HETATM   36  N6  UNL     1     -22.087  13.130  44.590  1.00  0.00    -0.275 N 
HETATM   37  C26 UNL     1     -21.368  12.211  45.257  1.00  0.00     0.328 A 
ATOM     38  H6  UNL     1     -21.590  13.853  44.068  1.00  0.00     0.173 HD
HETATM   39  O2  UNL     1     -20.102  12.261  45.222  1.00  0.00    -0.247 OA
HETATM   40  N7  UNL     1     -22.019  11.244  45.957  1.00  0.00    -0.301 N 
ATOM     41  H7  UNL     1     -21.480  10.543  46.466  1.00  0.00     0.171 HD
ENDBRANCH  31  32
ENDBRANCH  29  30
ENDBRANCH  27  28
ENDBRANCH   7  27
TORSDOF 12
ENDMDL
MODEL 4
REMARK VINA RESULT: -6.652975571      1.753      3.900
REMARK  12 active torsions:
REMARK  status: ('A' for Active; 'I' for Inactive)
REMARK    1  A    between atoms: C2_2  and  N1_3 
REMARK       I    between atoms: C3_5  and  N3_7 
REMARK    2  A    between atoms: N3_7  and  C4_9 
REMARK    3  A    between atoms: C6_13  and  C7_14 
REMARK    4  A    between atoms: C7_14  and  C8_15 
REMARK    5  A    between atoms: C8_15  and  C9_16 
REMARK    6  A    between atoms: C9_16  and  C10_17 
REMARK    7  A    between atoms: C10_17  and  C11_18 
REMARK    8  A    between atoms: C11_18  and  C12_19 
REMARK    9  A    between atoms: C17_25  and  C18_26 
REMARK   10  A    between atoms: C18_26  and  C19_27 
REMARK   11  A    between atoms: C20_28  and  C21_29 
REMARK   12  A    between atoms: C22_30  and  C23_31 
ROOT
HETATM    1  C12 UNL     1     -25.527   4.347  48.762  1.00  0.00    -0.048 A 
HETATM    2  C13 UNL     1     -25.472   3.212  47.976  1.00  0.00     0.025 A 
HETATM    3  C14 UNL     1     -26.450   2.893  47.046  1.00  0.00     0.090 A 
HETATM    4  N5  UNL     1     -27.503   3.700  46.878  1.00  0.00    -0.370 N 
HETATM    5  C15 UNL     1     -28.543   3.387  45.920  1.00  0.00     0.154 C 
HETATM    6  C16 UNL     1     -27.569   4.806  47.632  1.00  0.00     0.098 A 
HETATM    7  C17 UNL     1     -26.617   5.165  48.570  1.00  0.00    -0.025 A 
ENDROOT
BRANCH   1   8
HETATM    8  C11 UNL     1     -24.532   4.723  49.768  1.00  0.00     0.039 C 
BRANCH   8   9
HETATM    9  C10 UNL     1     -23.242   5.265  49.279  1.00  0.00     0.005 C 
BRANCH   9  10
HETATM   10  C9  UNL     1     -22.812   6.479  49.999  1.00  0.00     0.001 C 
BRANCH  10  11
HETATM   11  C8  UNL     1     -23.427   6.639  51.399  1.00  0.00     0.005 C 
BRANCH  11  12
HETATM   12  C7  UNL     1     -23.697   8.125  51.520  1.00  0.00     0.048 C 
BRANCH  12  13
HETATM   13  C6  UNL     1     -25.118   8.346  51.910  1.00  0.00     0.001 A 
HETATM   14  C5  UNL     1     -25.958   9.374  51.600  1.00  0.00     0.104 A 
HETATM   15  N4  UNL     1     -27.182   9.339  52.046  1.00  0.00    -0.345 N 
HETATM   16  C4  UNL     1     -27.553   8.292  52.790  1.00  0.00     0.151 A 
ATOM     17  H4  UNL     1     -27.840  10.090  51.834  1.00  0.00     0.167 HD
HETATM   18  S1  UNL     1     -26.137   7.343  52.854  1.00  0.00    -0.057 SA
BRANCH  16  19
HETATM   19  N3  UNL     1     -28.735   8.081  53.329  1.00  0.00    -0.311 N 
HETATM   20  C3  UNL     1     -29.783   7.758  52.428  1.00  0.00     0.190 C 
HETATM   21  N1  UNL     1     -29.680   6.678  51.738  1.00  0.00    -0.365 N 
HETATM   22  N2  UNL     1     -30.921   8.628  52.303  1.00  0.00    -0.063 NA
ATOM     23  H1  UNL     1     -28.844   6.110  51.882  1.00  0.00     0.162 HD
ATOM     24  H3  UNL     1     -28.889   8.147  54.335  1.00  0.00     0.170 HD
BRANCH  21  25
HETATM   25  C2  UNL     1     -30.633   6.206  50.791  1.00  0.00     0.118 C 
HETATM   26  C1  UNL     1     -30.166   4.901  50.213  1.00  0.00     0.026 C 
ENDBRANCH  21  25
ENDBRANCH  16  19
ENDBRANCH  12  13
ENDBRANCH  11  12
ENDBRANCH  10  11
ENDBRANCH   9  10
ENDBRANCH   8   9
ENDBRANCH   1   8
BRANCH   7  27
HETATM   27  C18 UNL     1     -26.822   6.449  49.287  1.00  0.00     0.135 C 
BRANCH  27  28
HETATM   28  C19 UNL     1     -25.984   7.482  48.615  1.00  0.00    -0.088 C 
HETATM   29  C20 UNL     1     -25.328   8.321  48.050  1.00  0.00    -0.014 C 
BRANCH  29  30
HETATM   30  C21 UNL     1     -24.575   9.314  47.359  1.00  0.00    -0.008 C 
HETATM   31  C22 UNL     1     -23.949  10.175  46.755  1.00  0.00    -0.034 C 
BRANCH  31  32
HETATM   32  C23 UNL     1     -23.226  11.184  46.033  1.00  0.00     0.097 A 
HETATM   33  C24 UNL     1     -21.858  11.080  45.825  1.00  0.00     0.113 A 
HETATM   34  C25 UNL     1     -21.181  12.057  45.128  1.00  0.00     0.252 A 
HETATM   35  O1  UNL     1     -19.957  11.908  44.972  1.00  0.00    -0.268 OA
HETATM   36  N6  UNL     1     -21.900  13.103  44.666  1.00  0.00    -0.275 N 
HETATM   37  C26 UNL     1     -23.225  13.222  44.859  1.00  0.00     0.328 A 
ATOM     38  H6  UNL     1     -21.416  13.837  44.147  1.00  0.00     0.173 HD
HETATM   39  O2  UNL     1     -23.837  14.231  44.398  1.00  0.00    -0.247 OA
HETATM   40  N7  UNL     1     -23.882  12.251  45.548  1.00  0.00    -0.301 N 
ATOM     41  H7  UNL     1     -24.887  12.333  45.698  1.00  0.00     0.171 HD
ENDBRANCH  31  32
ENDBRANCH  29  30
ENDBRANCH  27  28
ENDBRANCH   7  27
TORSDOF 12
ENDMDL
MODEL 5
REMARK VINA RESULT: -6.484571593      1.965      3.299
REMARK  12 active torsions:
REMARK  status: ('A' for Active; 'I' for Inactive)
REMARK    1  A    between atoms: C2_2  and  N1_3 
REMARK       I    between atoms: C3_5  and  N3_7 
REMARK    2  A    between atoms: N3_7  and  C4_9 
REMARK    3  A    between atoms: C6_13  and  C7_14 
REMARK    4  A    between atoms: C7_14  and  C8_15 
REMARK    5  A    between atoms: C8_15  and  C9_16 
REMARK    6  A    between atoms: C9_16  and  C10_17 
REMARK    7  A    between atoms: C10_17  and  C11_18 
REMARK    8  A    between atoms: C11_18  and  C12_19 
REMARK    9  A    between atoms: C17_25  and  C18_26 
REMARK   10  A    between atoms: C18_26  and  C19_27 
REMARK   11  A    between atoms: C20_28  and  C21_29 
REMARK   12  A    between atoms: C22_30  and  C23_31 
ROOT
HETATM    1  C12 UNL     1     -25.404   4.196  48.560  1.00  0.00    -0.048 A 
HETATM    2  C13 UNL     1     -25.527   3.142  47.676  1.00  0.00     0.025 A 
HETATM    3  C14 UNL     1     -26.638   2.964  46.867  1.00  0.00     0.090 A 
HETATM    4  N5  UNL     1     -27.652   3.835  46.921  1.00  0.00    -0.370 N 
HETATM    5  C15 UNL     1     -28.829   3.669  46.093  1.00  0.00     0.154 C 
HETATM    6  C16 UNL     1     -27.547   4.864  47.772  1.00  0.00     0.098 A 
HETATM    7  C17 UNL     1     -26.457   5.081  48.597  1.00  0.00    -0.025 A 
ENDROOT
BRANCH   1   8
HETATM    8  C11 UNL     1     -24.262   4.422  49.447  1.00  0.00     0.039 C 
BRANCH   8   9
HETATM    9  C10 UNL     1     -24.102   3.500  50.597  1.00  0.00     0.005 C 
BRANCH   9  10
HETATM   10  C9  UNL     1     -23.922   4.200  51.883  1.00  0.00     0.001 C 
BRANCH  10  11
HETATM   11  C8  UNL     1     -23.572   5.692  51.751  1.00  0.00     0.005 C 
BRANCH  11  12
HETATM   12  C7  UNL     1     -23.786   6.250  53.143  1.00  0.00     0.048 C 
BRANCH  12  13
HETATM   13  C6  UNL     1     -24.314   7.640  53.050  1.00  0.00     0.001 A 
HETATM   14  C5  UNL     1     -24.399   8.470  51.972  1.00  0.00     0.104 A 
HETATM   15  N4  UNL     1     -24.925   9.652  52.130  1.00  0.00    -0.345 N 
HETATM   16  C4  UNL     1     -25.356   9.991  53.350  1.00  0.00     0.151 A 
ATOM     17  H4  UNL     1     -25.006  10.300  51.347  1.00  0.00     0.167 HD
HETATM   18  S1  UNL     1     -25.007   8.607  54.282  1.00  0.00    -0.057 SA
BRANCH  16  19
HETATM   19  N3  UNL     1     -25.909  11.132  53.706  1.00  0.00    -0.311 N 
HETATM   20  C3  UNL     1     -27.270  11.305  53.348  1.00  0.00     0.190 C 
HETATM   21  N1  UNL     1     -28.137  10.496  53.844  1.00  0.00    -0.365 N 
HETATM   22  N2  UNL     1     -27.651  12.362  52.449  1.00  0.00    -0.063 NA
ATOM     23  H1  UNL     1     -27.793   9.772  54.475  1.00  0.00     0.162 HD
ATOM     24  H3  UNL     1     -25.387  11.850  54.211  1.00  0.00     0.170 HD
BRANCH  21  25
HETATM   25  C2  UNL     1     -29.538  10.524  53.589  1.00  0.00     0.118 C 
HETATM   26  C1  UNL     1     -30.244  11.205  54.726  1.00  0.00     0.026 C 
ENDBRANCH  21  25
ENDBRANCH  16  19
ENDBRANCH  12  13
ENDBRANCH  11  12
ENDBRANCH  10  11
ENDBRANCH   9  10
ENDBRANCH   8   9
ENDBRANCH   1   8
BRANCH   7  27
HETATM   27  C18 UNL     1     -26.484   6.298  49.448  1.00  0.00     0.135 C 
BRANCH  27  28
HETATM   28  C19 UNL     1     -25.714   7.361  48.742  1.00  0.00    -0.088 C 
HETATM   29  C20 UNL     1     -25.115   8.226  48.153  1.00  0.00    -0.014 C 
BRANCH  29  30
HETATM   30  C21 UNL     1     -24.433   9.251  47.436  1.00  0.00    -0.008 C 
HETATM   31  C22 UNL     1     -23.864  10.132  46.804  1.00  0.00    -0.034 C 
BRANCH  31  32
HETATM   32  C23 UNL     1     -23.204  11.159  46.047  1.00  0.00     0.097 A 
HETATM   33  C24 UNL     1     -21.840  11.107  45.800  1.00  0.00     0.113 A 
HETATM   34  C25 UNL     1     -21.224  12.100  45.070  1.00  0.00     0.252 A 
HETATM   35  O1  UNL     1     -20.000  11.999  44.881  1.00  0.00    -0.268 OA
HETATM   36  N6  UNL     1     -21.998  13.110  44.615  1.00  0.00    -0.275 N 
HETATM   37  C26 UNL     1     -23.321  13.177  44.846  1.00  0.00     0.328 A 
ATOM     38  H6  UNL     1     -21.560  13.854  44.072  1.00  0.00     0.173 HD
HETATM   39  O2  UNL     1     -23.987  14.154  44.390  1.00  0.00    -0.247 OA
HETATM   40  N7  UNL     1     -23.917  12.191  45.567  1.00  0.00    -0.301 N 
ATOM     41  H7  UNL     1     -24.920  12.235  45.746  1.00  0.00     0.171 HD
ENDBRANCH  31  32
ENDBRANCH  29  30
ENDBRANCH  27  28
ENDBRANCH   7  27
TORSDOF 12
ENDMDL
