MODEL 1
REMARK VINA RESULT: -8.819658626      0.000      0.000
REMARK  10 active torsions:
REMARK  status: ('A' for Active; 'I' for Inactive)
REMARK    1  A    between atoms: N1_1  and  C1_4 
REMARK    2  A    between atoms: C1_4  and  C2_5 
REMARK    3  A    between atoms: N2_7  and  C4_8 
REMARK    4  A    between atoms: C6_14  and  N5_15 
REMARK    5  A    between atoms: C7_18  and  C8_19 
REMARK    6  A    between atoms: C9_24  and  C10_25 
REMARK       I    between atoms: C10_25  and  N8_27 
REMARK    7  A    between atoms: N9_30  and  C13_31 
REMARK    8  A    between atoms: C13_31  and  C14_32 
REMARK    9  A    between atoms: C13_31  and  C15_37 
REMARK   10  A    between atoms: C14_32  and  N10_33 
ROOT
HETATM    1  C2  UNL     1      18.612  10.892  -0.482  1.00  0.00     0.030 A 
HETATM    2  C3  UNL     1      18.030  10.496  -1.716  1.00  0.00     0.133 A 
HETATM    3  N2  UNL     1      16.708  10.699  -1.607  1.00  0.00    -0.248 N 
HETATM    4  N7  UNL     1      16.435  11.188  -0.404  1.00  0.00    -0.287 N 
ATOM      5  H7  UNL     1      15.503  11.429  -0.066  1.00  0.00     0.188 HD
HETATM    6  C9  UNL     1      17.606  11.319   0.320  1.00  0.00     0.129 A 
ENDROOT
BRANCH   6   7
HETATM    7  C10 UNL     1      17.668  11.824   1.677  1.00  0.00     0.272 C 
HETATM    8  O2  UNL     1      17.828  13.046   1.892  1.00  0.00    -0.266 OA
HETATM    9  N8  UNL     1      17.543  10.924   2.791  1.00  0.00    -0.343 N 
HETATM   10  C11 UNL     1      17.605  11.461   4.125  1.00  0.00     0.156 C 
HETATM   11  C17 UNL     1      17.358   9.512   2.659  1.00  0.00     0.156 C 
HETATM   12  C12 UNL     1      16.319  11.038   4.798  1.00  0.00     0.293 C 
HETATM   13  N9  UNL     1      16.265   9.623   4.880  1.00  0.00     0.105 N 
HETATM   14  C16 UNL     1      17.278   8.967   4.103  1.00  0.00     0.293 C 
BRANCH  13  15
HETATM   15  C13 UNL     1      14.951   9.066   4.684  1.00  0.00     0.318 C 
BRANCH  15  16
HETATM   16  C14 UNL     1      14.008  10.020   3.995  1.00  0.00     0.273 C 
BRANCH  16  17
HETATM   17  N10 UNL     1      13.837   9.604   2.616  1.00  0.00    -0.077 N 
ATOM     18 3H10 UNL     1      13.164   8.844   2.520  1.00  0.00     0.274 HD
ATOM     19 2H10 UNL     1      13.346  10.302   2.057  1.00  0.00     0.274 HD
ATOM     20 1H10 UNL     1      14.749   9.366   2.224  1.00  0.00     0.274 HD
ENDBRANCH  16  17
ENDBRANCH  15  16
BRANCH  15  21
HETATM   21  C15 UNL     1      14.355   8.824   6.037  1.00  0.00     0.148 A 
HETATM   22  N11 UNL     1      13.287   9.457   6.584  1.00  0.00    -0.270 N 
HETATM   23  N12 UNL     1      13.100   8.949   7.792  1.00  0.00    -0.227 N 
ATOM     24  H11 UNL     1      12.730  10.190   6.144  1.00  0.00     0.190 HD
HETATM   25  N13 UNL     1      13.986   8.026   8.057  1.00  0.00    -0.227 N 
ATOM     26  H12 UNL     1      12.362   9.240   8.431  1.00  0.00     0.210 HD
HETATM   27  N14 UNL     1      14.757   7.946   6.981  1.00  0.00    -0.270 N 
ATOM     28  H13 UNL     1      14.067   7.479   8.914  1.00  0.00     0.210 HD
ATOM     29  H14 UNL     1      15.547   7.308   6.881  1.00  0.00     0.190 HD
ENDBRANCH  15  21
ENDBRANCH  13  15
ENDBRANCH   6   7
BRANCH   1  30
HETATM   30  C1  UNL     1      20.044  10.781  -0.314  1.00  0.00     0.096 C 
BRANCH  30  31
HETATM   31  N1  UNL     1      20.835  11.671   0.129  1.00  0.00    -0.407 N 
ATOM     32  H12 UNL     1      20.388  12.460   0.595  1.00  0.00     0.155 HD
ATOM     33  H11 UNL     1      21.854  11.676   0.067  1.00  0.00     0.155 HD
ENDBRANCH  30  31
ENDBRANCH   1  30
BRANCH   3  34
HETATM   34  C4  UNL     1      15.812  10.431  -2.667  1.00  0.00     0.146 A 
HETATM   35  N3  UNL     1      16.238  10.568  -3.958  1.00  0.00    -0.336 N 
HETATM   36  C5  UNL     1      15.422  10.325  -4.992  1.00  0.00     0.183 A 
ATOM     37  H3  UNL     1      17.198  10.862  -4.138  1.00  0.00     0.168 HD
HETATM   38  N4  UNL     1      14.155   9.935  -4.809  1.00  0.00    -0.338 N 
HETATM   39  C6  UNL     1      13.675   9.781  -3.568  1.00  0.00     0.119 A 
ATOM     40  H4  UNL     1      13.555   9.755  -5.615  1.00  0.00     0.168 HD
HETATM   41  C7  UNL     1      14.528  10.037  -2.464  1.00  0.00     0.118 A 
BRANCH  39  42
HETATM   42  N5  UNL     1      12.461   9.407  -3.342  1.00  0.00    -0.385 N 
ATOM     43  H52 UNL     1      11.807   9.360  -4.123  1.00  0.00     0.157 HD
ATOM     44  H51 UNL     1      12.133   9.156  -2.408  1.00  0.00     0.157 HD
ENDBRANCH  39  42
BRANCH  41  45
HETATM   45  C8  UNL     1      13.992   9.866  -1.135  1.00  0.00     0.272 C 
HETATM   46  N6  UNL     1      14.152   8.625  -0.475  1.00  0.00    -0.057 NA
HETATM   47  O1  UNL     1      13.388  10.769  -0.531  1.00  0.00    -0.271 OA
ENDBRANCH  41  45
ENDBRANCH   3  34
TORSDOF 10
ENDMDL
MODEL 2
REMARK VINA RESULT: -8.437551584      2.651      5.730
REMARK  10 active torsions:
REMARK  status: ('A' for Active; 'I' for Inactive)
REMARK    1  A    between atoms: N1_1  and  C1_4 
REMARK    2  A    between atoms: C1_4  and  C2_5 
REMARK    3  A    between atoms: N2_7  and  C4_8 
REMARK    4  A    between atoms: C6_14  and  N5_15 
REMARK    5  A    between atoms: C7_18  and  C8_19 
REMARK    6  A    between atoms: C9_24  and  C10_25 
REMARK       I    between atoms: C10_25  and  N8_27 
REMARK    7  A    between atoms: N9_30  and  C13_31 
REMARK    8  A    between atoms: C13_31  and  C14_32 
REMARK    9  A    between atoms: C13_31  and  C15_37 
REMARK   10  A    between atoms: C14_32  and  N10_33 
ROOT
HETATM    1  C2  UNL     1      13.286  10.626   1.396  1.00  0.00     0.030 A 
HETATM    2  C3  UNL     1      13.010  10.729   0.006  1.00  0.00     0.133 A 
HETATM    3  N2  UNL     1      13.961  10.030  -0.633  1.00  0.00    -0.248 N 
HETATM    4  N7  UNL     1      14.796   9.508   0.254  1.00  0.00    -0.287 N 
ATOM      5  H7  UNL     1      15.608   8.932   0.030  1.00  0.00     0.188 HD
HETATM    6  C9  UNL     1      14.399   9.864   1.530  1.00  0.00     0.129 A 
ENDROOT
BRANCH   6   7
HETATM    7  C10 UNL     1      15.092   9.461   2.738  1.00  0.00     0.272 C 
HETATM    8  O2  UNL     1      14.553   8.674   3.546  1.00  0.00    -0.266 OA
HETATM    9  N8  UNL     1      16.411   9.963   3.017  1.00  0.00    -0.343 N 
HETATM   10  C11 UNL     1      17.071   9.539   4.223  1.00  0.00     0.156 C 
HETATM   11  C17 UNL     1      17.118  10.866   2.164  1.00  0.00     0.156 C 
HETATM   12  C12 UNL     1      18.379   8.922   3.780  1.00  0.00     0.293 C 
HETATM   13  N9  UNL     1      19.180   9.905   3.145  1.00  0.00     0.105 N 
HETATM   14  C16 UNL     1      18.473  11.121   2.861  1.00  0.00     0.293 C 
BRANCH  13  15
HETATM   15  C13 UNL     1      19.942   9.418   2.024  1.00  0.00     0.318 C 
BRANCH  15  16
HETATM   16  C14 UNL     1      20.833   8.254   2.385  1.00  0.00     0.273 C 
BRANCH  16  17
HETATM   17  N10 UNL     1      21.436   7.727   1.175  1.00  0.00    -0.077 N 
ATOM     18 3H10 UNL     1      20.743   7.507   0.460  1.00  0.00     0.274 HD
ATOM     19 2H10 UNL     1      21.954   8.437   0.658  1.00  0.00     0.274 HD
ATOM     20 1H10 UNL     1      22.014   6.922   1.415  1.00  0.00     0.274 HD
ENDBRANCH  16  17
ENDBRANCH  15  16
BRANCH  15  21
HETATM   21  C15 UNL     1      20.872  10.513   1.598  1.00  0.00     0.148 A 
HETATM   22  N11 UNL     1      20.942  11.093   0.374  1.00  0.00    -0.270 N 
HETATM   23  N12 UNL     1      21.900  12.006   0.422  1.00  0.00    -0.227 N 
ATOM     24  H11 UNL     1      20.363  10.869  -0.435  1.00  0.00     0.190 HD
HETATM   25  N13 UNL     1      22.453  12.047   1.606  1.00  0.00    -0.227 N 
ATOM     26  H12 UNL     1      22.171  12.599  -0.361  1.00  0.00     0.210 HD
HETATM   27  N14 UNL     1      21.823  11.132   2.329  1.00  0.00    -0.270 N 
ATOM     28  H13 UNL     1      23.211  12.657   1.910  1.00  0.00     0.210 HD
ATOM     29  H14 UNL     1      22.028  10.925   3.307  1.00  0.00     0.190 HD
ENDBRANCH  15  21
ENDBRANCH  13  15
ENDBRANCH   6   7
BRANCH   1  30
HETATM   30  C1  UNL     1      12.412  11.292   2.335  1.00  0.00     0.096 C 
BRANCH  30  31
HETATM   31  N1  UNL     1      11.428  12.049   2.063  1.00  0.00    -0.407 N 
ATOM     32  H12 UNL     1      11.624  13.049   2.105  1.00  0.00     0.155 HD
ATOM     33  H11 UNL     1      10.482  11.764   1.813  1.00  0.00     0.155 HD
ENDBRANCH  30  31
ENDBRANCH   1  30
BRANCH   3  34
HETATM   34  C4  UNL     1      13.984   9.897  -2.041  1.00  0.00     0.146 A 
HETATM   35  N3  UNL     1      12.876   9.431  -2.691  1.00  0.00    -0.336 N 
HETATM   36  C5  UNL     1      12.856   9.290  -4.023  1.00  0.00     0.183 A 
ATOM     37  H3  UNL     1      12.047   9.186  -2.150  1.00  0.00     0.168 HD
HETATM   38  N4  UNL     1      13.917   9.600  -4.778  1.00  0.00    -0.338 N 
HETATM   39  C6  UNL     1      15.035  10.063  -4.202  1.00  0.00     0.119 A 
ATOM     40  H4  UNL     1      13.874   9.484  -5.790  1.00  0.00     0.168 HD
HETATM   41  C7  UNL     1      15.070  10.216  -2.793  1.00  0.00     0.118 A 
BRANCH  39  42
HETATM   42  N5  UNL     1      16.082  10.375  -4.888  1.00  0.00    -0.385 N 
ATOM     43  H52 UNL     1      16.112  11.279  -5.359  1.00  0.00     0.157 HD
ATOM     44  H51 UNL     1      16.883   9.747  -4.974  1.00  0.00     0.157 HD
ENDBRANCH  39  42
BRANCH  41  45
HETATM   45  C8  UNL     1      16.284  10.715  -2.192  1.00  0.00     0.272 C 
HETATM   46  N6  UNL     1      16.237  11.883  -1.395  1.00  0.00    -0.057 NA
HETATM   47  O1  UNL     1      17.387  10.161  -2.342  1.00  0.00    -0.271 OA
ENDBRANCH  41  45
ENDBRANCH   3  34
TORSDOF 10
ENDMDL
MODEL 3
REMARK VINA RESULT: -8.434059119      2.059      7.722
REMARK  10 active torsions:
REMARK  status: ('A' for Active; 'I' for Inactive)
REMARK    1  A    between atoms: N1_1  and  C1_4 
REMARK    2  A    between atoms: C1_4  and  C2_5 
REMARK    3  A    between atoms: N2_7  and  C4_8 
REMARK    4  A    between atoms: C6_14  and  N5_15 
REMARK    5  A    between atoms: C7_18  and  C8_19 
REMARK    6  A    between atoms: C9_24  and  C10_25 
REMARK       I    between atoms: C10_25  and  N8_27 
REMARK    7  A    between atoms: N9_30  and  C13_31 
REMARK    8  A    between atoms: C13_31  and  C14_32 
REMARK    9  A    between atoms: C13_31  and  C15_37 
REMARK   10  A    between atoms: C14_32  and  N10_33 
ROOT
HETATM    1  C2  UNL     1      16.682   9.827   4.264  1.00  0.00     0.030 A 
HETATM    2  C3  UNL     1      18.100   9.751   4.304  1.00  0.00     0.133 A 
HETATM    3  N2  UNL     1      18.559  10.458   3.260  1.00  0.00    -0.248 N 
HETATM    4  N7  UNL     1      17.535  10.959   2.583  1.00  0.00    -0.287 N 
ATOM      5  H7  UNL     1      17.609  11.536   1.744  1.00  0.00     0.188 HD
HETATM    6  C9  UNL     1      16.349  10.582   3.188  1.00  0.00     0.129 A 
ENDROOT
BRANCH   6   7
HETATM    7  C10 UNL     1      15.036  10.959   2.705  1.00  0.00     0.272 C 
HETATM    8  O2  UNL     1      14.436  11.938   3.200  1.00  0.00    -0.266 OA
HETATM    9  N8  UNL     1      14.411  10.211   1.648  1.00  0.00    -0.343 N 
HETATM   10  C11 UNL     1      13.108  10.617   1.190  1.00  0.00     0.156 C 
HETATM   11  C17 UNL     1      15.007   9.078   1.012  1.00  0.00     0.156 C 
HETATM   12  C12 UNL     1      13.254  10.867  -0.294  1.00  0.00     0.293 C 
HETATM   13  N9  UNL     1      13.611   9.661  -0.950  1.00  0.00     0.105 N 
HETATM   14  C16 UNL     1      13.984   8.609  -0.047  1.00  0.00     0.293 C 
BRANCH  13  15
HETATM   15  C13 UNL     1      14.538   9.828  -2.039  1.00  0.00     0.318 C 
BRANCH  15  16
HETATM   16  C14 UNL     1      15.185  11.190  -2.052  1.00  0.00     0.273 C 
BRANCH  16  17
HETATM   17  N10 UNL     1      16.595  11.048  -1.742  1.00  0.00    -0.077 N 
ATOM     18 3H10 UNL     1      16.900  10.074  -1.760  1.00  0.00     0.274 HD
ATOM     19 2H10 UNL     1      17.195  11.399  -2.488  1.00  0.00     0.274 HD
ATOM     20 1H10 UNL     1      16.786  11.497  -0.846  1.00  0.00     0.274 HD
ENDBRANCH  16  17
ENDBRANCH  15  16
BRANCH  15  21
HETATM   21  C15 UNL     1      13.758   9.745  -3.315  1.00  0.00     0.148 A 
HETATM   22  N11 UNL     1      14.250   9.792  -4.578  1.00  0.00    -0.270 N 
HETATM   23  N12 UNL     1      13.224   9.695  -5.408  1.00  0.00    -0.227 N 
ATOM     24  H11 UNL     1      15.232   9.884  -4.840  1.00  0.00     0.190 HD
HETATM   25  N13 UNL     1      12.097   9.590  -4.755  1.00  0.00    -0.227 N 
ATOM     26  H12 UNL     1      13.303   9.702  -6.425  1.00  0.00     0.210 HD
HETATM   27  N14 UNL     1      12.422   9.620  -3.470  1.00  0.00    -0.270 N 
ATOM     28  H13 UNL     1      11.162   9.502  -5.151  1.00  0.00     0.210 HD
ATOM     29  H14 UNL     1      11.753   9.556  -2.702  1.00  0.00     0.190 HD
ENDBRANCH  15  21
ENDBRANCH  13  15
ENDBRANCH   6   7
BRANCH   1  30
HETATM   30  C1  UNL     1      15.914   9.149   5.283  1.00  0.00     0.096 C 
BRANCH  30  31
HETATM   31  N1  UNL     1      16.354   8.627   6.355  1.00  0.00    -0.407 N 
ATOM     32  H12 UNL     1      17.167   9.089   6.763  1.00  0.00     0.155 HD
ATOM     33  H11 UNL     1      15.984   7.810   6.840  1.00  0.00     0.155 HD
ENDBRANCH  30  31
ENDBRANCH   1  30
BRANCH   3  34
HETATM   34  C4  UNL     1      19.940  10.616   3.002  1.00  0.00     0.146 A 
HETATM   35  N3  UNL     1      20.851  10.128   3.895  1.00  0.00    -0.336 N 
HETATM   36  C5  UNL     1      22.168  10.257   3.690  1.00  0.00     0.183 A 
ATOM     37  H3  UNL     1      20.521   9.656   4.737  1.00  0.00     0.168 HD
HETATM   38  N4  UNL     1      22.653  10.866   2.602  1.00  0.00    -0.338 N 
HETATM   39  C6  UNL     1      21.813  11.366   1.685  1.00  0.00     0.119 A 
ATOM     40  H4  UNL     1      23.661  10.949   2.469  1.00  0.00     0.168 HD
HETATM   41  C7  UNL     1      20.415  11.237   1.891  1.00  0.00     0.118 A 
BRANCH  39  42
HETATM   42  N5  UNL     1      22.232  11.961   0.620  1.00  0.00    -0.385 N 
ATOM     43  H52 UNL     1      22.764  11.426  -0.066  1.00  0.00     0.157 HD
ATOM     44  H51 UNL     1      22.049  12.949   0.441  1.00  0.00     0.157 HD
ENDBRANCH  39  42
BRANCH  41  45
HETATM   45  C8  UNL     1      19.527  11.783   0.893  1.00  0.00     0.272 C 
HETATM   46  N6  UNL     1      19.039  13.102   1.042  1.00  0.00    -0.057 NA
HETATM   47  O1  UNL     1      19.164  11.142  -0.108  1.00  0.00    -0.271 OA
ENDBRANCH  41  45
ENDBRANCH   3  34
TORSDOF 10
ENDMDL
MODEL 4
REMARK VINA RESULT: -8.263342857      2.247      7.510
REMARK  10 active torsions:
REMARK  status: ('A' for Active; 'I' for Inactive)
REMARK    1  A    between atoms: N1_1  and  C1_4 
REMARK    2  A    between atoms: C1_4  and  C2_5 
REMARK    3  A    between atoms: N2_7  and  C4_8 
REMARK    4  A    between atoms: C6_14  and  N5_15 
REMARK    5  A    between atoms: C7_18  and  C8_19 
REMARK    6  A    between atoms: C9_24  and  C10_25 
REMARK       I    between atoms: C10_25  and  N8_27 
REMARK    7  A    between atoms: N9_30  and  C13_31 
REMARK    8  A    between atoms: C13_31  and  C14_32 
REMARK    9  A    between atoms: C13_31  and  C15_37 
REMARK   10  A    between atoms: C14_32  and  N10_33 
ROOT
HETATM    1  C2  UNL     1      17.428   9.527   3.885  1.00  0.00     0.030 A 
HETATM    2  C3  UNL     1      18.750   9.035   3.713  1.00  0.00     0.133 A 
HETATM    3  N2  UNL     1      19.089   9.266   2.436  1.00  0.00    -0.248 N 
HETATM    4  N7  UNL     1      18.080   9.859   1.812  1.00  0.00    -0.287 N 
ATOM      5  H7  UNL     1      18.079  10.142   0.831  1.00  0.00     0.188 HD
HETATM    6  C9  UNL     1      17.028  10.034   2.693  1.00  0.00     0.129 A 
ENDROOT
BRANCH   6   7
HETATM    7  C10 UNL     1      15.767  10.653   2.338  1.00  0.00     0.272 C 
HETATM    8  O2  UNL     1      15.443  11.758   2.824  1.00  0.00    -0.266 OA
HETATM    9  N8  UNL     1      14.875  10.000   1.418  1.00  0.00    -0.343 N 
HETATM   10  C11 UNL     1      13.632  10.645   1.084  1.00  0.00     0.156 C 
HETATM   11  C17 UNL     1      15.145   8.737   0.804  1.00  0.00     0.156 C 
HETATM   12  C12 UNL     1      13.634  10.785  -0.421  1.00  0.00     0.293 C 
HETATM   13  N9  UNL     1      13.655   9.501  -1.022  1.00  0.00     0.105 N 
HETATM   14  C16 UNL     1      13.922   8.441  -0.092  1.00  0.00     0.293 C 
BRANCH  13  15
HETATM   15  C13 UNL     1      14.450   9.417  -2.220  1.00  0.00     0.318 C 
BRANCH  15  16
HETATM   16  C14 UNL     1      15.163  10.708  -2.539  1.00  0.00     0.273 C 
BRANCH  16  17
HETATM   17  N10 UNL     1      16.591  10.515  -2.362  1.00  0.00    -0.077 N 
ATOM     18 3H10 UNL     1      16.803   9.768  -1.701  1.00  0.00     0.274 HD
ATOM     19 2H10 UNL     1      17.033  10.107  -3.186  1.00  0.00     0.274 HD
ATOM     20 1H10 UNL     1      17.015  11.403  -2.094  1.00  0.00     0.274 HD
ENDBRANCH  16  17
ENDBRANCH  15  16
BRANCH  15  21
HETATM   21  C15 UNL     1      13.516   9.184  -3.368  1.00  0.00     0.148 A 
HETATM   22  N11 UNL     1      13.329   8.025  -4.046  1.00  0.00    -0.270 N 
HETATM   23  N12 UNL     1      12.426   8.256  -4.986  1.00  0.00    -0.227 N 
ATOM     24  H11 UNL     1      13.798   7.137  -3.865  1.00  0.00     0.190 HD
HETATM   25  N13 UNL     1      12.020   9.498  -4.955  1.00  0.00    -0.227 N 
ATOM     26  H12 UNL     1      12.091   7.557  -5.648  1.00  0.00     0.210 HD
HETATM   27  N14 UNL     1      12.687  10.070  -3.962  1.00  0.00    -0.270 N 
ATOM     28  H13 UNL     1      11.333   9.936  -5.568  1.00  0.00     0.210 HD
ATOM     29  H14 UNL     1      12.587  11.046  -3.685  1.00  0.00     0.190 HD
ENDBRANCH  15  21
ENDBRANCH  13  15
ENDBRANCH   6   7
BRANCH   1  30
HETATM   30  C1  UNL     1      16.799   9.410   5.181  1.00  0.00     0.096 C 
BRANCH  30  31
HETATM   31  N1  UNL     1      17.166   8.671   6.148  1.00  0.00    -0.407 N 
ATOM     32  H12 UNL     1      17.924   9.045   6.719  1.00  0.00     0.155 HD
ATOM     33  H11 UNL     1      16.787   7.760   6.405  1.00  0.00     0.155 HD
ENDBRANCH  30  31
ENDBRANCH   1  30
BRANCH   3  34
HETATM   34  C4  UNL     1      20.358   8.921   1.916  1.00  0.00     0.146 A 
HETATM   35  N3  UNL     1      21.145   8.035   2.596  1.00  0.00    -0.336 N 
HETATM   36  C5  UNL     1      22.353   7.681   2.140  1.00  0.00     0.183 A 
ATOM     37  H3  UNL     1      20.804   7.634   3.470  1.00  0.00     0.168 HD
HETATM   38  N4  UNL     1      22.845   8.177   0.998  1.00  0.00    -0.338 N 
HETATM   39  C6  UNL     1      22.123   9.050   0.282  1.00  0.00     0.119 A 
ATOM     40  H4  UNL     1      23.768   7.890   0.673  1.00  0.00     0.168 HD
HETATM   41  C7  UNL     1      20.843   9.434   0.755  1.00  0.00     0.118 A 
BRANCH  39  42
HETATM   42  N5  UNL     1      22.555   9.555  -0.824  1.00  0.00    -0.385 N 
ATOM     43  H52 UNL     1      21.973  10.233  -1.315  1.00  0.00     0.157 HD
ATOM     44  H51 UNL     1      23.459   9.299  -1.223  1.00  0.00     0.157 HD
ENDBRANCH  39  42
BRANCH  41  45
HETATM   45  C8  UNL     1      20.081  10.376  -0.030  1.00  0.00     0.272 C 
HETATM   46  N6  UNL     1      20.230  11.762   0.210  1.00  0.00    -0.057 NA
HETATM   47  O1  UNL     1      19.289  10.026  -0.921  1.00  0.00    -0.271 OA
ENDBRANCH  41  45
ENDBRANCH   3  34
TORSDOF 10
ENDMDL
MODEL 5
REMARK VINA RESULT: -8.252112177      4.006      6.436
REMARK  10 active torsions:
REMARK  status: ('A' for Active; 'I' for Inactive)
REMARK    1  A    between atoms: N1_1  and  C1_4 
REMARK    2  A    between atoms: C1_4  and  C2_5 
REMARK    3  A    between atoms: N2_7  and  C4_8 
REMARK    4  A    between atoms: C6_14  and  N5_15 
REMARK    5  A    between atoms: C7_18  and  C8_19 
REMARK    6  A    between atoms: C9_24  and  C10_25 
REMARK       I    between atoms: C10_25  and  N8_27 
REMARK    7  A    between atoms: N9_30  and  C13_31 
REMARK    8  A    between atoms: C13_31  and  C14_32 
REMARK    9  A    between atoms: C13_31  and  C15_37 
REMARK   10  A    between atoms: C14_32  and  N10_33 
ROOT
HETATM    1  C2  UNL     1      18.076  10.875   0.069  1.00  0.00     0.030 A 
HETATM    2  C3  UNL     1      16.702  10.557   0.243  1.00  0.00     0.133 A 
HETATM    3  N2  UNL     1      16.479  10.504   1.565  1.00  0.00    -0.248 N 
HETATM    4  N7  UNL     1      17.606  10.763   2.214  1.00  0.00    -0.287 N 
ATOM      5  H7  UNL     1      17.710  10.785   3.229  1.00  0.00     0.188 HD
HETATM    6  C9  UNL     1      18.621  10.999   1.304  1.00  0.00     0.129 A 
ENDROOT
BRANCH   6   7
HETATM    7  C10 UNL     1      19.986  11.313   1.675  1.00  0.00     0.272 C 
HETATM    8  O2  UNL     1      20.350  12.502   1.805  1.00  0.00    -0.266 OA
HETATM    9  N8  UNL     1      20.936  10.258   1.899  1.00  0.00    -0.343 N 
HETATM   10  C11 UNL     1      22.282  10.606   2.271  1.00  0.00     0.156 C 
HETATM   11  C17 UNL     1      20.627   8.867   1.778  1.00  0.00     0.156 C 
HETATM   12  C12 UNL     1      22.544   9.897   3.580  1.00  0.00     0.293 C 
HETATM   13  N9  UNL     1      22.475   8.494   3.387  1.00  0.00     0.105 N 
HETATM   14  C16 UNL     1      21.939   8.120   2.108  1.00  0.00     0.293 C 
BRANCH  13  15
HETATM   15  C13 UNL     1      21.883   7.770   4.483  1.00  0.00     0.318 C 
BRANCH  15  16
HETATM   16  C14 UNL     1      22.294   8.312   5.829  1.00  0.00     0.273 C 
BRANCH  16  17
HETATM   17  N10 UNL     1      21.105   8.541   6.630  1.00  0.00    -0.077 N 
ATOM     18 3H10 UNL     1      21.183   8.139   7.564  1.00  0.00     0.274 HD
ATOM     19 2H10 UNL     1      21.003   9.518   6.903  1.00  0.00     0.274 HD
ATOM     20 1H10 UNL     1      20.291   8.192   6.124  1.00  0.00     0.274 HD
ENDBRANCH  16  17
ENDBRANCH  15  16
BRANCH  15  21
HETATM   21  C15 UNL     1      22.412   6.369   4.439  1.00  0.00     0.148 A 
HETATM   22  N11 UNL     1      23.658   5.956   4.779  1.00  0.00    -0.270 N 
HETATM   23  N12 UNL     1      23.709   4.648   4.585  1.00  0.00    -0.227 N 
ATOM     24  H11 UNL     1      24.417   6.546   5.121  1.00  0.00     0.190 HD
HETATM   25  N13 UNL     1      22.568   4.193   4.139  1.00  0.00    -0.227 N 
ATOM     26  H12 UNL     1      24.531   4.071   4.761  1.00  0.00     0.210 HD
HETATM   27  N14 UNL     1      21.770   5.247   4.049  1.00  0.00    -0.270 N 
ATOM     28  H13 UNL     1      22.339   3.226   3.909  1.00  0.00     0.210 HD
ATOM     29  H14 UNL     1      20.802   5.215   3.729  1.00  0.00     0.190 HD
ENDBRANCH  15  21
ENDBRANCH  13  15
ENDBRANCH   6   7
BRANCH   1  30
HETATM   30  C1  UNL     1      18.602  10.999  -1.272  1.00  0.00     0.096 C 
BRANCH  30  31
HETATM   31  N1  UNL     1      17.941  11.007  -2.357  1.00  0.00    -0.407 N 
ATOM     32  H12 UNL     1      17.055  11.511  -2.325  1.00  0.00     0.155 HD
ATOM     33  H11 UNL     1      18.203  10.571  -3.241  1.00  0.00     0.155 HD
ENDBRANCH  30  31
ENDBRANCH   1  30
BRANCH   3  34
HETATM   34  C4  UNL     1      15.201  10.230   2.106  1.00  0.00     0.146 A 
HETATM   35  N3  UNL     1      14.087  10.472   1.353  1.00  0.00    -0.336 N 
HETATM   36  C5  UNL     1      12.858  10.228   1.827  1.00  0.00     0.183 A 
ATOM     37  H3  UNL     1      14.193  10.846   0.411  1.00  0.00     0.168 HD
HETATM   38  N4  UNL     1      12.664   9.735   3.056  1.00  0.00    -0.338 N 
HETATM   39  C6  UNL     1      13.716   9.474   3.845  1.00  0.00     0.119 A 
ATOM     40  H4  UNL     1      11.718   9.557   3.391  1.00  0.00     0.168 HD
HETATM   41  C7  UNL     1      15.022   9.730   3.356  1.00  0.00     0.118 A 
BRANCH  39  42
HETATM   42  N5  UNL     1      13.579   8.999   5.037  1.00  0.00    -0.385 N 
ATOM     43  H52 UNL     1      14.242   8.297   5.365  1.00  0.00     0.157 HD
ATOM     44  H51 UNL     1      12.832   9.303   5.662  1.00  0.00     0.157 HD
ENDBRANCH  39  42
BRANCH  41  45
HETATM   45  C8  UNL     1      16.141   9.445   4.222  1.00  0.00     0.272 C 
HETATM   46  N6  UNL     1      16.524  10.392   5.200  1.00  0.00    -0.057 NA
HETATM   47  O1  UNL     1      16.796   8.390   4.151  1.00  0.00    -0.271 OA
ENDBRANCH  41  45
ENDBRANCH   3  34
TORSDOF 10
ENDMDL
