MODEL 1
REMARK VINA RESULT: -7.650125607      0.000      0.000
REMARK  3 active torsions:
REMARK  status: ('A' for Active; 'I' for Inactive)
REMARK    1  A    between atoms: N1_1  and  C1_4 
REMARK    2  A    between atoms: C3_13  and  C4_14 
REMARK    3  A    between atoms: C4_14  and  C5_15 
ROOT
HETATM    1  C1  UNL     1     -26.503   6.390  23.764  1.00  0.00     0.127 A 
HETATM    2  N2  UNL     1     -25.677   5.360  24.042  1.00  0.00    -0.292 N 
ATOM      3  H2  UNL     1     -25.512   5.103  25.015  1.00  0.00     0.172 HD
HETATM    4  C2  UNL     1     -25.076   4.673  23.080  1.00  0.00     0.340 A 
HETATM    5  O1  UNL     1     -24.293   3.700  23.317  1.00  0.00    -0.245 OA
HETATM    6  N3  UNL     1     -25.313   5.035  21.801  1.00  0.00    -0.251 N 
ATOM      7  H3  UNL     1     -24.860   4.522  21.045  1.00  0.00     0.191 HD
HETATM    8  N4  UNL     1     -26.120   6.042  21.507  1.00  0.00    -0.297 N 
ATOM      9  H4  UNL     1     -26.269   6.278  20.526  1.00  0.00     0.187 HD
HETATM   10  C3  UNL     1     -26.750   6.765  22.446  1.00  0.00     0.076 A 
ENDROOT
BRANCH  10  11
HETATM   11  C4  UNL     1     -27.650   7.891  22.127  1.00  0.00     0.140 C 
BRANCH  11  12
HETATM   12  C5  UNL     1     -29.081   7.591  22.211  1.00  0.00     0.105 A 
HETATM   13  N5  UNL     1     -30.007   8.361  22.838  1.00  0.00    -0.295 N 
HETATM   14  C6  UNL     1     -31.223   7.811  22.722  1.00  0.00     0.340 A 
ATOM     15  H5  UNL     1     -29.806   9.233  23.327  1.00  0.00     0.172 HD
HETATM   16  O2  UNL     1     -32.303   8.250  23.177  1.00  0.00    -0.245 OA
HETATM   17  N6  UNL     1     -31.068   6.690  22.021  1.00  0.00    -0.250 N 
HETATM   18  N7  UNL     1     -29.772   6.554  21.710  1.00  0.00    -0.285 N 
ATOM     19  H6  UNL     1     -31.812   6.042  21.764  1.00  0.00     0.192 HD
ATOM     20  H7  UNL     1     -29.372   5.783  21.176  1.00  0.00     0.188 HD
ENDBRANCH  11  12
ENDBRANCH  10  11
BRANCH   1  21
HETATM   21  N1  UNL     1     -27.044   6.991  24.754  1.00  0.00    -0.384 N 
ATOM     22  H12 UNL     1     -27.758   6.548  25.331  1.00  0.00     0.157 HD
ATOM     23  H11 UNL     1     -26.729   7.941  24.953  1.00  0.00     0.157 HD
ENDBRANCH   1  21
TORSDOF 3
ENDMDL
MODEL 2
REMARK VINA RESULT: -7.616826073      1.105      5.738
REMARK  3 active torsions:
REMARK  status: ('A' for Active; 'I' for Inactive)
REMARK    1  A    between atoms: N1_1  and  C1_4 
REMARK    2  A    between atoms: C3_13  and  C4_14 
REMARK    3  A    between atoms: C4_14  and  C5_15 
ROOT
HETATM    1  C1  UNL     1     -29.956   8.932  22.339  1.00  0.00     0.127 A 
HETATM    2  N2  UNL     1     -31.260   9.113  22.634  1.00  0.00    -0.292 N 
ATOM      3  H2  UNL     1     -31.590  10.046  22.881  1.00  0.00     0.172 HD
HETATM    4  C2  UNL     1     -32.124   8.107  22.609  1.00  0.00     0.340 A 
HETATM    5  O1  UNL     1     -33.356   8.253  22.882  1.00  0.00    -0.245 OA
HETATM    6  N3  UNL     1     -31.659   6.883  22.278  1.00  0.00    -0.251 N 
ATOM      7  H3  UNL     1     -32.305   6.094  22.254  1.00  0.00     0.191 HD
HETATM    8  N4  UNL     1     -30.385   6.684  21.985  1.00  0.00    -0.297 N 
ATOM      9  H4  UNL     1     -30.080   5.742  21.740  1.00  0.00     0.187 HD
HETATM   10  C3  UNL     1     -29.474   7.671  21.997  1.00  0.00     0.076 A 
ENDROOT
BRANCH  10  11
HETATM   11  C4  UNL     1     -28.049   7.458  21.674  1.00  0.00     0.140 C 
BRANCH  11  12
HETATM   12  C5  UNL     1     -27.268   6.782  22.712  1.00  0.00     0.105 A 
HETATM   13  N5  UNL     1     -26.163   6.024  22.491  1.00  0.00    -0.295 N 
HETATM   14  C6  UNL     1     -25.680   5.559  23.650  1.00  0.00     0.340 A 
ATOM     15  H5  UNL     1     -25.760   5.836  21.573  1.00  0.00     0.172 HD
HETATM   16  O2  UNL     1     -24.676   4.831  23.818  1.00  0.00    -0.245 OA
HETATM   17  N6  UNL     1     -26.480   6.022  24.608  1.00  0.00    -0.250 N 
HETATM   18  N7  UNL     1     -27.442   6.764  24.043  1.00  0.00    -0.285 N 
ATOM     19  H6  UNL     1     -26.377   5.842  25.606  1.00  0.00     0.192 HD
ATOM     20  H7  UNL     1     -28.190   7.240  24.546  1.00  0.00     0.188 HD
ENDBRANCH  11  12
ENDBRANCH  10  11
BRANCH   1  21
HETATM   21  N1  UNL     1     -29.197   9.960  22.383  1.00  0.00    -0.384 N 
ATOM     22  H12 UNL     1     -29.273  10.658  23.123  1.00  0.00     0.157 HD
ATOM     23  H11 UNL     1     -28.498  10.058  21.646  1.00  0.00     0.157 HD
ENDBRANCH   1  21
TORSDOF 3
ENDMDL
MODEL 3
REMARK VINA RESULT: -7.533029020      1.116      2.107
REMARK  3 active torsions:
REMARK  status: ('A' for Active; 'I' for Inactive)
REMARK    1  A    between atoms: N1_1  and  C1_4 
REMARK    2  A    between atoms: C3_13  and  C4_14 
REMARK    3  A    between atoms: C4_14  and  C5_15 
ROOT
HETATM    1  C1  UNL     1     -27.082   6.817  21.686  1.00  0.00     0.127 A 
HETATM    2  N2  UNL     1     -26.084   6.033  22.145  1.00  0.00    -0.292 N 
ATOM      3  H2  UNL     1     -25.472   5.564  21.479  1.00  0.00     0.172 HD
HETATM    4  C2  UNL     1     -25.882   5.858  23.444  1.00  0.00     0.340 A 
HETATM    5  O1  UNL     1     -24.950   5.124  23.901  1.00  0.00    -0.245 OA
HETATM    6  N3  UNL     1     -26.709   6.490  24.305  1.00  0.00    -0.251 N 
ATOM      7  H3  UNL     1     -26.572   6.369  25.308  1.00  0.00     0.191 HD
HETATM    8  N4  UNL     1     -27.692   7.264  23.874  1.00  0.00    -0.297 N 
ATOM      9  H4  UNL     1     -28.290   7.722  24.561  1.00  0.00     0.187 HD
HETATM   10  C3  UNL     1     -27.935   7.471  22.570  1.00  0.00     0.076 A 
ENDROOT
BRANCH  10  11
HETATM   11  C4  UNL     1     -29.031   8.331  22.081  1.00  0.00     0.140 C 
BRANCH  11  12
HETATM   12  C5  UNL     1     -30.379   7.782  22.249  1.00  0.00     0.105 A 
HETATM   13  N5  UNL     1     -31.377   8.363  22.963  1.00  0.00    -0.295 N 
HETATM   14  C6  UNL     1     -32.484   7.611  22.908  1.00  0.00     0.340 A 
ATOM     15  H5  UNL     1     -31.295   9.246  23.467  1.00  0.00     0.172 HD
HETATM   16  O2  UNL     1     -33.588   7.844  23.449  1.00  0.00    -0.245 OA
HETATM   17  N6  UNL     1     -32.187   6.551  22.160  1.00  0.00    -0.250 N 
HETATM   18  N7  UNL     1     -30.913   6.652  21.759  1.00  0.00    -0.285 N 
ATOM     19  H6  UNL     1     -32.824   5.789  21.930  1.00  0.00     0.192 HD
ATOM     20  H7  UNL     1     -30.425   5.976  21.172  1.00  0.00     0.188 HD
ENDBRANCH  11  12
ENDBRANCH  10  11
BRANCH   1  21
HETATM   21  N1  UNL     1     -27.199   6.933  20.418  1.00  0.00    -0.384 N 
ATOM     22  H12 UNL     1     -26.569   7.515  19.867  1.00  0.00     0.157 HD
ATOM     23  H11 UNL     1     -27.953   6.412  19.968  1.00  0.00     0.157 HD
ENDBRANCH   1  21
TORSDOF 3
ENDMDL
MODEL 4
REMARK VINA RESULT: -7.474331239      1.757      5.783
REMARK  3 active torsions:
REMARK  status: ('A' for Active; 'I' for Inactive)
REMARK    1  A    between atoms: N1_1  and  C1_4 
REMARK    2  A    between atoms: C3_13  and  C4_14 
REMARK    3  A    between atoms: C4_14  and  C5_15 
ROOT
HETATM    1  C1  UNL     1     -31.138   8.989  22.439  1.00  0.00     0.127 A 
HETATM    2  N2  UNL     1     -32.312   8.938  23.100  1.00  0.00    -0.292 N 
ATOM      3  H2  UNL     1     -32.669   9.781  23.547  1.00  0.00     0.172 HD
HETATM    4  C2  UNL     1     -33.014   7.815  23.182  1.00  0.00     0.340 A 
HETATM    5  O1  UNL     1     -34.123   7.742  23.800  1.00  0.00    -0.245 OA
HETATM    6  N3  UNL     1     -32.517   6.713  22.581  1.00  0.00    -0.251 N 
ATOM      7  H3  UNL     1     -33.040   5.838  22.632  1.00  0.00     0.191 HD
HETATM    8  N4  UNL     1     -31.368   6.743  21.927  1.00  0.00    -0.297 N 
ATOM      9  H4  UNL     1     -31.033   5.885  21.487  1.00  0.00     0.187 HD
HETATM   10  C3  UNL     1     -30.623   7.855  21.817  1.00  0.00     0.076 A 
ENDROOT
BRANCH  10  11
HETATM   11  C4  UNL     1     -29.338   7.896  21.091  1.00  0.00     0.140 C 
BRANCH  11  12
HETATM   12  C5  UNL     1     -28.205   7.284  21.790  1.00  0.00     0.105 A 
HETATM   13  N5  UNL     1     -28.141   7.056  23.127  1.00  0.00    -0.295 N 
HETATM   14  C6  UNL     1     -26.976   6.475  23.442  1.00  0.00     0.340 A 
ATOM     15  H5  UNL     1     -28.875   7.293  23.794  1.00  0.00     0.172 HD
HETATM   16  O2  UNL     1     -26.584   6.126  24.579  1.00  0.00    -0.245 OA
HETATM   17  N6  UNL     1     -26.301   6.335  22.305  1.00  0.00    -0.250 N 
HETATM   18  N7  UNL     1     -27.042   6.823  21.302  1.00  0.00    -0.285 N 
ATOM     19  H6  UNL     1     -25.372   5.924  22.212  1.00  0.00     0.192 HD
ATOM     20  H7  UNL     1     -26.767   6.843  20.320  1.00  0.00     0.188 HD
ENDBRANCH  11  12
ENDBRANCH  10  11
BRANCH   1  21
HETATM   21  N1  UNL     1     -30.532  10.115  22.406  1.00  0.00    -0.384 N 
ATOM     22  H12 UNL     1     -29.596  10.214  22.013  1.00  0.00     0.157 HD
ATOM     23  H11 UNL     1     -31.025  10.923  22.787  1.00  0.00     0.157 HD
ENDBRANCH   1  21
TORSDOF 3
ENDMDL
MODEL 5
REMARK VINA RESULT: -7.383375631      3.111      4.609
REMARK  3 active torsions:
REMARK  status: ('A' for Active; 'I' for Inactive)
REMARK    1  A    between atoms: N1_1  and  C1_4 
REMARK    2  A    between atoms: C3_13  and  C4_14 
REMARK    3  A    between atoms: C4_14  and  C5_15 
ROOT
HETATM    1  C1  UNL     1     -29.808   7.195  21.603  1.00  0.00     0.127 A 
HETATM    2  N2  UNL     1     -28.505   7.218  21.253  1.00  0.00    -0.292 N 
ATOM      3  H2  UNL     1     -28.126   6.453  20.695  1.00  0.00     0.172 HD
HETATM    4  C2  UNL     1     -27.706   8.211  21.617  1.00  0.00     0.340 A 
HETATM    5  O1  UNL     1     -26.476   8.255  21.300  1.00  0.00    -0.245 OA
HETATM    6  N3  UNL     1     -28.235   9.211  22.355  1.00  0.00    -0.251 N 
ATOM      7  H3  UNL     1     -27.638   9.985  22.647  1.00  0.00     0.191 HD
HETATM    8  N4  UNL     1     -29.510   9.208  22.708  1.00  0.00    -0.297 N 
ATOM      9  H4  UNL     1     -29.865   9.985  23.265  1.00  0.00     0.187 HD
HETATM   10  C3  UNL     1     -30.356   8.224  22.363  1.00  0.00     0.076 A 
ENDROOT
BRANCH  10  11
HETATM   11  C4  UNL     1     -31.780   8.212  22.755  1.00  0.00     0.140 C 
BRANCH  11  12
HETATM   12  C5  UNL     1     -32.500   9.468  22.534  1.00  0.00     0.105 A 
HETATM   13  N5  UNL     1     -33.109   9.827  21.375  1.00  0.00    -0.295 N 
HETATM   14  C6  UNL     1     -33.685  11.030  21.508  1.00  0.00     0.340 A 
ATOM     15  H5  UNL     1     -33.126   9.263  20.526  1.00  0.00     0.172 HD
HETATM   16  O2  UNL     1     -34.329  11.664  20.642  1.00  0.00    -0.245 OA
HETATM   17  N6  UNL     1     -33.439  11.434  22.752  1.00  0.00    -0.250 N 
HETATM   18  N7  UNL     1     -32.722  10.490  23.376  1.00  0.00    -0.285 N 
ATOM     19  H6  UNL     1     -33.746  12.316  23.162  1.00  0.00     0.192 HD
ATOM     20  H7  UNL     1     -32.396  10.539  24.341  1.00  0.00     0.188 HD
ENDBRANCH  11  12
ENDBRANCH  10  11
BRANCH   1  21
HETATM   21  N1  UNL     1     -30.505   6.201  21.203  1.00  0.00    -0.384 N 
ATOM     22  H12 UNL     1     -31.027   5.611  21.850  1.00  0.00     0.157 HD
ATOM     23  H11 UNL     1     -30.526   6.017  20.199  1.00  0.00     0.157 HD
ENDBRANCH   1  21
TORSDOF 3
ENDMDL
