MODEL 1
REMARK VINA RESULT: -6.114022371      0.000      0.000
REMARK  13 active torsions:
REMARK  status: ('A' for Active; 'I' for Inactive)
REMARK    1  A    between atoms: C3_9  and  C4_10 
REMARK       I    between atoms: C4_10  and  N3_12 
REMARK    2  A    between atoms: N3_12  and  N4_14 
REMARK    3  A    between atoms: N6_19  and  C5_20 
REMARK    4  A    between atoms: C5_20  and  O3_21 
REMARK    5  A    between atoms: C5_20  and  C6_23 
REMARK    6  A    between atoms: C6_23  and  C7_24 
REMARK    7  A    between atoms: C6_23  and  N7_27 
REMARK    8  A    between atoms: C7_24  and  O4_25 
REMARK       I    between atoms: N7_27  and  C8_29 
REMARK    9  A    between atoms: C8_29  and  C9_31 
REMARK   10  A    between atoms: C13_35  and  N8_36 
REMARK   11  A    between atoms: N8_36  and  S1_38 
REMARK   12  A    between atoms: S1_38  and  C14_41 
REMARK   13  A    between atoms: C17_44  and  O8_45 
ROOT
HETATM    1  C6  UNL     1      27.670  20.438  -3.314  1.00  0.00     0.185 C 
ENDROOT
BRANCH   1   2
HETATM    2  C5  UNL     1      28.823  19.639  -3.705  1.00  0.00     0.180 C 
BRANCH   2   3
HETATM    3  N6  UNL     1      29.155  18.292  -3.463  1.00  0.00    -0.065 N 
HETATM    4  C1  UNL     1      30.059  17.921  -2.567  1.00  0.00     0.702 A 
HETATM    5  N1  UNL     1      30.653  18.747  -1.766  1.00  0.00    -0.233 N 
HETATM    6  N2  UNL     1      30.355  16.592  -2.445  1.00  0.00    -0.152 N 
ATOM      7  H12 UNL     1      31.348  18.462  -1.076  1.00  0.00     0.174 HD
ATOM      8  H11 UNL     1      30.432  19.739  -1.857  1.00  0.00     0.174 HD
HETATM    9  C2  UNL     1      29.757  15.671  -3.204  1.00  0.00     0.293 A 
ATOM     10  H2  UNL     1      31.048  16.297  -1.758  1.00  0.00     0.187 HD
HETATM   11  O1  UNL     1      30.034  14.446  -3.088  1.00  0.00    -0.265 OA
HETATM   12  C3  UNL     1      28.818  16.053  -4.133  1.00  0.00     0.187 A 
HETATM   13  N5  UNL     1      28.555  17.352  -4.226  1.00  0.00    -0.268 N 
ATOM     14  H5  UNL     1      27.861  17.656  -4.910  1.00  0.00     0.188 HD
BRANCH  12  15
HETATM   15  C4  UNL     1      28.161  15.051  -4.970  1.00  0.00     0.293 C 
HETATM   16  O2  UNL     1      27.028  14.622  -4.614  1.00  0.00    -0.264 OA
HETATM   17  N3  UNL     1      28.736  14.548  -6.156  1.00  0.00    -0.271 N 
ATOM     18  H3  UNL     1      29.652  14.902  -6.435  1.00  0.00     0.189 HD
BRANCH  17  19
HETATM   19  N4  UNL     1      28.123  13.596  -6.966  1.00  0.00    -0.342 N 
ATOM     20  H42 UNL     1      28.039  12.652  -6.592  1.00  0.00     0.176 HD
ATOM     21  H41 UNL     1      27.761  13.798  -7.899  1.00  0.00     0.176 HD
ENDBRANCH  17  19
ENDBRANCH  12  15
ENDBRANCH   2   3
BRANCH   2  22
HETATM   22  O3  UNL     1      29.730  20.271  -4.411  1.00  0.00    -0.346 OA
ATOM     23  H3  UNL     1      30.588  20.262  -4.005  1.00  0.00     0.219 HD
ENDBRANCH   2  22
ENDBRANCH   1   2
BRANCH   1  24
HETATM   24  C7  UNL     1      26.400  20.043  -4.097  1.00  0.00     0.197 C 
BRANCH  24  25
HETATM   25  O4  UNL     1      26.775  19.645  -5.392  1.00  0.00    -0.398 OA
ATOM     26  H4  UNL     1      26.086  19.100  -5.755  1.00  0.00     0.209 HD
ENDBRANCH  24  25
ENDBRANCH   1  24
BRANCH   1  27
HETATM   27  N7  UNL     1      27.339  20.166  -1.886  1.00  0.00    -0.343 N 
HETATM   28  C8  UNL     1      28.050  20.753  -0.818  1.00  0.00     0.252 C 
HETATM   29  O5  UNL     1      28.988  21.525  -1.052  1.00  0.00    -0.268 OA
ATOM     30  H7  UNL     1      26.570  19.531  -1.674  1.00  0.00     0.163 HD
BRANCH  28  31
HETATM   31  C9  UNL     1      27.687  20.455   0.583  1.00  0.00     0.034 A 
HETATM   32  C10 UNL     1      28.258  21.152   1.625  1.00  0.00     0.017 A 
HETATM   33  C11 UNL     1      27.901  20.875   2.918  1.00  0.00     0.003 A 
HETATM   34  C12 UNL     1      26.954  19.883   3.202  1.00  0.00     0.030 A 
HETATM   35  C13 UNL     1      26.368  19.171   2.183  1.00  0.00     0.043 A 
HETATM   36  C20 UNL     1      26.758  19.482   0.877  1.00  0.00     0.047 A 
BRANCH  35  37
HETATM   37  N8  UNL     1      25.395  18.182   2.336  1.00  0.00    -0.281 N 
ATOM     38  H8  UNL     1      24.431  18.512   2.302  1.00  0.00     0.179 HD
BRANCH  37  39
HETATM   39  S1  UNL     1      25.578  16.516   2.570  1.00  0.00     0.263 S 
HETATM   40  O6  UNL     1      24.202  15.950   2.925  1.00  0.00    -0.200 OA
HETATM   41  O7  UNL     1      26.409  16.256   3.826  1.00  0.00    -0.200 OA
BRANCH  39  42
HETATM   42  C14 UNL     1      26.165  15.616   1.229  1.00  0.00     0.080 A 
HETATM   43  C15 UNL     1      25.770  14.304   1.062  1.00  0.00     0.028 A 
HETATM   44  C16 UNL     1      26.219  13.555  -0.001  1.00  0.00     0.038 A 
HETATM   45  C17 UNL     1      27.088  14.071  -0.959  1.00  0.00     0.065 A 
HETATM   46  C18 UNL     1      27.476  15.377  -0.783  1.00  0.00     0.038 A 
HETATM   47  C19 UNL     1      27.034  16.135   0.275  1.00  0.00     0.028 A 
BRANCH  45  48
HETATM   48  O8  UNL     1      27.509  13.269  -2.010  1.00  0.00    -0.361 OA
ATOM     49  H8  UNL     1      28.109  13.620  -2.658  1.00  0.00     0.217 HD
ENDBRANCH  45  48
ENDBRANCH  39  42
ENDBRANCH  37  39
ENDBRANCH  35  37
ENDBRANCH  28  31
ENDBRANCH   1  27
TORSDOF 13
ENDMDL
MODEL 2
REMARK VINA RESULT: -6.058300464      2.052      5.599
REMARK  13 active torsions:
REMARK  status: ('A' for Active; 'I' for Inactive)
REMARK    1  A    between atoms: C3_9  and  C4_10 
REMARK       I    between atoms: C4_10  and  N3_12 
REMARK    2  A    between atoms: N3_12  and  N4_14 
REMARK    3  A    between atoms: N6_19  and  C5_20 
REMARK    4  A    between atoms: C5_20  and  O3_21 
REMARK    5  A    between atoms: C5_20  and  C6_23 
REMARK    6  A    between atoms: C6_23  and  C7_24 
REMARK    7  A    between atoms: C6_23  and  N7_27 
REMARK    8  A    between atoms: C7_24  and  O4_25 
REMARK       I    between atoms: N7_27  and  C8_29 
REMARK    9  A    between atoms: C8_29  and  C9_31 
REMARK   10  A    between atoms: C13_35  and  N8_36 
REMARK   11  A    between atoms: N8_36  and  S1_38 
REMARK   12  A    between atoms: S1_38  and  C14_41 
REMARK   13  A    between atoms: C17_44  and  O8_45 
ROOT
HETATM    1  C6  UNL     1      26.716  14.206  -5.524  1.00  0.00     0.185 C 
ENDROOT
BRANCH   1   2
HETATM    2  C5  UNL     1      28.101  14.630  -5.376  1.00  0.00     0.180 C 
BRANCH   2   3
HETATM    3  N6  UNL     1      28.741  15.418  -4.398  1.00  0.00    -0.065 N 
HETATM    4  C1  UNL     1      29.627  14.927  -3.543  1.00  0.00     0.702 A 
HETATM    5  N1  UNL     1      30.059  13.706  -3.583  1.00  0.00    -0.233 N 
HETATM    6  N2  UNL     1      30.152  15.757  -2.593  1.00  0.00    -0.152 N 
ATOM      7  H12 UNL     1      30.741  13.328  -2.926  1.00  0.00     0.174 HD
ATOM      8  H11 UNL     1      29.668  13.086  -4.293  1.00  0.00     0.174 HD
HETATM    9  C2  UNL     1      29.791  17.040  -2.510  1.00  0.00     0.293 A 
ATOM     10  H2  UNL     1      30.835  15.388  -1.932  1.00  0.00     0.187 HD
HETATM   11  O1  UNL     1      30.277  17.801  -1.631  1.00  0.00    -0.265 OA
HETATM   12  C3  UNL     1      28.873  17.552  -3.397  1.00  0.00     0.187 A 
HETATM   13  N5  UNL     1      28.383  16.717  -4.308  1.00  0.00    -0.268 N 
ATOM     14  H5  UNL     1      27.700  17.078  -4.975  1.00  0.00     0.188 HD
BRANCH  12  15
HETATM   15  C4  UNL     1      28.470  18.954  -3.311  1.00  0.00     0.293 C 
HETATM   16  O2  UNL     1      27.245  19.235  -3.435  1.00  0.00    -0.264 OA
HETATM   17  N3  UNL     1      29.388  20.002  -3.094  1.00  0.00    -0.271 N 
ATOM     18  H3  UNL     1      30.376  19.764  -2.996  1.00  0.00     0.189 HD
BRANCH  17  19
HETATM   19  N4  UNL     1      29.022  21.342  -3.008  1.00  0.00    -0.342 N 
ATOM     20  H42 UNL     1      28.131  21.609  -3.426  1.00  0.00     0.176 HD
ATOM     21  H41 UNL     1      29.593  22.055  -2.553  1.00  0.00     0.176 HD
ENDBRANCH  17  19
ENDBRANCH  12  15
ENDBRANCH   2   3
BRANCH   2  22
HETATM   22  O3  UNL     1      28.919  14.215  -6.314  1.00  0.00    -0.346 OA
ATOM     23  H3  UNL     1      28.554  13.513  -6.839  1.00  0.00     0.219 HD
ENDBRANCH   2  22
ENDBRANCH   1   2
BRANCH   1  24
HETATM   24  C7  UNL     1      26.598  12.875  -6.295  1.00  0.00     0.197 C 
BRANCH  24  25
HETATM   25  O4  UNL     1      27.042  11.831  -5.464  1.00  0.00    -0.398 OA
ATOM     26  H4  UNL     1      26.329  11.574  -4.890  1.00  0.00     0.209 HD
ENDBRANCH  24  25
ENDBRANCH   1  24
BRANCH   1  27
HETATM   27  N7  UNL     1      26.138  13.923  -4.180  1.00  0.00    -0.343 N 
HETATM   28  C8  UNL     1      25.432  14.894  -3.438  1.00  0.00     0.252 C 
HETATM   29  O5  UNL     1      25.276  16.031  -3.902  1.00  0.00    -0.268 OA
ATOM     30  H7  UNL     1      26.258  12.992  -3.781  1.00  0.00     0.163 HD
BRANCH  28  31
HETATM   31  C9  UNL     1      24.875  14.569  -2.109  1.00  0.00     0.034 A 
HETATM   32  C10 UNL     1      23.686  13.885  -1.988  1.00  0.00     0.017 A 
HETATM   33  C11 UNL     1      23.188  13.579  -0.749  1.00  0.00     0.003 A 
HETATM   34  C12 UNL     1      23.877  13.955   0.412  1.00  0.00     0.030 A 
HETATM   35  C13 UNL     1      25.065  14.639   0.322  1.00  0.00     0.043 A 
HETATM   36  C20 UNL     1      25.541  14.934  -0.959  1.00  0.00     0.047 A 
BRANCH  35  37
HETATM   37  N8  UNL     1      25.854  15.043   1.400  1.00  0.00    -0.281 N 
ATOM     38  H8  UNL     1      26.625  14.416   1.633  1.00  0.00     0.179 HD
BRANCH  37  39
HETATM   39  S1  UNL     1      25.723  16.417   2.378  1.00  0.00     0.263 S 
HETATM   40  O6  UNL     1      26.387  16.090   3.717  1.00  0.00    -0.200 OA
HETATM   41  O7  UNL     1      24.261  16.654   2.749  1.00  0.00    -0.200 OA
BRANCH  39  42
HETATM   42  C14 UNL     1      26.462  17.851   1.784  1.00  0.00     0.080 A 
HETATM   43  C15 UNL     1      27.143  17.821   0.583  1.00  0.00     0.028 A 
HETATM   44  C16 UNL     1      27.744  18.951   0.077  1.00  0.00     0.038 A 
HETATM   45  C17 UNL     1      27.701  20.175   0.741  1.00  0.00     0.065 A 
HETATM   46  C18 UNL     1      27.022  20.193   1.935  1.00  0.00     0.038 A 
HETATM   47  C19 UNL     1      26.417  19.071   2.449  1.00  0.00     0.028 A 
BRANCH  45  48
HETATM   48  O8  UNL     1      28.326  21.281   0.184  1.00  0.00    -0.361 OA
ATOM     49  H8  UNL     1      27.803  21.956  -0.233  1.00  0.00     0.217 HD
ENDBRANCH  45  48
ENDBRANCH  39  42
ENDBRANCH  37  39
ENDBRANCH  35  37
ENDBRANCH  28  31
ENDBRANCH   1  27
TORSDOF 13
ENDMDL
MODEL 3
REMARK VINA RESULT: -5.946849997      4.720      9.165
REMARK  13 active torsions:
REMARK  status: ('A' for Active; 'I' for Inactive)
REMARK    1  A    between atoms: C3_9  and  C4_10 
REMARK       I    between atoms: C4_10  and  N3_12 
REMARK    2  A    between atoms: N3_12  and  N4_14 
REMARK    3  A    between atoms: N6_19  and  C5_20 
REMARK    4  A    between atoms: C5_20  and  O3_21 
REMARK    5  A    between atoms: C5_20  and  C6_23 
REMARK    6  A    between atoms: C6_23  and  C7_24 
REMARK    7  A    between atoms: C6_23  and  N7_27 
REMARK    8  A    between atoms: C7_24  and  O4_25 
REMARK       I    between atoms: N7_27  and  C8_29 
REMARK    9  A    between atoms: C8_29  and  C9_31 
REMARK   10  A    between atoms: C13_35  and  N8_36 
REMARK   11  A    between atoms: N8_36  and  S1_38 
REMARK   12  A    between atoms: S1_38  and  C14_41 
REMARK   13  A    between atoms: C17_44  and  O8_45 
ROOT
HETATM    1  C6  UNL     1      29.001  19.879   9.012  1.00  0.00     0.185 C 
ENDROOT
BRANCH   1   2
HETATM    2  C5  UNL     1      28.945  18.434   9.177  1.00  0.00     0.180 C 
BRANCH   2   3
HETATM    3  N6  UNL     1      27.920  17.500   8.926  1.00  0.00    -0.065 N 
HETATM    4  C1  UNL     1      27.230  16.910   9.891  1.00  0.00     0.702 A 
HETATM    5  N1  UNL     1      27.364  17.200  11.147  1.00  0.00    -0.233 N 
HETATM    6  N2  UNL     1      26.293  15.975   9.550  1.00  0.00    -0.152 N 
ATOM      7  H12 UNL     1      26.833  16.745  11.889  1.00  0.00     0.174 HD
ATOM      8  H11 UNL     1      28.063  17.898  11.402  1.00  0.00     0.174 HD
HETATM    9  C2  UNL     1      26.064  15.648   8.276  1.00  0.00     0.293 A 
ATOM     10  H2  UNL     1      25.757  15.516  10.286  1.00  0.00     0.187 HD
HETATM   11  O1  UNL     1      25.199  14.784   7.967  1.00  0.00    -0.265 OA
HETATM   12  C3  UNL     1      26.778  16.260   7.273  1.00  0.00     0.187 A 
HETATM   13  N5  UNL     1      27.680  17.165   7.640  1.00  0.00    -0.268 N 
ATOM     14  H5  UNL     1      28.221  17.630   6.910  1.00  0.00     0.188 HD
BRANCH  12  15
HETATM   15  C4  UNL     1      26.535  15.907   5.876  1.00  0.00     0.293 C 
HETATM   16  O2  UNL     1      27.525  15.603   5.154  1.00  0.00    -0.264 OA
HETATM   17  N3  UNL     1      25.246  15.889   5.304  1.00  0.00    -0.271 N 
ATOM     18  H3  UNL     1      24.453  16.136   5.896  1.00  0.00     0.189 HD
BRANCH  17  19
HETATM   19  N4  UNL     1      24.997  15.552   3.976  1.00  0.00    -0.342 N 
ATOM     20  H42 UNL     1      25.528  14.773   3.587  1.00  0.00     0.176 HD
ATOM     21  H41 UNL     1      24.321  16.039   3.388  1.00  0.00     0.176 HD
ENDBRANCH  17  19
ENDBRANCH  12  15
ENDBRANCH   2   3
BRANCH   2  22
HETATM   22  O3  UNL     1      30.039  17.879   9.643  1.00  0.00    -0.346 OA
ATOM     23  H3  UNL     1      30.413  17.241   9.048  1.00  0.00     0.219 HD
ENDBRANCH   2  22
ENDBRANCH   1   2
BRANCH   1  24
HETATM   24  C7  UNL     1      30.222  20.497   9.724  1.00  0.00     0.197 C 
BRANCH  24  25
HETATM   25  O4  UNL     1      31.350  20.344   8.899  1.00  0.00    -0.398 OA
ATOM     26  H4  UNL     1      31.891  19.645   9.249  1.00  0.00     0.209 HD
ENDBRANCH  24  25
ENDBRANCH   1  24
BRANCH   1  27
HETATM   27  N7  UNL     1      29.191  20.207   7.571  1.00  0.00    -0.343 N 
HETATM   28  C8  UNL     1      28.108  20.406   6.689  1.00  0.00     0.252 C 
HETATM   29  O5  UNL     1      26.947  20.308   7.106  1.00  0.00    -0.268 OA
ATOM     30  H7  UNL     1      30.141  20.290   7.209  1.00  0.00     0.163 HD
BRANCH  28  31
HETATM   31  C9  UNL     1      28.344  20.730   5.267  1.00  0.00     0.034 A 
HETATM   32  C10 UNL     1      29.470  21.420   4.874  1.00  0.00     0.017 A 
HETATM   33  C11 UNL     1      29.682  21.701   3.551  1.00  0.00     0.003 A 
HETATM   34  C12 UNL     1      28.760  21.295   2.577  1.00  0.00     0.030 A 
HETATM   35  C13 UNL     1      27.628  20.605   2.938  1.00  0.00     0.043 A 
HETATM   36  C20 UNL     1      27.446  20.337   4.298  1.00  0.00     0.047 A 
BRANCH  35  37
HETATM   37  N8  UNL     1      26.654  20.125   2.061  1.00  0.00    -0.281 N 
ATOM     38  H8  UNL     1      25.975  20.817   1.745  1.00  0.00     0.179 HD
BRANCH  37  39
HETATM   39  S1  UNL     1      26.432  18.565   1.445  1.00  0.00     0.263 S 
HETATM   40  O6  UNL     1      25.023  18.503   0.852  1.00  0.00    -0.200 OA
HETATM   41  O7  UNL     1      26.384  17.555   2.590  1.00  0.00    -0.200 OA
BRANCH  39  42
HETATM   42  C14 UNL     1      27.522  18.067   0.212  1.00  0.00     0.080 A 
HETATM   43  C15 UNL     1      28.400  18.983  -0.332  1.00  0.00     0.028 A 
HETATM   44  C16 UNL     1      29.288  18.618  -1.319  1.00  0.00     0.038 A 
HETATM   45  C17 UNL     1      29.348  17.320  -1.819  1.00  0.00     0.065 A 
HETATM   46  C18 UNL     1      28.470  16.418  -1.271  1.00  0.00     0.038 A 
HETATM   47  C19 UNL     1      27.580  16.770  -0.285  1.00  0.00     0.028 A 
BRANCH  45  48
HETATM   48  O8  UNL     1      30.263  17.010  -2.815  1.00  0.00    -0.361 OA
ATOM     49  H8  UNL     1      30.459  16.099  -3.007  1.00  0.00     0.217 HD
ENDBRANCH  45  48
ENDBRANCH  39  42
ENDBRANCH  37  39
ENDBRANCH  35  37
ENDBRANCH  28  31
ENDBRANCH   1  27
TORSDOF 13
ENDMDL
MODEL 4
REMARK VINA RESULT: -5.906895212      2.556      3.613
REMARK  13 active torsions:
REMARK  status: ('A' for Active; 'I' for Inactive)
REMARK    1  A    between atoms: C3_9  and  C4_10 
REMARK       I    between atoms: C4_10  and  N3_12 
REMARK    2  A    between atoms: N3_12  and  N4_14 
REMARK    3  A    between atoms: N6_19  and  C5_20 
REMARK    4  A    between atoms: C5_20  and  O3_21 
REMARK    5  A    between atoms: C5_20  and  C6_23 
REMARK    6  A    between atoms: C6_23  and  C7_24 
REMARK    7  A    between atoms: C6_23  and  N7_27 
REMARK    8  A    between atoms: C7_24  and  O4_25 
REMARK       I    between atoms: N7_27  and  C8_29 
REMARK    9  A    between atoms: C8_29  and  C9_31 
REMARK   10  A    between atoms: C13_35  and  N8_36 
REMARK   11  A    between atoms: N8_36  and  S1_38 
REMARK   12  A    between atoms: S1_38  and  C14_41 
REMARK   13  A    between atoms: C17_44  and  O8_45 
ROOT
HETATM    1  C6  UNL     1      29.451  17.344  -2.118  1.00  0.00     0.185 C 
ENDROOT
BRANCH   1   2
HETATM    2  C5  UNL     1      29.742  16.087  -2.792  1.00  0.00     0.180 C 
BRANCH   2   3
HETATM    3  N6  UNL     1      28.943  15.244  -3.590  1.00  0.00    -0.065 N 
HETATM    4  C1  UNL     1      28.395  14.126  -3.134  1.00  0.00     0.702 A 
HETATM    5  N1  UNL     1      28.463  13.750  -1.896  1.00  0.00    -0.233 N 
HETATM    6  N2  UNL     1      27.683  13.344  -3.999  1.00  0.00    -0.152 N 
ATOM      7  H12 UNL     1      28.041  12.890  -1.545  1.00  0.00     0.174 HD
ATOM      8  H11 UNL     1      28.994  14.333  -1.250  1.00  0.00     0.174 HD
HETATM    9  C2  UNL     1      27.530  13.682  -5.282  1.00  0.00     0.293 A 
ATOM     10  H2  UNL     1      27.258  12.483  -3.657  1.00  0.00     0.187 HD
HETATM   11  O1  UNL     1      26.873  12.956  -6.076  1.00  0.00    -0.265 OA
HETATM   12  C3  UNL     1      28.096  14.842  -5.757  1.00  0.00     0.187 A 
HETATM   13  N5  UNL     1      28.782  15.578  -4.888  1.00  0.00    -0.268 N 
ATOM     14  H5  UNL     1      29.210  16.443  -5.221  1.00  0.00     0.188 HD
BRANCH  12  15
HETATM   15  C4  UNL     1      27.937  15.217  -7.160  1.00  0.00     0.293 C 
HETATM   16  O2  UNL     1      27.120  16.137  -7.445  1.00  0.00    -0.264 OA
HETATM   17  N3  UNL     1      28.656  14.600  -8.204  1.00  0.00    -0.271 N 
ATOM     18  H3  UNL     1      29.314  13.858  -7.962  1.00  0.00     0.189 HD
BRANCH  17  19
HETATM   19  N4  UNL     1      28.519  14.947  -9.545  1.00  0.00    -0.342 N 
ATOM     20  H42 UNL     1      28.749  14.234 -10.236  1.00  0.00     0.176 HD
ATOM     21  H41 UNL     1      28.204  15.865  -9.861  1.00  0.00     0.176 HD
ENDBRANCH  17  19
ENDBRANCH  12  15
ENDBRANCH   2   3
BRANCH   2  22
HETATM   22  O3  UNL     1      30.966  15.640  -2.643  1.00  0.00    -0.346 OA
ATOM     23  H3  UNL     1      31.345  15.869  -1.803  1.00  0.00     0.219 HD
ENDBRANCH   2  22
ENDBRANCH   1   2
BRANCH   1  24
HETATM   24  C7  UNL     1      28.894  18.406  -3.088  1.00  0.00     0.197 C 
BRANCH  24  25
HETATM   25  O4  UNL     1      29.961  18.941  -3.832  1.00  0.00    -0.398 OA
ATOM     26  H4  UNL     1      29.789  18.801  -4.756  1.00  0.00     0.209 HD
ENDBRANCH  24  25
ENDBRANCH   1  24
BRANCH   1  27
HETATM   27  N7  UNL     1      28.365  17.131  -1.119  1.00  0.00    -0.343 N 
HETATM   28  C8  UNL     1      28.005  18.110  -0.170  1.00  0.00     0.252 C 
HETATM   29  O5  UNL     1      28.600  19.195  -0.146  1.00  0.00    -0.268 OA
ATOM     30  H7  UNL     1      27.864  16.243  -1.122  1.00  0.00     0.163 HD
BRANCH  28  31
HETATM   31  C9  UNL     1      26.921  17.856   0.801  1.00  0.00     0.034 A 
HETATM   32  C10 UNL     1      26.351  18.888   1.513  1.00  0.00     0.017 A 
HETATM   33  C11 UNL     1      25.337  18.640   2.400  1.00  0.00     0.003 A 
HETATM   34  C12 UNL     1      24.863  17.336   2.598  1.00  0.00     0.030 A 
HETATM   35  C13 UNL     1      25.412  16.286   1.901  1.00  0.00     0.043 A 
HETATM   36  C20 UNL     1      26.445  16.579   1.006  1.00  0.00     0.047 A 
BRANCH  35  37
HETATM   37  N8  UNL     1      25.009  14.953   1.991  1.00  0.00    -0.281 N 
ATOM     38  H8  UNL     1      24.525  14.702   2.853  1.00  0.00     0.179 HD
BRANCH  37  39
HETATM   39  S1  UNL     1      25.205  13.690   0.882  1.00  0.00     0.263 S 
HETATM   40  O6  UNL     1      24.689  12.413   1.547  1.00  0.00    -0.200 OA
HETATM   41  O7  UNL     1      26.692  13.410   0.670  1.00  0.00    -0.200 OA
BRANCH  39  42
HETATM   42  C14 UNL     1      24.376  13.852  -0.615  1.00  0.00     0.080 A 
HETATM   43  C15 UNL     1      23.080  13.391  -0.730  1.00  0.00     0.028 A 
HETATM   44  C16 UNL     1      22.386  13.506  -1.913  1.00  0.00     0.038 A 
HETATM   45  C17 UNL     1      22.946  14.087  -3.049  1.00  0.00     0.065 A 
HETATM   46  C18 UNL     1      24.235  14.542  -2.923  1.00  0.00     0.038 A 
HETATM   47  C19 UNL     1      24.938  14.433  -1.747  1.00  0.00     0.028 A 
BRANCH  45  48
HETATM   48  O8  UNL     1      22.199  14.176  -4.215  1.00  0.00    -0.361 OA
ATOM     49  H8  UNL     1      22.417  13.623  -4.956  1.00  0.00     0.217 HD
ENDBRANCH  45  48
ENDBRANCH  39  42
ENDBRANCH  37  39
ENDBRANCH  35  37
ENDBRANCH  28  31
ENDBRANCH   1  27
TORSDOF 13
ENDMDL
MODEL 5
REMARK VINA RESULT: -5.858864405      2.854      4.294
REMARK  13 active torsions:
REMARK  status: ('A' for Active; 'I' for Inactive)
REMARK    1  A    between atoms: C3_9  and  C4_10 
REMARK       I    between atoms: C4_10  and  N3_12 
REMARK    2  A    between atoms: N3_12  and  N4_14 
REMARK    3  A    between atoms: N6_19  and  C5_20 
REMARK    4  A    between atoms: C5_20  and  O3_21 
REMARK    5  A    between atoms: C5_20  and  C6_23 
REMARK    6  A    between atoms: C6_23  and  C7_24 
REMARK    7  A    between atoms: C6_23  and  N7_27 
REMARK    8  A    between atoms: C7_24  and  O4_25 
REMARK       I    between atoms: N7_27  and  C8_29 
REMARK    9  A    between atoms: C8_29  and  C9_31 
REMARK   10  A    between atoms: C13_35  and  N8_36 
REMARK   11  A    between atoms: N8_36  and  S1_38 
REMARK   12  A    between atoms: S1_38  and  C14_41 
REMARK   13  A    between atoms: C17_44  and  O8_45 
ROOT
HETATM    1  C6  UNL     1      27.285  19.798  -2.719  1.00  0.00     0.185 C 
ENDROOT
BRANCH   1   2
HETATM    2  C5  UNL     1      28.356  19.100  -3.417  1.00  0.00     0.180 C 
BRANCH   2   3
HETATM    3  N6  UNL     1      28.914  17.819  -3.236  1.00  0.00    -0.065 N 
HETATM    4  C1  UNL     1      30.005  17.603  -2.513  1.00  0.00     0.702 A 
HETATM    5  N1  UNL     1      30.606  18.526  -1.832  1.00  0.00    -0.233 N 
HETATM    6  N2  UNL     1      30.504  16.332  -2.444  1.00  0.00    -0.152 N 
ATOM      7  H12 UNL     1      31.444  18.359  -1.276  1.00  0.00     0.174 HD
ATOM      8  H11 UNL     1      30.233  19.474  -1.884  1.00  0.00     0.174 HD
HETATM    9  C2  UNL     1      29.920  15.316  -3.083  1.00  0.00     0.293 A 
ATOM     10  H2  UNL     1      31.341  16.156  -1.890  1.00  0.00     0.187 HD
HETATM   11  O1  UNL     1      30.385  14.146  -3.016  1.00  0.00    -0.265 OA
HETATM   12  C3  UNL     1      28.788  15.538  -3.832  1.00  0.00     0.187 A 
HETATM   13  N5  UNL     1      28.329  16.785  -3.878  1.00  0.00    -0.268 N 
ATOM     14  H5  UNL     1      27.491  16.970  -4.429  1.00  0.00     0.188 HD
BRANCH  12  15
HETATM   15  C4  UNL     1      28.144  14.432  -4.537  1.00  0.00     0.293 C 
HETATM   16  O2  UNL     1      27.784  14.613  -5.734  1.00  0.00    -0.264 OA
HETATM   17  N3  UNL     1      27.912  13.176  -3.941  1.00  0.00    -0.271 N 
ATOM     18  H3  UNL     1      28.206  13.040  -2.973  1.00  0.00     0.189 HD
BRANCH  17  19
HETATM   19  N4  UNL     1      27.302  12.111  -4.599  1.00  0.00    -0.342 N 
ATOM     20  H42 UNL     1      27.904  11.499  -5.150  1.00  0.00     0.176 HD
ATOM     21  H41 UNL     1      26.301  11.919  -4.556  1.00  0.00     0.176 HD
ENDBRANCH  17  19
ENDBRANCH  12  15
ENDBRANCH   2   3
BRANCH   2  22
HETATM   22  O3  UNL     1      28.917  19.769  -4.396  1.00  0.00    -0.346 OA
ATOM     23  H3  UNL     1      29.798  19.472  -4.590  1.00  0.00     0.219 HD
ENDBRANCH   2  22
ENDBRANCH   1   2
BRANCH   1  24
HETATM   24  C7  UNL     1      26.064  20.042  -3.629  1.00  0.00     0.197 C 
BRANCH  24  25
HETATM   25  O4  UNL     1      26.029  19.042  -4.616  1.00  0.00    -0.398 OA
ATOM     26  H4  UNL     1      25.281  19.196  -5.181  1.00  0.00     0.209 HD
ENDBRANCH  24  25
ENDBRANCH   1  24
BRANCH   1  27
HETATM   27  N7  UNL     1      26.773  18.939  -1.613  1.00  0.00    -0.343 N 
HETATM   28  C8  UNL     1      27.354  18.931  -0.328  1.00  0.00     0.252 C 
HETATM   29  O5  UNL     1      28.329  19.655  -0.087  1.00  0.00    -0.268 OA
ATOM     30  H7  UNL     1      25.971  18.335  -1.793  1.00  0.00     0.163 HD
BRANCH  28  31
HETATM   31  C9  UNL     1      26.813  18.065   0.739  1.00  0.00     0.034 A 
HETATM   32  C10 UNL     1      26.691  16.705   0.555  1.00  0.00     0.017 A 
HETATM   33  C11 UNL     1      26.200  15.912   1.558  1.00  0.00     0.003 A 
HETATM   34  C12 UNL     1      25.814  16.468   2.785  1.00  0.00     0.030 A 
HETATM   35  C13 UNL     1      25.924  17.822   2.998  1.00  0.00     0.043 A 
HETATM   36  C20 UNL     1      26.429  18.598   1.950  1.00  0.00     0.047 A 
BRANCH  35  37
HETATM   37  N8  UNL     1      25.601  18.487   4.181  1.00  0.00    -0.281 N 
ATOM     38  H8  UNL     1      24.602  18.615   4.348  1.00  0.00     0.179 HD
BRANCH  37  39
HETATM   39  S1  UNL     1      26.617  19.112   5.380  1.00  0.00     0.263 S 
HETATM   40  O6  UNL     1      25.767  20.015   6.276  1.00  0.00    -0.200 OA
HETATM   41  O7  UNL     1      27.627  20.073   4.756  1.00  0.00    -0.200 OA
BRANCH  39  42
HETATM   42  C14 UNL     1      27.388  17.966   6.404  1.00  0.00     0.080 A 
HETATM   43  C15 UNL     1      27.938  18.381   7.600  1.00  0.00     0.028 A 
HETATM   44  C16 UNL     1      28.561  17.489   8.444  1.00  0.00     0.038 A 
HETATM   45  C17 UNL     1      28.671  16.134   8.142  1.00  0.00     0.065 A 
HETATM   46  C18 UNL     1      28.120  15.733   6.950  1.00  0.00     0.038 A 
HETATM   47  C19 UNL     1      27.496  16.614   6.099  1.00  0.00     0.028 A 
BRANCH  45  48
HETATM   48  O8  UNL     1      29.310  15.282   9.030  1.00  0.00    -0.361 OA
ATOM     49  H8  UNL     1      29.906  15.638   9.678  1.00  0.00     0.217 HD
ENDBRANCH  45  48
ENDBRANCH  39  42
ENDBRANCH  37  39
ENDBRANCH  35  37
ENDBRANCH  28  31
ENDBRANCH   1  27
TORSDOF 13
ENDMDL
