MODEL 1
REMARK VINA RESULT: -8.511612703      0.000      0.000
REMARK  2 active torsions:
REMARK  status: ('A' for Active; 'I' for Inactive)
REMARK    1  A    between atoms: C9_9  and  O1_10 
REMARK    2  A    between atoms: C14_17  and  O2_18 
ROOT
HETATM    1  C1  UNL     1     -15.006  34.860  -4.920  1.00  0.00     0.039 C 
HETATM    2  C2  UNL     1     -15.815  35.732  -3.977  1.00  0.00     0.118 C 
HETATM    3  C3  UNL     1     -16.670  34.783  -3.152  1.00  0.00     0.045 C 
HETATM    4  C4  UNL     1     -16.896  35.638  -1.898  1.00  0.00     0.009 C 
HETATM    5  C5  UNL     1     -15.566  36.261  -1.805  1.00  0.00     0.132 C 
HETATM    6  C6  UNL     1     -14.671  35.225  -1.155  1.00  0.00     0.033 C 
HETATM    7  C7  UNL     1     -15.541  34.126  -0.644  1.00  0.00     0.010 C 
HETATM    8  C8  UNL     1     -16.954  34.660  -0.754  1.00  0.00     0.027 C 
HETATM    9  C9  UNL     1     -17.328  35.246   0.570  1.00  0.00     0.123 C 
HETATM   10  C10 UNL     1     -17.876  36.626   0.510  1.00  0.00     0.041 C 
HETATM   11  C11 UNL     1     -18.856  36.673  -0.674  1.00  0.00     0.046 C 
HETATM   12  C12 UNL     1     -19.625  37.924  -0.557  1.00  0.00     0.130 C 
HETATM   13  C13 UNL     1     -20.891  37.599   0.261  1.00  0.00     0.055 C 
HETATM   14  F1  UNL     1     -18.931  38.846   0.245  1.00  0.00    -0.240 F 
HETATM   15  C14 UNL     1     -20.071  38.641  -1.755  1.00  0.00     0.164 C 
HETATM   16  C15 UNL     1     -19.203  38.509  -2.972  1.00  0.00     0.114 C 
HETATM   17  C16 UNL     1     -17.939  37.842  -2.537  1.00  0.00     0.139 C 
HETATM   18  O3  UNL     1     -16.931  38.487  -2.696  1.00  0.00    -0.297 OA
HETATM   19  C17 UNL     1     -18.097  36.498  -1.979  1.00  0.00     0.034 C 
HETATM   20  C18 UNL     1     -19.113  35.774  -2.887  1.00  0.00     0.025 C 
HETATM   21  O4  UNL     1     -15.036  36.430  -3.097  1.00  0.00    -0.380 OA
ENDROOT
BRANCH   9  22
HETATM   22  O1  UNL     1     -18.344  34.419   1.104  1.00  0.00    -0.395 OA
ATOM     23  H1  UNL     1     -18.111  34.256   2.011  1.00  0.00     0.210 HD
ENDBRANCH   9  22
BRANCH  15  24
HETATM   24  O2  UNL     1     -20.210  40.004  -1.488  1.00  0.00    -0.392 OA
ATOM     25  H2  UNL     1     -20.415  40.481  -2.284  1.00  0.00     0.210 HD
ENDBRANCH  15  24
TORSDOF 2
ENDMDL
MODEL 2
REMARK VINA RESULT: -8.209865629      3.403      5.250
REMARK  2 active torsions:
REMARK  status: ('A' for Active; 'I' for Inactive)
REMARK    1  A    between atoms: C9_9  and  O1_10 
REMARK    2  A    between atoms: C14_17  and  O2_18 
ROOT
HETATM    1  C1  UNL     1     -14.250  30.446  -7.658  1.00  0.00     0.039 C 
HETATM    2  C2  UNL     1     -14.540  31.846  -7.149  1.00  0.00     0.118 C 
HETATM    3  C3  UNL     1     -14.821  31.705  -5.660  1.00  0.00     0.045 C 
HETATM    4  C4  UNL     1     -14.452  33.114  -5.178  1.00  0.00     0.009 C 
HETATM    5  C5  UNL     1     -13.287  33.354  -6.046  1.00  0.00     0.132 C 
HETATM    6  C6  UNL     1     -12.129  32.631  -5.389  1.00  0.00     0.033 C 
HETATM    7  C7  UNL     1     -12.567  32.206  -4.028  1.00  0.00     0.010 C 
HETATM    8  C8  UNL     1     -13.880  32.925  -3.797  1.00  0.00     0.027 C 
HETATM    9  C9  UNL     1     -13.590  34.186  -3.048  1.00  0.00     0.123 C 
HETATM   10  C10 UNL     1     -14.177  35.415  -3.641  1.00  0.00     0.041 C 
HETATM   11  C11 UNL     1     -15.614  35.070  -4.067  1.00  0.00     0.046 C 
HETATM   12  C12 UNL     1     -16.298  36.339  -4.367  1.00  0.00     0.130 C 
HETATM   13  C13 UNL     1     -16.977  36.804  -3.063  1.00  0.00     0.055 C 
HETATM   14  F1  UNL     1     -15.356  37.346  -4.636  1.00  0.00    -0.240 F 
HETATM   15  C14 UNL     1     -17.318  36.407  -5.418  1.00  0.00     0.164 C 
HETATM   16  C15 UNL     1     -17.155  35.456  -6.567  1.00  0.00     0.114 C 
HETATM   17  C16 UNL     1     -15.803  34.833  -6.431  1.00  0.00     0.139 C 
HETATM   18  O3  UNL     1     -15.044  35.037  -7.347  1.00  0.00    -0.297 OA
HETATM   19  C17 UNL     1     -15.586  34.063  -5.205  1.00  0.00     0.034 C 
HETATM   20  C18 UNL     1     -16.872  33.240  -4.983  1.00  0.00     0.025 C 
HETATM   21  O4  UNL     1     -13.472  32.690  -7.272  1.00  0.00    -0.380 OA
ENDROOT
BRANCH   9  22
HETATM   22  O1  UNL     1     -14.160  34.032  -1.762  1.00  0.00    -0.395 OA
ATOM     23  H1  UNL     1     -13.723  34.656  -1.195  1.00  0.00     0.210 HD
ENDBRANCH   9  22
BRANCH  15  24
HETATM   24  O2  UNL     1     -17.388  37.695  -5.952  1.00  0.00    -0.392 OA
ATOM     25  H2  UNL     1     -16.588  38.175  -5.771  1.00  0.00     0.210 HD
ENDBRANCH  15  24
TORSDOF 2
ENDMDL
MODEL 3
REMARK VINA RESULT: -8.141196833      2.073      4.485
REMARK  2 active torsions:
REMARK  status: ('A' for Active; 'I' for Inactive)
REMARK    1  A    between atoms: C9_9  and  O1_10 
REMARK    2  A    between atoms: C14_17  and  O2_18 
ROOT
HETATM    1  C1  UNL     1     -18.048  37.598  -6.009  1.00  0.00     0.039 C 
HETATM    2  C2  UNL     1     -17.917  36.846  -4.696  1.00  0.00     0.118 C 
HETATM    3  C3  UNL     1     -17.706  37.904  -3.623  1.00  0.00     0.045 C 
HETATM    4  C4  UNL     1     -18.231  37.153  -2.392  1.00  0.00     0.009 C 
HETATM    5  C5  UNL     1     -19.364  36.452  -3.019  1.00  0.00     0.132 C 
HETATM    6  C6  UNL     1     -20.484  37.470  -3.098  1.00  0.00     0.033 C 
HETATM    7  C7  UNL     1     -20.082  38.656  -2.287  1.00  0.00     0.010 C 
HETATM    8  C8  UNL     1     -18.856  38.208  -1.518  1.00  0.00     0.027 C 
HETATM    9  C9  UNL     1     -19.304  37.739  -0.171  1.00  0.00     0.123 C 
HETATM   10  C10 UNL     1     -18.802  36.397   0.223  1.00  0.00     0.041 C 
HETATM   11  C11 UNL     1     -17.319  36.333  -0.176  1.00  0.00     0.046 C 
HETATM   12  C12 UNL     1     -16.741  35.146   0.475  1.00  0.00     0.130 C 
HETATM   13  C13 UNL     1     -16.180  35.608   1.836  1.00  0.00     0.055 C 
HETATM   14  F1  UNL     1     -17.756  34.238   0.817  1.00  0.00    -0.240 F 
HETATM   15  C14 UNL     1     -15.676  34.380  -0.179  1.00  0.00     0.164 C 
HETATM   16  C15 UNL     1     -15.687  34.371  -1.679  1.00  0.00     0.114 C 
HETATM   17  C16 UNL     1     -16.980  34.983  -2.111  1.00  0.00     0.139 C 
HETATM   18  O3  UNL     1     -17.704  34.264  -2.756  1.00  0.00    -0.297 OA
HETATM   19  C17 UNL     1     -17.190  36.369  -1.691  1.00  0.00     0.034 C 
HETATM   20  C18 UNL     1     -15.847  37.094  -1.917  1.00  0.00     0.025 C 
HETATM   21  O4  UNL     1     -19.051  36.161  -4.359  1.00  0.00    -0.380 OA
ENDROOT
BRANCH   9  22
HETATM   22  O1  UNL     1     -18.792  38.666   0.769  1.00  0.00    -0.395 OA
ATOM     23  H1  UNL     1     -17.906  38.388   0.968  1.00  0.00     0.210 HD
ENDBRANCH   9  22
BRANCH  15  24
HETATM   24  O2  UNL     1     -15.697  33.049   0.245  1.00  0.00    -0.392 OA
ATOM     25  H2  UNL     1     -15.385  32.980   1.140  1.00  0.00     0.210 HD
ENDBRANCH  15  24
TORSDOF 2
ENDMDL
MODEL 4
REMARK VINA RESULT: -8.124385419      1.879      2.775
REMARK  2 active torsions:
REMARK  status: ('A' for Active; 'I' for Inactive)
REMARK    1  A    between atoms: C9_9  and  O1_10 
REMARK    2  A    between atoms: C14_17  and  O2_18 
ROOT
HETATM    1  C1  UNL     1     -14.885  33.311  -7.217  1.00  0.00     0.039 C 
HETATM    2  C2  UNL     1     -15.464  34.326  -6.248  1.00  0.00     0.118 C 
HETATM    3  C3  UNL     1     -15.602  33.607  -4.915  1.00  0.00     0.045 C 
HETATM    4  C4  UNL     1     -15.545  34.801  -3.954  1.00  0.00     0.009 C 
HETATM    5  C5  UNL     1     -14.531  35.608  -4.653  1.00  0.00     0.132 C 
HETATM    6  C6  UNL     1     -13.193  35.007  -4.271  1.00  0.00     0.033 C 
HETATM    7  C7  UNL     1     -13.426  34.038  -3.162  1.00  0.00     0.010 C 
HETATM    8  C8  UNL     1     -14.853  34.285  -2.719  1.00  0.00     0.027 C 
HETATM    9  C9  UNL     1     -14.819  35.233  -1.562  1.00  0.00     0.123 C 
HETATM   10  C10 UNL     1     -15.719  36.408  -1.690  1.00  0.00     0.041 C 
HETATM   11  C11 UNL     1     -17.059  35.894  -2.243  1.00  0.00     0.046 C 
HETATM   12  C12 UNL     1     -18.042  36.979  -2.086  1.00  0.00     0.130 C 
HETATM   13  C13 UNL     1     -18.722  36.774  -0.717  1.00  0.00     0.055 C 
HETATM   14  F1  UNL     1     -17.386  38.214  -1.957  1.00  0.00    -0.240 F 
HETATM   15  C14 UNL     1     -19.118  37.159  -3.066  1.00  0.00     0.164 C 
HETATM   16  C15 UNL     1     -18.812  36.743  -4.475  1.00  0.00     0.114 C 
HETATM   17  C16 UNL     1     -17.345  36.464  -4.540  1.00  0.00     0.139 C 
HETATM   18  O3  UNL     1     -16.720  37.156  -5.305  1.00  0.00    -0.297 OA
HETATM   19  C17 UNL     1     -16.870  35.390  -3.665  1.00  0.00     0.034 C 
HETATM   20  C18 UNL     1     -17.907  34.254  -3.780  1.00  0.00     0.025 C 
HETATM   21  O4  UNL     1     -14.636  35.394  -6.039  1.00  0.00    -0.380 OA
ENDROOT
BRANCH   9  22
HETATM   22  O1  UNL     1     -15.249  34.502  -0.430  1.00  0.00    -0.395 OA
ATOM     23  H1  UNL     1     -14.532  34.522   0.193  1.00  0.00     0.210 HD
ENDBRANCH   9  22
BRANCH  15  24
HETATM   24  O2  UNL     1     -19.526  38.494  -3.105  1.00  0.00    -0.392 OA
ATOM     25  H2  UNL     1     -20.107  38.687  -2.378  1.00  0.00     0.210 HD
ENDBRANCH  15  24
TORSDOF 2
ENDMDL
MODEL 5
REMARK VINA RESULT: -7.973595946      1.786      2.838
REMARK  2 active torsions:
REMARK  status: ('A' for Active; 'I' for Inactive)
REMARK    1  A    between atoms: C9_9  and  O1_10 
REMARK    2  A    between atoms: C14_17  and  O2_18 
ROOT
HETATM    1  C1  UNL     1     -14.820  32.907  -0.018  1.00  0.00     0.039 C 
HETATM    2  C2  UNL     1     -15.473  34.168  -0.555  1.00  0.00     0.118 C 
HETATM    3  C3  UNL     1     -16.945  34.073  -0.182  1.00  0.00     0.045 C 
HETATM    4  C4  UNL     1     -17.319  35.560  -0.165  1.00  0.00     0.009 C 
HETATM    5  C5  UNL     1     -16.082  36.100   0.424  1.00  0.00     0.132 C 
HETATM    6  C6  UNL     1     -16.203  35.868   1.917  1.00  0.00     0.033 C 
HETATM    7  C7  UNL     1     -17.604  35.442   2.202  1.00  0.00     0.010 C 
HETATM    8  C8  UNL     1     -18.361  35.696   0.915  1.00  0.00     0.027 C 
HETATM    9  C9  UNL     1     -19.004  37.043   1.017  1.00  0.00     0.123 C 
HETATM   10  C10 UNL     1     -18.748  37.946  -0.135  1.00  0.00     0.041 C 
HETATM   11  C11 UNL     1     -18.892  37.104  -1.413  1.00  0.00     0.046 C 
HETATM   12  C12 UNL     1     -18.945  38.038  -2.550  1.00  0.00     0.130 C 
HETATM   13  C13 UNL     1     -20.433  38.361  -2.797  1.00  0.00     0.055 C 
HETATM   14  F1  UNL     1     -18.385  39.275  -2.188  1.00  0.00    -0.240 F 
HETATM   15  C14 UNL     1     -18.374  37.667  -3.848  1.00  0.00     0.164 C 
HETATM   16  C15 UNL     1     -17.204  36.728  -3.818  1.00  0.00     0.114 C 
HETATM   17  C16 UNL     1     -16.776  36.610  -2.391  1.00  0.00     0.139 C 
HETATM   18  O3  UNL     1     -15.649  36.975  -2.157  1.00  0.00    -0.297 OA
HETATM   19  C17 UNL     1     -17.781  36.068  -1.475  1.00  0.00     0.034 C 
HETATM   20  C18 UNL     1     -18.440  34.884  -2.214  1.00  0.00     0.025 C 
HETATM   21  O4  UNL     1     -14.990  35.307   0.027  1.00  0.00    -0.380 OA
ENDROOT
BRANCH   9  22
HETATM   22  O1  UNL     1     -20.400  36.820   1.067  1.00  0.00    -0.395 OA
ATOM     23  H1  UNL     1     -20.751  37.441   1.694  1.00  0.00     0.210 HD
ENDBRANCH   9  22
BRANCH  15  24
HETATM   24  O2  UNL     1     -17.977  38.805  -4.553  1.00  0.00    -0.392 OA
ATOM     25  H2  UNL     1     -17.155  39.138  -4.212  1.00  0.00     0.210 HD
ENDBRANCH  15  24
TORSDOF 2
ENDMDL
