MODEL 1
REMARK VINA RESULT: -9.008656227      0.000      0.000
REMARK  13 active torsions:
REMARK  status: ('A' for Active; 'I' for Inactive)
REMARK    1  A    between atoms: C2_2  and  C3_3 
REMARK    2  A    between atoms: C6_8  and  N2_9 
REMARK    3  A    between atoms: N2_9  and  C7_10 
REMARK    4  A    between atoms: C7_10  and  C8_11 
REMARK    5  A    between atoms: C8_11  and  N3_12 
REMARK    6  A    between atoms: C10_17  and  S1_18 
REMARK    7  A    between atoms: C13_21  and  N5_22 
REMARK    8  A    between atoms: N5_22  and  C14_24 
REMARK    9  A    between atoms: C14_24  and  C15_25 
REMARK   10  A    between atoms: C15_25  and  C16_26 
REMARK   11  A    between atoms: C16_26  and  N6_27 
REMARK   12  A    between atoms: C23_37  and  O2_38 
REMARK   13  A    between atoms: C25_40  and  O3_41 
ROOT
HETATM    1  N3  UNL     1      -9.278  20.361 -19.964  1.00  0.00    -0.220 N 
ATOM      2  H3  UNL     1      -8.828  20.776 -20.779  1.00  0.00     0.178 HD
HETATM    3  C9  UNL     1      -8.880  19.203 -19.660  1.00  0.00     0.680 A 
HETATM    4  N4  UNL     1      -7.909  18.624 -20.428  1.00  0.00    -0.186 N 
ATOM      5  H4  UNL     1      -7.526  19.128 -21.229  1.00  0.00     0.185 HD
HETATM    6  C10 UNL     1      -7.458  17.393 -20.133  1.00  0.00     0.089 A 
HETATM    7  C12 UNL     1      -8.010  16.751 -19.038  1.00  0.00     0.086 A 
HETATM    8  C13 UNL     1      -8.989  17.314 -18.248  1.00  0.00     0.119 A 
HETATM    9  N7  UNL     1      -9.401  18.565 -18.603  1.00  0.00    -0.177 N 
ATOM     10  H7  UNL     1     -10.124  19.025 -18.051  1.00  0.00     0.185 HD
ENDROOT
BRANCH   1  11
HETATM   11  C8  UNL     1     -10.263  21.173 -19.336  1.00  0.00     0.197 C 
BRANCH  11  12
HETATM   12  C7  UNL     1     -11.680  20.794 -19.782  1.00  0.00     0.177 C 
BRANCH  12  13
HETATM   13  N2  UNL     1     -12.661  21.032 -18.897  1.00  0.00    -0.401 NA
BRANCH  13  14
HETATM   14  C6  UNL     1     -13.272  21.084 -17.869  1.00  0.00     0.189 A 
HETATM   15  N1  UNL     1     -12.753  20.431 -16.773  1.00  0.00    -0.334 N 
HETATM   16  C4  UNL     1     -13.350  20.427 -15.580  1.00  0.00     0.015 A 
ATOM     17  H1  UNL     1     -11.872  19.927 -16.878  1.00  0.00     0.168 HD
HETATM   18  C3  UNL     1     -14.554  21.089 -15.351  1.00  0.00    -0.025 A 
HETATM   19  C5  UNL     1     -12.732  19.697 -14.423  1.00  0.00     0.069 C 
HETATM   20  C28 UNL     1     -15.115  21.758 -16.417  1.00  0.00    -0.010 A 
HETATM   21  C21 UNL     1     -14.467  21.745 -17.657  1.00  0.00     0.036 A 
HETATM   22  C27 UNL     1     -16.298  22.421 -16.248  1.00  0.00     0.052 A 
HETATM   23  C22 UNL     1     -15.074  22.430 -18.696  1.00  0.00     0.057 A 
HETATM   24  C23 UNL     1     -16.273  23.097 -18.510  1.00  0.00     0.102 A 
HETATM   25  C25 UNL     1     -16.905  23.106 -17.288  1.00  0.00     0.102 A 
BRANCH  18  26
HETATM   26  C2  UNL     1     -15.176  21.038 -13.989  1.00  0.00     0.037 C 
HETATM   27  C1  UNL     1     -16.140  19.883 -13.953  1.00  0.00     0.010 C 
ENDBRANCH  18  26
BRANCH  24  28
HETATM   28  O2  UNL     1     -16.821  23.759 -19.593  1.00  0.00    -0.353 OA
HETATM   29  C24 UNL     1     -16.047  24.621 -20.411  1.00  0.00     0.210 C 
ENDBRANCH  24  28
BRANCH  25  30
HETATM   30  O3  UNL     1     -18.117  23.779 -17.093  1.00  0.00    -0.353 OA
HETATM   31  C26 UNL     1     -19.203  23.035 -16.577  1.00  0.00     0.210 C 
ENDBRANCH  25  30
ENDBRANCH  13  14
ENDBRANCH  12  13
ENDBRANCH  11  12
ENDBRANCH   1  11
BRANCH   6  32
HETATM   32  S1  UNL     1      -6.194  16.655 -21.150  1.00  0.00    -0.116 SA
HETATM   33  C11 UNL     1      -6.909  15.953 -22.658  1.00  0.00     0.097 C 
ENDBRANCH   6  32
BRANCH   8  34
HETATM   34  N5  UNL     1      -9.517  16.752 -17.221  1.00  0.00    -0.376 N 
ATOM     35  H5  UNL     1      -9.299  15.781 -17.002  1.00  0.00     0.161 HD
BRANCH  34  36
HETATM   36  C14 UNL     1     -10.420  17.498 -16.375  1.00  0.00     0.123 C 
BRANCH  36  37
HETATM   37  C15 UNL     1     -10.126  17.154 -14.930  1.00  0.00     0.050 C 
BRANCH  37  38
HETATM   38  C16 UNL     1      -8.692  17.451 -14.628  1.00  0.00     0.274 C 
BRANCH  38  39
HETATM   39  N6  UNL     1      -7.917  16.302 -14.276  1.00  0.00     0.092 N 
HETATM   40  C17 UNL     1      -6.881  15.962 -15.197  1.00  0.00     0.298 C 
HETATM   41  C18 UNL     1      -6.864  14.534 -15.642  1.00  0.00     0.198 C 
HETATM   42  O1  UNL     1      -7.119  13.607 -14.669  1.00  0.00    -0.388 OA
HETATM   43  C19 UNL     1      -7.631  14.084 -13.491  1.00  0.00     0.198 C 
HETATM   44  C20 UNL     1      -8.663  15.169 -13.826  1.00  0.00     0.298 C 
ENDBRANCH  38  39
ENDBRANCH  37  38
ENDBRANCH  36  37
ENDBRANCH  34  36
ENDBRANCH   8  34
TORSDOF 13
ENDMDL
MODEL 2
REMARK VINA RESULT: -8.799298793      2.450      4.807
REMARK  13 active torsions:
REMARK  status: ('A' for Active; 'I' for Inactive)
REMARK    1  A    between atoms: C2_2  and  C3_3 
REMARK    2  A    between atoms: C6_8  and  N2_9 
REMARK    3  A    between atoms: N2_9  and  C7_10 
REMARK    4  A    between atoms: C7_10  and  C8_11 
REMARK    5  A    between atoms: C8_11  and  N3_12 
REMARK    6  A    between atoms: C10_17  and  S1_18 
REMARK    7  A    between atoms: C13_21  and  N5_22 
REMARK    8  A    between atoms: N5_22  and  C14_24 
REMARK    9  A    between atoms: C14_24  and  C15_25 
REMARK   10  A    between atoms: C15_25  and  C16_26 
REMARK   11  A    between atoms: C16_26  and  N6_27 
REMARK   12  A    between atoms: C23_37  and  O2_38 
REMARK   13  A    between atoms: C25_40  and  O3_41 
ROOT
HETATM    1  N3  UNL     1     -11.125  17.854 -15.811  1.00  0.00    -0.220 N 
ATOM      2  H3  UNL     1     -11.442  17.924 -14.844  1.00  0.00     0.178 HD
HETATM    3  C9  UNL     1     -10.163  17.062 -16.007  1.00  0.00     0.680 A 
HETATM    4  N4  UNL     1      -9.645  16.388 -14.936  1.00  0.00    -0.186 N 
ATOM      5  H4  UNL     1     -10.036  16.534 -14.005  1.00  0.00     0.185 HD
HETATM    6  C10 UNL     1      -8.621  15.533 -15.107  1.00  0.00     0.089 A 
HETATM    7  C12 UNL     1      -8.126  15.371 -16.389  1.00  0.00     0.086 A 
HETATM    8  C13 UNL     1      -8.631  16.039 -17.483  1.00  0.00     0.119 A 
HETATM    9  N7  UNL     1      -9.669  16.890 -17.240  1.00  0.00    -0.177 N 
ATOM     10  H7  UNL     1     -10.078  17.409 -18.017  1.00  0.00     0.185 HD
ENDROOT
BRANCH   1  11
HETATM   11  C8  UNL     1     -11.833  18.665 -16.741  1.00  0.00     0.197 C 
BRANCH  11  12
HETATM   12  C7  UNL     1     -11.566  20.157 -16.512  1.00  0.00     0.177 C 
BRANCH  12  13
HETATM   13  N2  UNL     1     -12.613  20.886 -16.092  1.00  0.00    -0.401 NA
BRANCH  13  14
HETATM   14  C6  UNL     1     -13.647  21.189 -15.571  1.00  0.00     0.189 A 
HETATM   15  N1  UNL     1     -13.796  20.927 -14.227  1.00  0.00    -0.334 N 
HETATM   16  C4  UNL     1     -14.905  21.226 -13.548  1.00  0.00     0.015 A 
ATOM     17  H1  UNL     1     -13.025  20.483 -13.729  1.00  0.00     0.168 HD
HETATM   18  C3  UNL     1     -16.004  21.833 -14.151  1.00  0.00    -0.025 A 
HETATM   19  C5  UNL     1     -15.005  20.916 -12.082  1.00  0.00     0.069 C 
HETATM   20  C28 UNL     1     -15.904  22.116 -15.496  1.00  0.00    -0.010 A 
HETATM   21  C21 UNL     1     -14.730  21.791 -16.184  1.00  0.00     0.036 A 
HETATM   22  C27 UNL     1     -16.956  22.707 -16.139  1.00  0.00     0.052 A 
HETATM   23  C22 UNL     1     -14.682  22.093 -17.534  1.00  0.00     0.057 A 
HETATM   24  C23 UNL     1     -15.755  22.692 -18.172  1.00  0.00     0.102 A 
HETATM   25  C25 UNL     1     -16.908  23.010 -17.490  1.00  0.00     0.102 A 
BRANCH  18  26
HETATM   26  C2  UNL     1     -17.221  22.135 -13.333  1.00  0.00     0.037 C 
HETATM   27  C1  UNL     1     -17.123  23.554 -12.843  1.00  0.00     0.010 C 
ENDBRANCH  18  26
BRANCH  24  28
HETATM   28  O2  UNL     1     -15.637  22.964 -19.522  1.00  0.00    -0.353 OA
HETATM   29  C24 UNL     1     -15.358  24.271 -19.999  1.00  0.00     0.210 C 
ENDBRANCH  24  28
BRANCH  25  30
HETATM   30  O3  UNL     1     -17.995  23.615 -18.128  1.00  0.00    -0.353 OA
HETATM   31  C26 UNL     1     -18.649  24.670 -17.450  1.00  0.00     0.210 C 
ENDBRANCH  25  30
ENDBRANCH  13  14
ENDBRANCH  12  13
ENDBRANCH  11  12
ENDBRANCH   1  11
BRANCH   6  32
HETATM   32  S1  UNL     1      -7.958  14.666 -13.698  1.00  0.00    -0.116 SA
HETATM   33  C11 UNL     1      -6.634  13.539 -14.200  1.00  0.00     0.097 C 
ENDBRANCH   6  32
BRANCH   8  34
HETATM   34  N5  UNL     1      -8.203  15.907 -18.687  1.00  0.00    -0.376 N 
ATOM     35  H5  UNL     1      -8.652  15.243 -19.318  1.00  0.00     0.161 HD
BRANCH  34  36
HETATM   36  C14 UNL     1      -7.085  16.697 -19.148  1.00  0.00     0.123 C 
BRANCH  36  37
HETATM   37  C15 UNL     1      -7.486  17.407 -20.423  1.00  0.00     0.050 C 
BRANCH  37  38
HETATM   38  C16 UNL     1      -7.624  18.871 -20.159  1.00  0.00     0.274 C 
BRANCH  38  39
HETATM   39  N6  UNL     1      -8.895  19.417 -20.522  1.00  0.00     0.092 N 
HETATM   40  C17 UNL     1      -8.906  20.822 -20.771  1.00  0.00     0.298 C 
HETATM   41  C18 UNL     1      -9.961  21.593 -20.042  1.00  0.00     0.198 C 
HETATM   42  O1  UNL     1     -11.189  20.994 -19.971  1.00  0.00    -0.388 OA
HETATM   43  C19 UNL     1     -11.243  19.669 -20.312  1.00  0.00     0.198 C 
HETATM   44  C20 UNL     1     -10.002  18.978 -19.731  1.00  0.00     0.298 C 
ENDBRANCH  38  39
ENDBRANCH  37  38
ENDBRANCH  36  37
ENDBRANCH  34  36
ENDBRANCH   8  34
TORSDOF 13
ENDMDL
MODEL 3
REMARK VINA RESULT: -8.773162362      0.743      1.058
REMARK  13 active torsions:
REMARK  status: ('A' for Active; 'I' for Inactive)
REMARK    1  A    between atoms: C2_2  and  C3_3 
REMARK    2  A    between atoms: C6_8  and  N2_9 
REMARK    3  A    between atoms: N2_9  and  C7_10 
REMARK    4  A    between atoms: C7_10  and  C8_11 
REMARK    5  A    between atoms: C8_11  and  N3_12 
REMARK    6  A    between atoms: C10_17  and  S1_18 
REMARK    7  A    between atoms: C13_21  and  N5_22 
REMARK    8  A    between atoms: N5_22  and  C14_24 
REMARK    9  A    between atoms: C14_24  and  C15_25 
REMARK   10  A    between atoms: C15_25  and  C16_26 
REMARK   11  A    between atoms: C16_26  and  N6_27 
REMARK   12  A    between atoms: C23_37  and  O2_38 
REMARK   13  A    between atoms: C25_40  and  O3_41 
ROOT
HETATM    1  N3  UNL     1      -9.495  20.174 -20.570  1.00  0.00    -0.220 N 
ATOM      2  H3  UNL     1      -9.178  20.112 -21.537  1.00  0.00     0.178 HD
HETATM    3  C9  UNL     1      -9.191  19.192 -19.839  1.00  0.00     0.680 A 
HETATM    4  N4  UNL     1      -8.484  18.161 -20.392  1.00  0.00    -0.186 N 
ATOM      5  H4  UNL     1      -8.218  18.197 -21.376  1.00  0.00     0.185 HD
HETATM    6  C10 UNL     1      -8.139  17.099 -19.643  1.00  0.00     0.089 A 
HETATM    7  C12 UNL     1      -8.525  17.097 -18.314  1.00  0.00     0.086 A 
HETATM    8  C13 UNL     1      -9.238  18.124 -17.734  1.00  0.00     0.119 A 
HETATM    9  N7  UNL     1      -9.555  19.170 -18.550  1.00  0.00    -0.177 N 
ATOM     10  H7  UNL     1     -10.082  19.955 -18.168  1.00  0.00     0.185 HD
ENDROOT
BRANCH   1  11
HETATM   11  C8  UNL     1     -10.217  21.356 -20.244  1.00  0.00     0.197 C 
BRANCH  11  12
HETATM   12  C7  UNL     1     -11.711  21.073 -20.049  1.00  0.00     0.177 C 
BRANCH  12  13
HETATM   13  N2  UNL     1     -12.161  21.124 -18.784  1.00  0.00    -0.401 NA
BRANCH  13  14
HETATM   14  C6  UNL     1     -12.896  21.089 -17.841  1.00  0.00     0.189 A 
HETATM   15  N1  UNL     1     -12.484  20.397 -16.724  1.00  0.00    -0.334 N 
HETATM   16  C4  UNL     1     -13.223  20.298 -15.618  1.00  0.00     0.015 A 
ATOM     17  H1  UNL     1     -11.572  19.940 -16.742  1.00  0.00     0.168 HD
HETATM   18  C3  UNL     1     -14.478  20.892 -15.508  1.00  0.00    -0.025 A 
HETATM   19  C5  UNL     1     -12.716  19.531 -14.430  1.00  0.00     0.069 C 
HETATM   20  C28 UNL     1     -14.936  21.596 -16.600  1.00  0.00    -0.010 A 
HETATM   21  C21 UNL     1     -14.140  21.684 -17.748  1.00  0.00     0.036 A 
HETATM   22  C27 UNL     1     -16.164  22.195 -16.548  1.00  0.00     0.052 A 
HETATM   23  C22 UNL     1     -14.648  22.399 -18.818  1.00  0.00     0.057 A 
HETATM   24  C23 UNL     1     -15.893  23.001 -18.751  1.00  0.00     0.102 A 
HETATM   25  C25 UNL     1     -16.672  22.912 -17.619  1.00  0.00     0.102 A 
BRANCH  18  26
HETATM   26  C2  UNL     1     -15.261  20.735 -14.241  1.00  0.00     0.037 C 
HETATM   27  C1  UNL     1     -16.153  19.532 -14.382  1.00  0.00     0.010 C 
ENDBRANCH  18  26
BRANCH  24  28
HETATM   28  O2  UNL     1     -16.337  23.699 -19.859  1.00  0.00    -0.353 OA
HETATM   29  C24 UNL     1     -15.913  25.027 -20.124  1.00  0.00     0.210 C 
ENDBRANCH  24  28
BRANCH  25  30
HETATM   30  O3  UNL     1     -17.931  23.518 -17.545  1.00  0.00    -0.353 OA
HETATM   31  C26 UNL     1     -18.881  22.949 -16.665  1.00  0.00     0.210 C 
ENDBRANCH  25  30
ENDBRANCH  13  14
ENDBRANCH  12  13
ENDBRANCH  11  12
ENDBRANCH   1  11
BRANCH   6  32
HETATM   32  S1  UNL     1      -7.221  15.764 -20.385  1.00  0.00    -0.116 SA
HETATM   33  C11 UNL     1      -7.060  16.007 -22.171  1.00  0.00     0.097 C 
ENDBRANCH   6  32
BRANCH   8  34
HETATM   34  N5  UNL     1      -9.605  18.160 -16.503  1.00  0.00    -0.376 N 
ATOM     35  H5  UNL     1      -9.419  18.990 -15.940  1.00  0.00     0.161 HD
BRANCH  34  36
HETATM   36  C14 UNL     1     -10.281  17.027 -15.917  1.00  0.00     0.123 C 
BRANCH  36  37
HETATM   37  C15 UNL     1      -9.848  16.899 -14.471  1.00  0.00     0.050 C 
BRANCH  37  38
HETATM   38  C16 UNL     1      -8.356  16.929 -14.391  1.00  0.00     0.274 C 
BRANCH  38  39
HETATM   39  N6  UNL     1      -7.711  15.842 -15.061  1.00  0.00     0.092 N 
HETATM   40  C17 UNL     1      -7.894  14.561 -14.459  1.00  0.00     0.298 C 
HETATM   41  C18 UNL     1      -6.640  13.781 -14.221  1.00  0.00     0.198 C 
HETATM   42  O1  UNL     1      -5.708  13.838 -15.220  1.00  0.00    -0.388 OA
HETATM   43  C19 UNL     1      -5.894  14.804 -16.174  1.00  0.00     0.198 C 
HETATM   44  C20 UNL     1      -6.362  16.083 -15.469  1.00  0.00     0.298 C 
ENDBRANCH  38  39
ENDBRANCH  37  38
ENDBRANCH  36  37
ENDBRANCH  34  36
ENDBRANCH   8  34
TORSDOF 13
ENDMDL
MODEL 4
REMARK VINA RESULT: -8.601148758      3.611     10.394
REMARK  13 active torsions:
REMARK  status: ('A' for Active; 'I' for Inactive)
REMARK    1  A    between atoms: C2_2  and  C3_3 
REMARK    2  A    between atoms: C6_8  and  N2_9 
REMARK    3  A    between atoms: N2_9  and  C7_10 
REMARK    4  A    between atoms: C7_10  and  C8_11 
REMARK    5  A    between atoms: C8_11  and  N3_12 
REMARK    6  A    between atoms: C10_17  and  S1_18 
REMARK    7  A    between atoms: C13_21  and  N5_22 
REMARK    8  A    between atoms: N5_22  and  C14_24 
REMARK    9  A    between atoms: C14_24  and  C15_25 
REMARK   10  A    between atoms: C15_25  and  C16_26 
REMARK   11  A    between atoms: C16_26  and  N6_27 
REMARK   12  A    between atoms: C23_37  and  O2_38 
REMARK   13  A    between atoms: C25_40  and  O3_41 
ROOT
HETATM    1  N3  UNL     1     -15.238  20.658 -14.117  1.00  0.00    -0.220 N 
ATOM      2  H3  UNL     1     -14.823  20.656 -13.185  1.00  0.00     0.178 HD
HETATM    3  C9  UNL     1     -16.120  21.539 -14.311  1.00  0.00     0.680 A 
HETATM    4  N4  UNL     1     -16.432  22.387 -13.286  1.00  0.00    -0.186 N 
ATOM      5  H4  UNL     1     -15.957  22.296 -12.388  1.00  0.00     0.185 HD
HETATM    6  C10 UNL     1     -17.365  23.340 -13.457  1.00  0.00     0.089 A 
HETATM    7  C12 UNL     1     -17.982  23.422 -14.694  1.00  0.00     0.086 A 
HETATM    8  C13 UNL     1     -17.684  22.579 -15.742  1.00  0.00     0.119 A 
HETATM    9  N7  UNL     1     -16.729  21.635 -15.501  1.00  0.00    -0.177 N 
ATOM     10  H7  UNL     1     -16.472  20.986 -16.245  1.00  0.00     0.185 HD
ENDROOT
BRANCH   1  11
HETATM   11  C8  UNL     1     -14.737  19.667 -15.005  1.00  0.00     0.197 C 
BRANCH  11  12
HETATM   12  C7  UNL     1     -13.274  19.322 -14.705  1.00  0.00     0.177 C 
BRANCH  12  13
HETATM   13  N2  UNL     1     -12.551  18.865 -15.740  1.00  0.00    -0.401 NA
BRANCH  13  14
HETATM   14  C6  UNL     1     -11.798  18.832 -16.669  1.00  0.00     0.189 A 
HETATM   15  N1  UNL     1     -11.999  19.724 -17.699  1.00  0.00    -0.334 N 
HETATM   16  C4  UNL     1     -11.218  19.775 -18.779  1.00  0.00     0.015 A 
ATOM     17  H1  UNL     1     -12.781  20.376 -17.633  1.00  0.00     0.168 HD
HETATM   18  C3  UNL     1     -10.130  18.922 -18.948  1.00  0.00    -0.025 A 
HETATM   19  C5  UNL     1     -11.490  20.774 -19.867  1.00  0.00     0.069 C 
HETATM   20  C28 UNL     1      -9.885  18.010 -17.945  1.00  0.00    -0.010 A 
HETATM   21  C21 UNL     1     -10.721  17.978 -16.823  1.00  0.00     0.036 A 
HETATM   22  C27 UNL     1      -8.833  17.146 -18.063  1.00  0.00     0.052 A 
HETATM   23  C22 UNL     1     -10.435  17.040 -15.846  1.00  0.00     0.057 A 
HETATM   24  C23 UNL     1      -9.365  16.172 -15.979  1.00  0.00     0.102 A 
HETATM   25  C25 UNL     1      -8.546  16.208 -17.085  1.00  0.00     0.102 A 
BRANCH  18  26
HETATM   26  C2  UNL     1      -9.298  19.026 -20.190  1.00  0.00     0.037 C 
HETATM   27  C1  UNL     1      -8.149  19.957 -19.913  1.00  0.00     0.010 C 
ENDBRANCH  18  26
BRANCH  24  28
HETATM   28  O2  UNL     1      -9.139  15.261 -14.964  1.00  0.00    -0.353 OA
HETATM   29  C24 UNL     1      -8.395  15.603 -13.806  1.00  0.00     0.210 C 
ENDBRANCH  24  28
BRANCH  25  30
HETATM   30  O3  UNL     1      -7.463  15.333 -17.225  1.00  0.00    -0.353 OA
HETATM   31  C26 UNL     1      -6.178  15.825 -16.900  1.00  0.00     0.210 C 
ENDBRANCH  25  30
ENDBRANCH  13  14
ENDBRANCH  12  13
ENDBRANCH  11  12
ENDBRANCH   1  11
BRANCH   6  32
HETATM   32  S1  UNL     1     -17.760  24.434 -12.107  1.00  0.00    -0.116 SA
HETATM   33  C11 UNL     1     -19.445  25.075 -12.269  1.00  0.00     0.097 C 
ENDBRANCH   6  32
BRANCH   8  34
HETATM   34  N5  UNL     1     -18.228  22.631 -16.904  1.00  0.00    -0.376 N 
ATOM     35  H5  UNL     1     -18.440  21.769 -17.407  1.00  0.00     0.161 HD
BRANCH  34  36
HETATM   36  C14 UNL     1     -18.541  23.909 -17.499  1.00  0.00     0.123 C 
BRANCH  36  37
HETATM   37  C15 UNL     1     -17.791  24.031 -18.809  1.00  0.00     0.050 C 
BRANCH  37  38
HETATM   38  C16 UNL     1     -16.523  24.791 -18.590  1.00  0.00     0.274 C 
BRANCH  38  39
HETATM   39  N6  UNL     1     -15.361  23.968 -18.455  1.00  0.00     0.092 N 
HETATM   40  C17 UNL     1     -15.376  22.763 -19.219  1.00  0.00     0.298 C 
HETATM   41  C18 UNL     1     -15.060  21.517 -18.455  1.00  0.00     0.198 C 
HETATM   42  O1  UNL     1     -14.050  21.624 -17.539  1.00  0.00    -0.388 OA
HETATM   43  C19 UNL     1     -13.644  22.894 -17.223  1.00  0.00     0.198 C 
HETATM   44  C20 UNL     1     -14.892  23.779 -17.117  1.00  0.00     0.298 C 
ENDBRANCH  38  39
ENDBRANCH  37  38
ENDBRANCH  36  37
ENDBRANCH  34  36
ENDBRANCH   8  34
TORSDOF 13
ENDMDL
MODEL 5
REMARK VINA RESULT: -8.595924286      1.554      1.956
REMARK  13 active torsions:
REMARK  status: ('A' for Active; 'I' for Inactive)
REMARK    1  A    between atoms: C2_2  and  C3_3 
REMARK    2  A    between atoms: C6_8  and  N2_9 
REMARK    3  A    between atoms: N2_9  and  C7_10 
REMARK    4  A    between atoms: C7_10  and  C8_11 
REMARK    5  A    between atoms: C8_11  and  N3_12 
REMARK    6  A    between atoms: C10_17  and  S1_18 
REMARK    7  A    between atoms: C13_21  and  N5_22 
REMARK    8  A    between atoms: N5_22  and  C14_24 
REMARK    9  A    between atoms: C14_24  and  C15_25 
REMARK   10  A    between atoms: C15_25  and  C16_26 
REMARK   11  A    between atoms: C16_26  and  N6_27 
REMARK   12  A    between atoms: C23_37  and  O2_38 
REMARK   13  A    between atoms: C25_40  and  O3_41 
ROOT
HETATM    1  N3  UNL     1     -10.062  19.730 -19.661  1.00  0.00    -0.220 N 
ATOM      2  H3  UNL     1      -9.981  19.800 -20.675  1.00  0.00     0.178 HD
HETATM    3  C9  UNL     1      -9.543  18.699 -19.149  1.00  0.00     0.680 A 
HETATM    4  N4  UNL     1      -8.938  17.795 -19.976  1.00  0.00    -0.186 N 
ATOM      5  H4  UNL     1      -8.916  17.960 -20.982  1.00  0.00     0.185 HD
HETATM    6  C10 UNL     1      -8.372  16.686 -19.466  1.00  0.00     0.089 A 
HETATM    7  C12 UNL     1      -8.430  16.507 -18.095  1.00  0.00     0.086 A 
HETATM    8  C13 UNL     1      -9.034  17.404 -17.242  1.00  0.00     0.119 A 
HETATM    9  N7  UNL     1      -9.588  18.507 -17.824  1.00  0.00    -0.177 N 
ATOM     10  H7  UNL     1     -10.048  19.201 -17.235  1.00  0.00     0.185 HD
ENDROOT
BRANCH   1  11
HETATM   11  C8  UNL     1     -10.743  20.808 -19.031  1.00  0.00     0.197 C 
BRANCH  11  12
HETATM   12  C7  UNL     1     -12.225  20.847 -19.418  1.00  0.00     0.177 C 
BRANCH  12  13
HETATM   13  N2  UNL     1     -13.050  21.437 -18.538  1.00  0.00    -0.401 NA
BRANCH  13  14
HETATM   14  C6  UNL     1     -13.781  21.602 -17.606  1.00  0.00     0.189 A 
HETATM   15  N1  UNL     1     -13.374  21.143 -16.373  1.00  0.00    -0.334 N 
HETATM   16  C4  UNL     1     -14.110  21.277 -15.268  1.00  0.00     0.015 A 
ATOM     17  H1  UNL     1     -12.468  20.679 -16.301  1.00  0.00     0.168 HD
HETATM   18  C3  UNL     1     -15.357  21.898 -15.278  1.00  0.00    -0.025 A 
HETATM   19  C5  UNL     1     -13.607  20.757 -13.952  1.00  0.00     0.069 C 
HETATM   20  C28 UNL     1     -15.811  22.375 -16.488  1.00  0.00    -0.010 A 
HETATM   21  C21 UNL     1     -15.018  22.220 -17.631  1.00  0.00     0.036 A 
HETATM   22  C27 UNL     1     -17.030  22.987 -16.556  1.00  0.00     0.052 A 
HETATM   23  C22 UNL     1     -15.521  22.713 -18.823  1.00  0.00     0.057 A 
HETATM   24  C23 UNL     1     -16.758  23.332 -18.876  1.00  0.00     0.102 A 
HETATM   25  C25 UNL     1     -17.533  23.482 -17.748  1.00  0.00     0.102 A 
BRANCH  18  26
HETATM   26  C2  UNL     1     -16.136  22.008 -14.003  1.00  0.00     0.037 C 
HETATM   27  C1  UNL     1     -16.990  20.778 -13.863  1.00  0.00     0.010 C 
ENDBRANCH  18  26
BRANCH  24  28
HETATM   28  O2  UNL     1     -17.198  23.800 -20.100  1.00  0.00    -0.353 OA
HETATM   29  C24 UNL     1     -16.823  25.077 -20.590  1.00  0.00     0.210 C 
ENDBRANCH  24  28
BRANCH  25  30
HETATM   30  O3  UNL     1     -18.784  24.107 -17.794  1.00  0.00    -0.353 OA
HETATM   31  C26 UNL     1     -18.848  25.473 -17.433  1.00  0.00     0.210 C 
ENDBRANCH  25  30
ENDBRANCH  13  14
ENDBRANCH  12  13
ENDBRANCH  11  12
ENDBRANCH   1  11
BRANCH   6  32
HETATM   32  S1  UNL     1      -7.591  15.518 -20.562  1.00  0.00    -0.116 SA
HETATM   33  C11 UNL     1      -7.203  16.287 -22.154  1.00  0.00     0.097 C 
ENDBRANCH   6  32
BRANCH   8  34
HETATM   34  N5  UNL     1      -9.099  17.275 -15.965  1.00  0.00    -0.376 N 
ATOM     35  H5  UNL     1      -9.134  18.103 -15.370  1.00  0.00     0.161 HD
BRANCH  34  36
HETATM   36  C14 UNL     1      -9.122  15.959 -15.372  1.00  0.00     0.123 C 
BRANCH  36  37
HETATM   37  C15 UNL     1      -7.855  15.768 -14.565  1.00  0.00     0.050 C 
BRANCH  37  38
HETATM   38  C16 UNL     1      -7.208  14.476 -14.947  1.00  0.00     0.274 C 
BRANCH  38  39
HETATM   39  N6  UNL     1      -6.002  14.624 -15.701  1.00  0.00     0.092 N 
HETATM   40  C17 UNL     1      -4.961  13.704 -15.371  1.00  0.00     0.298 C 
HETATM   41  C18 UNL     1      -3.626  14.320 -15.099  1.00  0.00     0.198 C 
HETATM   42  O1  UNL     1      -3.267  15.348 -15.928  1.00  0.00    -0.388 OA
HETATM   43  C19 UNL     1      -4.260  15.877 -16.709  1.00  0.00     0.198 C 
HETATM   44  C20 UNL     1      -5.535  15.966 -15.861  1.00  0.00     0.298 C 
ENDBRANCH  38  39
ENDBRANCH  37  38
ENDBRANCH  36  37
ENDBRANCH  34  36
ENDBRANCH   8  34
TORSDOF 13
ENDMDL
