MODEL 1
REMARK VINA RESULT: -6.196870212      0.000      0.000
REMARK  14 active torsions:
REMARK  status: ('A' for Active; 'I' for Inactive)
REMARK    1  A    between atoms: C2_2  and  C3_3 
REMARK    2  A    between atoms: C3_3  and  C5_5 
REMARK    3  A    between atoms: C7_10  and  C8_11 
REMARK    4  A    between atoms: C11_16  and  O2_17 
REMARK    5  A    between atoms: C12_19  and  C13_20 
REMARK    6  A    between atoms: C13_20  and  C14_21 
REMARK    7  A    between atoms: C14_21  and  C15_22 
REMARK    8  A    between atoms: C17_29  and  C18_30 
REMARK    9  A    between atoms: C18_30  and  C19_31 
REMARK   10  A    between atoms: C22_36  and  O5_37 
REMARK   11  A    between atoms: C23_39  and  C24_40 
REMARK   12  A    between atoms: C24_40  and  C25_41 
REMARK   13  A    between atoms: C29_48  and  C30_49 
REMARK   14  A    between atoms: C30_49  and  C31_50 
ROOT
HETATM    1  C5  UNL     1      23.469  27.191  17.189  1.00  0.00     0.180 C 
HETATM    2  N1  UNL     1      23.226  25.796  17.507  1.00  0.00    -0.346 N 
ATOM      3  H1  UNL     1      22.946  25.218  16.716  1.00  0.00     0.163 HD
HETATM    4  C6  UNL     1      23.317  25.124  18.723  1.00  0.00     0.241 C 
HETATM    5  O1  UNL     1      22.248  24.610  19.208  1.00  0.00    -0.271 OA
HETATM    6  C7  UNL     1      24.550  24.918  19.559  1.00  0.00     0.179 C 
HETATM    7  N2  UNL     1      25.231  23.770  19.028  1.00  0.00    -0.359 N 
ATOM      8  H2  UNL     1      25.571  23.922  18.079  1.00  0.00     0.162 HD
HETATM    9  C11 UNL     1      25.532  22.513  19.500  1.00  0.00     0.135 C 
HETATM   10  C12 UNL     1      26.645  21.963  20.306  1.00  0.00     0.159 C 
HETATM   11  N4  UNL     1      27.361  22.906  21.098  1.00  0.00    -0.347 N 
ATOM     12  H4  UNL     1      26.816  23.240  21.893  1.00  0.00     0.163 HD
HETATM   13  C16 UNL     1      28.634  23.483  21.047  1.00  0.00     0.241 C 
HETATM   14  O4  UNL     1      29.238  23.518  22.190  1.00  0.00    -0.271 OA
HETATM   15  C17 UNL     1      29.395  24.059  19.933  1.00  0.00     0.175 C 
HETATM   16  N5  UNL     1      29.234  25.544  19.966  1.00  0.00    -0.359 N 
ATOM     17  H5  UNL     1      28.869  25.915  20.843  1.00  0.00     0.162 HD
HETATM   18  C22 UNL     1      29.495  26.485  19.017  1.00  0.00     0.135 C 
HETATM   19  C23 UNL     1      28.980  26.695  17.638  1.00  0.00     0.159 C 
HETATM   20  N6  UNL     1      27.520  26.847  17.779  1.00  0.00    -0.347 N 
ATOM     21  H6  UNL     1      26.995  25.975  17.858  1.00  0.00     0.163 HD
HETATM   22  C28 UNL     1      26.762  28.000  17.818  1.00  0.00     0.241 C 
HETATM   23  O6  UNL     1      26.259  28.439  18.931  1.00  0.00    -0.271 OA
HETATM   24  C29 UNL     1      26.416  28.881  16.641  1.00  0.00     0.177 C 
HETATM   25  N7  UNL     1      25.402  28.280  15.818  1.00  0.00    -0.346 N 
ATOM     26  H7  UNL     1      25.353  28.646  14.867  1.00  0.00     0.163 HD
HETATM   27  C34 UNL     1      24.474  27.283  16.104  1.00  0.00     0.241 C 
HETATM   28  O7  UNL     1      24.470  26.266  15.310  1.00  0.00    -0.271 OA
ENDROOT
BRANCH  10  29
HETATM   29  C13 UNL     1      27.469  20.998  19.519  1.00  0.00     0.042 C 
BRANCH  29  30
HETATM   30  C14 UNL     1      27.506  19.594  20.041  1.00  0.00     0.102 C 
BRANCH  30  31
HETATM   31  C15 UNL     1      26.724  18.668  19.147  1.00  0.00     0.231 C 
HETATM   32  N3  UNL     1      26.796  17.265  19.274  1.00  0.00    -0.062 NA
HETATM   33  O3  UNL     1      25.991  19.164  18.267  1.00  0.00    -0.277 OA
ENDBRANCH  30  31
ENDBRANCH  29  30
ENDBRANCH  10  29
BRANCH   9  34
HETATM   34  O2  UNL     1      24.670  21.587  19.182  1.00  0.00    -0.348 OA
ATOM     35  H2  UNL     1      25.028  20.709  19.130  1.00  0.00     0.219 HD
ENDBRANCH   9  34
BRANCH   6  36
HETATM   36  C8  UNL     1      24.263  24.957  21.009  1.00  0.00     0.009 C 
HETATM   37  C9  UNL     1      23.127  25.755  21.491  1.00  0.00     0.012 C 
HETATM   38  C10 UNL     1      25.539  25.553  21.648  1.00  0.00     0.012 C 
ENDBRANCH   6  36
BRANCH  15  39
HETATM   39  C18 UNL     1      30.841  23.767  19.948  1.00  0.00     0.038 C 
BRANCH  39  40
HETATM   40  C19 UNL     1      31.565  22.832  19.146  1.00  0.00    -0.020 C 
HETATM   41  C20 UNL     1      31.119  21.413  19.159  1.00  0.00     0.009 C 
HETATM   42  C21 UNL     1      31.780  23.240  17.695  1.00  0.00     0.009 C 
ENDBRANCH  39  40
ENDBRANCH  15  39
BRANCH  18  43
HETATM   43  O5  UNL     1      30.366  27.404  19.344  1.00  0.00    -0.348 OA
ATOM     44  H5  UNL     1      30.014  28.180  19.763  1.00  0.00     0.219 HD
ENDBRANCH  18  43
BRANCH   1  45
HETATM   45  C3  UNL     1      22.132  27.788  16.714  1.00  0.00     0.013 C 
HETATM   46  C4  UNL     1      21.108  27.459  17.754  1.00  0.00     0.012 C 
BRANCH  45  47
HETATM   47  C2  UNL     1      21.754  27.308  15.356  1.00  0.00     0.002 C 
HETATM   48  C1  UNL     1      20.304  27.712  15.124  1.00  0.00     0.005 C 
ENDBRANCH  45  47
ENDBRANCH   1  45
BRANCH  19  49
HETATM   49  C24 UNL     1      29.315  25.601  16.668  1.00  0.00     0.037 C 
BRANCH  49  50
HETATM   50  C25 UNL     1      29.490  26.211  15.266  1.00  0.00    -0.020 C 
HETATM   51  C26 UNL     1      30.560  25.374  14.565  1.00  0.00     0.009 C 
HETATM   52  C27 UNL     1      30.176  27.565  15.500  1.00  0.00     0.009 C 
ENDBRANCH  49  50
ENDBRANCH  19  49
BRANCH  24  53
HETATM   53  C30 UNL     1      26.103  30.250  17.099  1.00  0.00     0.038 C 
BRANCH  53  54
HETATM   54  C31 UNL     1      25.667  31.271  16.130  1.00  0.00    -0.020 C 
HETATM   55  C32 UNL     1      26.562  31.591  14.988  1.00  0.00     0.009 C 
HETATM   56  C33 UNL     1      25.232  32.564  16.816  1.00  0.00     0.009 C 
ENDBRANCH  53  54
ENDBRANCH  24  53
TORSDOF 14
ENDMDL
MODEL 2
REMARK VINA RESULT: -6.176051213     10.476     14.801
REMARK  14 active torsions:
REMARK  status: ('A' for Active; 'I' for Inactive)
REMARK    1  A    between atoms: C2_2  and  C3_3 
REMARK    2  A    between atoms: C3_3  and  C5_5 
REMARK    3  A    between atoms: C7_10  and  C8_11 
REMARK    4  A    between atoms: C11_16  and  O2_17 
REMARK    5  A    between atoms: C12_19  and  C13_20 
REMARK    6  A    between atoms: C13_20  and  C14_21 
REMARK    7  A    between atoms: C14_21  and  C15_22 
REMARK    8  A    between atoms: C17_29  and  C18_30 
REMARK    9  A    between atoms: C18_30  and  C19_31 
REMARK   10  A    between atoms: C22_36  and  O5_37 
REMARK   11  A    between atoms: C23_39  and  C24_40 
REMARK   12  A    between atoms: C24_40  and  C25_41 
REMARK   13  A    between atoms: C29_48  and  C30_49 
REMARK   14  A    between atoms: C30_49  and  C31_50 
ROOT
HETATM    1  C5  UNL     1      17.399  23.083  16.308  1.00  0.00     0.180 C 
HETATM    2  N1  UNL     1      17.089  22.468  15.030  1.00  0.00    -0.346 N 
ATOM      3  H1  UNL     1      17.846  21.919  14.623  1.00  0.00     0.163 HD
HETATM    4  C6  UNL     1      15.923  22.511  14.272  1.00  0.00     0.241 C 
HETATM    5  O1  UNL     1      15.976  23.055  13.113  1.00  0.00    -0.271 OA
HETATM    6  C7  UNL     1      14.568  21.980  14.656  1.00  0.00     0.179 C 
HETATM    7  N2  UNL     1      14.561  20.579  14.340  1.00  0.00    -0.359 N 
ATOM      8  H2  UNL     1      15.227  20.049  14.901  1.00  0.00     0.162 HD
HETATM    9  C11 UNL     1      13.865  19.784  13.458  1.00  0.00     0.135 C 
HETATM   10  C12 UNL     1      12.559  19.092  13.518  1.00  0.00     0.159 C 
HETATM   11  N4  UNL     1      11.627  19.608  14.463  1.00  0.00    -0.347 N 
ATOM     12  H4  UNL     1      11.249  20.513  14.182  1.00  0.00     0.163 HD
HETATM   13  C16 UNL     1      11.104  19.171  15.684  1.00  0.00     0.241 C 
HETATM   14  O4  UNL     1       9.824  19.321  15.790  1.00  0.00    -0.271 OA
HETATM   15  C17 UNL     1      11.751  18.581  16.862  1.00  0.00     0.175 C 
HETATM   16  N5  UNL     1      11.968  19.659  17.874  1.00  0.00    -0.359 N 
ATOM     17  H5  UNL     1      11.434  20.513  17.709  1.00  0.00     0.162 HD
HETATM   18  C22 UNL     1      12.761  19.690  18.980  1.00  0.00     0.135 C 
HETATM   19  C23 UNL     1      14.228  19.539  19.172  1.00  0.00     0.159 C 
HETATM   20  N6  UNL     1      14.846  20.605  18.363  1.00  0.00    -0.347 N 
ATOM     21  H6  UNL     1      14.941  20.400  17.368  1.00  0.00     0.163 HD
HETATM   22  C28 UNL     1      15.316  21.842  18.760  1.00  0.00     0.241 C 
HETATM   23  O6  UNL     1      14.654  22.929  18.504  1.00  0.00    -0.271 OA
HETATM   24  C29 UNL     1      16.599  22.110  19.510  1.00  0.00     0.177 C 
HETATM   25  N7  UNL     1      17.744  21.987  18.649  1.00  0.00    -0.346 N 
ATOM     26  H7  UNL     1      18.628  21.836  19.135  1.00  0.00     0.163 HD
HETATM   27  C34 UNL     1      17.846  22.041  17.262  1.00  0.00     0.241 C 
HETATM   28  O7  UNL     1      18.419  21.034  16.694  1.00  0.00    -0.271 OA
ENDROOT
BRANCH  10  29
HETATM   29  C13 UNL     1      12.721  17.608  13.491  1.00  0.00     0.042 C 
BRANCH  29  30
HETATM   30  C14 UNL     1      12.276  16.925  12.234  1.00  0.00     0.102 C 
BRANCH  30  31
HETATM   31  C15 UNL     1      13.364  16.037  11.690  1.00  0.00     0.231 C 
HETATM   32  N3  UNL     1      13.151  15.173  10.596  1.00  0.00    -0.062 NA
HETATM   33  O3  UNL     1      14.489  16.072  12.229  1.00  0.00    -0.277 OA
ENDBRANCH  30  31
ENDBRANCH  29  30
ENDBRANCH  10  29
BRANCH   9  34
HETATM   34  O2  UNL     1      14.464  19.578  12.317  1.00  0.00    -0.348 OA
ATOM     35  H2  UNL     1      13.984  19.879  11.555  1.00  0.00     0.219 HD
ENDBRANCH   9  34
BRANCH   6  36
HETATM   36  C8  UNL     1      13.465  22.822  14.145  1.00  0.00     0.009 C 
HETATM   37  C9  UNL     1      12.125  22.675  14.732  1.00  0.00     0.012 C 
HETATM   38  C10 UNL     1      13.346  22.452  12.649  1.00  0.00     0.012 C 
ENDBRANCH   6  36
BRANCH  15  39
HETATM   39  C18 UNL     1      10.990  17.501  17.518  1.00  0.00     0.038 C 
BRANCH  39  40
HETATM   40  C19 UNL     1      11.118  16.089  17.335  1.00  0.00    -0.020 C 
HETATM   41  C20 UNL     1      10.407  15.198  18.289  1.00  0.00     0.009 C 
HETATM   42  C21 UNL     1      10.841  15.582  15.926  1.00  0.00     0.009 C 
ENDBRANCH  39  40
ENDBRANCH  15  39
BRANCH  18  43
HETATM   43  O5  UNL     1      12.150  19.890  20.119  1.00  0.00    -0.348 OA
ATOM     44  H5  UNL     1      12.102  19.143  20.702  1.00  0.00     0.219 HD
ENDBRANCH  18  43
BRANCH   1  45
HETATM   45  C3  UNL     1      18.536  24.090  16.064  1.00  0.00     0.013 C 
HETATM   46  C4  UNL     1      18.498  25.078  17.187  1.00  0.00     0.012 C 
BRANCH  45  47
HETATM   47  C2  UNL     1      18.440  24.732  14.724  1.00  0.00     0.002 C 
HETATM   48  C1  UNL     1      19.855  25.112  14.305  1.00  0.00     0.005 C 
ENDBRANCH  45  47
ENDBRANCH   1  45
BRANCH  19  49
HETATM   49  C24 UNL     1      14.777  18.195  18.797  1.00  0.00     0.037 C 
BRANCH  49  50
HETATM   50  C25 UNL     1      14.839  17.310  20.055  1.00  0.00    -0.020 C 
HETATM   51  C26 UNL     1      13.390  17.017  20.445  1.00  0.00     0.009 C 
HETATM   52  C27 UNL     1      15.341  18.236  21.172  1.00  0.00     0.009 C 
ENDBRANCH  49  50
ENDBRANCH  19  49
BRANCH  24  53
HETATM   53  C30 UNL     1      16.512  23.395  20.234  1.00  0.00     0.038 C 
BRANCH  53  54
HETATM   54  C31 UNL     1      17.741  24.122  20.598  1.00  0.00    -0.020 C 
HETATM   55  C32 UNL     1      19.021  23.370  20.642  1.00  0.00     0.009 C 
HETATM   56  C33 UNL     1      17.574  24.921  21.888  1.00  0.00     0.009 C 
ENDBRANCH  53  54
ENDBRANCH  24  53
TORSDOF 14
ENDMDL
MODEL 3
REMARK VINA RESULT: -5.943680550     13.523     18.009
REMARK  14 active torsions:
REMARK  status: ('A' for Active; 'I' for Inactive)
REMARK    1  A    between atoms: C2_2  and  C3_3 
REMARK    2  A    between atoms: C3_3  and  C5_5 
REMARK    3  A    between atoms: C7_10  and  C8_11 
REMARK    4  A    between atoms: C11_16  and  O2_17 
REMARK    5  A    between atoms: C12_19  and  C13_20 
REMARK    6  A    between atoms: C13_20  and  C14_21 
REMARK    7  A    between atoms: C14_21  and  C15_22 
REMARK    8  A    between atoms: C17_29  and  C18_30 
REMARK    9  A    between atoms: C18_30  and  C19_31 
REMARK   10  A    between atoms: C22_36  and  O5_37 
REMARK   11  A    between atoms: C23_39  and  C24_40 
REMARK   12  A    between atoms: C24_40  and  C25_41 
REMARK   13  A    between atoms: C29_48  and  C30_49 
REMARK   14  A    between atoms: C30_49  and  C31_50 
ROOT
HETATM    1  C5  UNL     1      14.638  19.719  18.409  1.00  0.00     0.180 C 
HETATM    2  N1  UNL     1      14.980  19.823  17.002  1.00  0.00    -0.346 N 
ATOM      3  H1  UNL     1      15.864  19.386  16.742  1.00  0.00     0.163 HD
HETATM    4  C6  UNL     1      14.292  20.424  15.952  1.00  0.00     0.241 C 
HETATM    5  O1  UNL     1      14.846  21.414  15.357  1.00  0.00    -0.271 OA
HETATM    6  C7  UNL     1      12.939  20.044  15.415  1.00  0.00     0.179 C 
HETATM    7  N2  UNL     1      13.144  18.969  14.485  1.00  0.00    -0.359 N 
ATOM      8  H2  UNL     1      13.502  18.127  14.934  1.00  0.00     0.162 HD
HETATM    9  C11 UNL     1      12.970  18.808  13.129  1.00  0.00     0.135 C 
HETATM   10  C12 UNL     1      11.816  18.426  12.285  1.00  0.00     0.159 C 
HETATM   11  N4  UNL     1      10.531  18.622  12.866  1.00  0.00    -0.347 N 
ATOM     12  H4  UNL     1      10.282  19.609  12.935  1.00  0.00     0.163 HD
HETATM   13  C16 UNL     1       9.527  17.785  13.364  1.00  0.00     0.241 C 
HETATM   14  O4  UNL     1       8.336  18.110  12.979  1.00  0.00    -0.271 OA
HETATM   15  C17 UNL     1       9.587  16.615  14.247  1.00  0.00     0.175 C 
HETATM   16  N5  UNL     1       9.264  17.053  15.639  1.00  0.00    -0.359 N 
ATOM     17  H5  UNL     1       8.826  17.972  15.705  1.00  0.00     0.162 HD
HETATM   18  C22 UNL     1       9.457  16.428  16.832  1.00  0.00     0.135 C 
HETATM   19  C23 UNL     1      10.676  15.932  17.524  1.00  0.00     0.159 C 
HETATM   20  N6  UNL     1      11.547  17.111  17.689  1.00  0.00    -0.347 N 
ATOM     21  H6  UNL     1      12.097  17.367  16.869  1.00  0.00     0.163 HD
HETATM   22  C28 UNL     1      11.722  17.919  18.795  1.00  0.00     0.241 C 
HETATM   23  O6  UNL     1      11.202  19.106  18.853  1.00  0.00    -0.271 OA
HETATM   24  C29 UNL     1      12.503  17.569  20.040  1.00  0.00     0.177 C 
HETATM   25  N7  UNL     1      13.920  17.637  19.805  1.00  0.00    -0.346 N 
ATOM     26  H7  UNL     1      14.487  17.118  20.475  1.00  0.00     0.163 HD
HETATM   27  C34 UNL     1      14.645  18.294  18.816  1.00  0.00     0.241 C 
HETATM   28  O7  UNL     1      15.462  17.567  18.131  1.00  0.00    -0.271 OA
ENDROOT
BRANCH  10  29
HETATM   29  C13 UNL     1      12.043  17.115  11.606  1.00  0.00     0.042 C 
BRANCH  29  30
HETATM   30  C14 UNL     1      12.832  16.105  12.383  1.00  0.00     0.102 C 
BRANCH  30  31
HETATM   31  C15 UNL     1      13.985  15.581  11.567  1.00  0.00     0.231 C 
HETATM   32  N3  UNL     1      13.821  15.134  10.239  1.00  0.00    -0.062 NA
HETATM   33  O3  UNL     1      15.118  15.544  12.088  1.00  0.00    -0.277 OA
ENDBRANCH  30  31
ENDBRANCH  29  30
ENDBRANCH  10  29
BRANCH   9  34
HETATM   34  O2  UNL     1      14.034  19.034  12.410  1.00  0.00    -0.348 OA
ATOM     35  H2  UNL     1      13.867  19.423  11.560  1.00  0.00     0.219 HD
ENDBRANCH   9  34
BRANCH   6  36
HETATM   36  C8  UNL     1      12.155  21.217  14.971  1.00  0.00     0.009 C 
HETATM   37  C9  UNL     1      12.525  22.551  15.468  1.00  0.00     0.012 C 
HETATM   38  C10 UNL     1      10.715  20.936  15.456  1.00  0.00     0.012 C 
ENDBRANCH   6  36
BRANCH  15  39
HETATM   39  C18 UNL     1       8.662  15.520  13.898  1.00  0.00     0.038 C 
BRANCH  39  40
HETATM   40  C19 UNL     1       8.791  14.549  12.858  1.00  0.00    -0.020 C 
HETATM   41  C20 UNL     1       8.331  14.925  11.494  1.00  0.00     0.009 C 
HETATM   42  C21 UNL     1      10.164  13.904  12.728  1.00  0.00     0.009 C 
ENDBRANCH  39  40
ENDBRANCH  15  39
BRANCH  18  43
HETATM   43  O5  UNL     1       8.382  16.201  17.542  1.00  0.00    -0.348 OA
ATOM     44  H5  UNL     1       8.504  16.167  18.483  1.00  0.00     0.219 HD
ENDBRANCH  18  43
BRANCH   1  45
HETATM   45  C3  UNL     1      15.711  20.492  19.195  1.00  0.00     0.013 C 
HETATM   46  C4  UNL     1      15.075  21.756  19.683  1.00  0.00     0.012 C 
BRANCH  45  47
HETATM   47  C2  UNL     1      16.936  20.735  18.384  1.00  0.00     0.002 C 
HETATM   48  C1  UNL     1      17.788  21.741  19.147  1.00  0.00     0.005 C 
ENDBRANCH  45  47
ENDBRANCH   1  45
BRANCH  19  49
HETATM   49  C24 UNL     1      11.399  14.828  16.811  1.00  0.00     0.037 C 
BRANCH  49  50
HETATM   50  C25 UNL     1      10.401  13.702  16.488  1.00  0.00    -0.020 C 
HETATM   51  C26 UNL     1       9.981  13.103  17.831  1.00  0.00     0.009 C 
HETATM   52  C27 UNL     1      11.242  12.595  15.837  1.00  0.00     0.009 C 
ENDBRANCH  49  50
ENDBRANCH  19  49
BRANCH  24  53
HETATM   53  C30 UNL     1      12.032  18.376  21.185  1.00  0.00     0.038 C 
BRANCH  53  54
HETATM   54  C31 UNL     1      12.877  18.521  22.383  1.00  0.00    -0.020 C 
HETATM   55  C32 UNL     1      14.090  19.374  22.294  1.00  0.00     0.009 C 
HETATM   56  C33 UNL     1      13.248  17.169  22.990  1.00  0.00     0.009 C 
ENDBRANCH  53  54
ENDBRANCH  24  53
TORSDOF 14
ENDMDL
MODEL 4
REMARK VINA RESULT: -5.894397541      2.321      7.609
REMARK  14 active torsions:
REMARK  status: ('A' for Active; 'I' for Inactive)
REMARK    1  A    between atoms: C2_2  and  C3_3 
REMARK    2  A    between atoms: C3_3  and  C5_5 
REMARK    3  A    between atoms: C7_10  and  C8_11 
REMARK    4  A    between atoms: C11_16  and  O2_17 
REMARK    5  A    between atoms: C12_19  and  C13_20 
REMARK    6  A    between atoms: C13_20  and  C14_21 
REMARK    7  A    between atoms: C14_21  and  C15_22 
REMARK    8  A    between atoms: C17_29  and  C18_30 
REMARK    9  A    between atoms: C18_30  and  C19_31 
REMARK   10  A    between atoms: C22_36  and  O5_37 
REMARK   11  A    between atoms: C23_39  and  C24_40 
REMARK   12  A    between atoms: C24_40  and  C25_41 
REMARK   13  A    between atoms: C29_48  and  C30_49 
REMARK   14  A    between atoms: C30_49  and  C31_50 
ROOT
HETATM    1  C5  UNL     1      29.400  27.284  15.497  1.00  0.00     0.180 C 
HETATM    2  N1  UNL     1      28.115  27.593  14.898  1.00  0.00    -0.346 N 
ATOM      3  H1  UNL     1      27.930  27.124  14.012  1.00  0.00     0.163 HD
HETATM    4  C6  UNL     1      27.094  28.429  15.342  1.00  0.00     0.241 C 
HETATM    5  O1  UNL     1      26.794  29.447  14.625  1.00  0.00    -0.271 OA
HETATM    6  C7  UNL     1      26.276  28.278  16.596  1.00  0.00     0.179 C 
HETATM    7  N2  UNL     1      25.211  27.363  16.295  1.00  0.00    -0.359 N 
ATOM      8  H2  UNL     1      25.550  26.426  16.080  1.00  0.00     0.162 HD
HETATM    9  C11 UNL     1      23.840  27.454  16.228  1.00  0.00     0.135 C 
HETATM   10  C12 UNL     1      22.758  27.334  17.231  1.00  0.00     0.159 C 
HETATM   11  N4  UNL     1      23.140  27.552  18.585  1.00  0.00    -0.347 N 
ATOM     12  H4  UNL     1      23.349  28.532  18.778  1.00  0.00     0.163 HD
HETATM   13  C16 UNL     1      23.299  26.743  19.715  1.00  0.00     0.241 C 
HETATM   14  O4  UNL     1      22.786  27.243  20.792  1.00  0.00    -0.271 OA
HETATM   15  C17 UNL     1      23.948  25.439  19.893  1.00  0.00     0.175 C 
HETATM   16  N5  UNL     1      25.322  25.663  20.436  1.00  0.00    -0.359 N 
ATOM     17  H5  UNL     1      25.483  26.595  20.819  1.00  0.00     0.162 HD
HETATM   18  C22 UNL     1      26.394  24.827  20.505  1.00  0.00     0.135 C 
HETATM   19  C23 UNL     1      27.177  24.105  19.467  1.00  0.00     0.159 C 
HETATM   20  N6  UNL     1      27.701  25.149  18.567  1.00  0.00    -0.347 N 
ATOM     21  H6  UNL     1      27.047  25.486  17.861  1.00  0.00     0.163 HD
HETATM   22  C28 UNL     1      28.951  25.734  18.545  1.00  0.00     0.241 C 
HETATM   23  O6  UNL     1      29.139  26.939  18.988  1.00  0.00    -0.271 OA
HETATM   24  C29 UNL     1      30.223  25.103  18.029  1.00  0.00     0.177 C 
HETATM   25  N7  UNL     1      30.246  25.073  16.591  1.00  0.00    -0.346 N 
ATOM     26  H7  UNL     1      30.893  24.395  16.190  1.00  0.00     0.163 HD
HETATM   27  C34 UNL     1      29.532  25.817  15.656  1.00  0.00     0.241 C 
HETATM   28  O7  UNL     1      28.871  25.142  14.777  1.00  0.00    -0.271 OA
ENDROOT
BRANCH  10  29
HETATM   29  C13 UNL     1      21.896  26.143  16.970  1.00  0.00     0.042 C 
BRANCH  29  30
HETATM   30  C14 UNL     1      20.425  26.411  16.863  1.00  0.00     0.102 C 
BRANCH  30  31
HETATM   31  C15 UNL     1      20.083  27.004  15.521  1.00  0.00     0.231 C 
HETATM   32  N3  UNL     1      19.535  26.230  14.478  1.00  0.00    -0.062 NA
HETATM   33  O3  UNL     1      20.294  28.220  15.334  1.00  0.00    -0.277 OA
ENDBRANCH  30  31
ENDBRANCH  29  30
ENDBRANCH  10  29
BRANCH   9  34
HETATM   34  O2  UNL     1      23.364  27.695  15.038  1.00  0.00    -0.348 OA
ATOM     35  H2  UNL     1      22.416  27.722  14.985  1.00  0.00     0.219 HD
ENDBRANCH   9  34
BRANCH   6  36
HETATM   36  C8  UNL     1      25.932  29.580  17.208  1.00  0.00     0.009 C 
HETATM   37  C9  UNL     1      25.569  30.705  16.333  1.00  0.00     0.012 C 
HETATM   38  C10 UNL     1      27.203  30.000  17.982  1.00  0.00     0.012 C 
ENDBRANCH   6  36
BRANCH  15  39
HETATM   39  C18 UNL     1      23.251  24.515  20.808  1.00  0.00     0.038 C 
BRANCH  39  40
HETATM   40  C19 UNL     1      21.965  23.914  20.651  1.00  0.00    -0.020 C 
HETATM   41  C20 UNL     1      21.866  22.437  20.792  1.00  0.00     0.009 C 
HETATM   42  C21 UNL     1      20.843  24.537  21.471  1.00  0.00     0.009 C 
ENDBRANCH  39  40
ENDBRANCH  15  39
BRANCH  18  43
HETATM   43  O5  UNL     1      26.859  24.587  21.704  1.00  0.00    -0.348 OA
ATOM     44  H5  UNL     1      27.593  23.986  21.753  1.00  0.00     0.219 HD
ENDBRANCH  18  43
BRANCH   1  45
HETATM   45  C3  UNL     1      30.485  27.804  14.537  1.00  0.00     0.013 C 
HETATM   46  C4  UNL     1      31.372  28.715  15.327  1.00  0.00     0.012 C 
BRANCH  45  47
HETATM   47  C2  UNL     1      29.903  28.461  13.334  1.00  0.00     0.002 C 
HETATM   48  C1  UNL     1      30.918  28.316  12.208  1.00  0.00     0.005 C 
ENDBRANCH  45  47
ENDBRANCH   1  45
BRANCH  19  49
HETATM   49  C24 UNL     1      26.403  23.074  18.700  1.00  0.00     0.037 C 
BRANCH  49  50
HETATM   50  C25 UNL     1      26.268  21.806  19.560  1.00  0.00    -0.020 C 
HETATM   51  C26 UNL     1      27.692  21.346  19.874  1.00  0.00     0.009 C 
HETATM   52  C27 UNL     1      25.736  20.728  18.605  1.00  0.00     0.009 C 
ENDBRANCH  49  50
ENDBRANCH  19  49
BRANCH  24  53
HETATM   53  C30 UNL     1      31.401  25.744  18.647  1.00  0.00     0.038 C 
BRANCH  53  54
HETATM   54  C31 UNL     1      32.085  25.094  19.779  1.00  0.00    -0.020 C 
HETATM   55  C32 UNL     1      31.680  23.715  20.154  1.00  0.00     0.009 C 
HETATM   56  C33 UNL     1      32.099  25.978  21.025  1.00  0.00     0.009 C 
ENDBRANCH  53  54
ENDBRANCH  24  53
TORSDOF 14
ENDMDL
MODEL 5
REMARK VINA RESULT: -5.735623935     11.243     15.416
REMARK  14 active torsions:
REMARK  status: ('A' for Active; 'I' for Inactive)
REMARK    1  A    between atoms: C2_2  and  C3_3 
REMARK    2  A    between atoms: C3_3  and  C5_5 
REMARK    3  A    between atoms: C7_10  and  C8_11 
REMARK    4  A    between atoms: C11_16  and  O2_17 
REMARK    5  A    between atoms: C12_19  and  C13_20 
REMARK    6  A    between atoms: C13_20  and  C14_21 
REMARK    7  A    between atoms: C14_21  and  C15_22 
REMARK    8  A    between atoms: C17_29  and  C18_30 
REMARK    9  A    between atoms: C18_30  and  C19_31 
REMARK   10  A    between atoms: C22_36  and  O5_37 
REMARK   11  A    between atoms: C23_39  and  C24_40 
REMARK   12  A    between atoms: C24_40  and  C25_41 
REMARK   13  A    between atoms: C29_48  and  C30_49 
REMARK   14  A    between atoms: C30_49  and  C31_50 
ROOT
HETATM    1  C5  UNL     1      16.724  22.339  16.295  1.00  0.00     0.180 C 
HETATM    2  N1  UNL     1      16.468  21.637  15.050  1.00  0.00    -0.346 N 
ATOM      3  H1  UNL     1      17.249  21.082  14.701  1.00  0.00     0.163 HD
HETATM    4  C6  UNL     1      15.323  21.600  14.259  1.00  0.00     0.241 C 
HETATM    5  O1  UNL     1      15.398  22.071  13.070  1.00  0.00    -0.271 OA
HETATM    6  C7  UNL     1      13.971  21.060  14.638  1.00  0.00     0.179 C 
HETATM    7  N2  UNL     1      14.008  19.642  14.413  1.00  0.00    -0.359 N 
ATOM      8  H2  UNL     1      14.670  19.166  15.025  1.00  0.00     0.162 HD
HETATM    9  C11 UNL     1      13.358  18.775  13.565  1.00  0.00     0.135 C 
HETATM   10  C12 UNL     1      12.067  18.054  13.632  1.00  0.00     0.159 C 
HETATM   11  N4  UNL     1      11.095  18.604  14.515  1.00  0.00    -0.347 N 
ATOM     12  H4  UNL     1      10.704  19.479  14.166  1.00  0.00     0.163 HD
HETATM   13  C16 UNL     1      10.548  18.232  15.747  1.00  0.00     0.241 C 
HETATM   14  O4  UNL     1       9.262  18.355  15.807  1.00  0.00    -0.271 OA
HETATM   15  C17 UNL     1      11.174  17.735  16.978  1.00  0.00     0.175 C 
HETATM   16  N5  UNL     1      11.334  18.881  17.924  1.00  0.00    -0.359 N 
ATOM     17  H5  UNL     1      10.785  19.708  17.690  1.00  0.00     0.162 HD
HETATM   18  C22 UNL     1      12.093  19.002  19.048  1.00  0.00     0.135 C 
HETATM   19  C23 UNL     1      13.557  18.903  19.291  1.00  0.00     0.159 C 
HETATM   20  N6  UNL     1      14.173  19.931  18.432  1.00  0.00    -0.347 N 
ATOM     21  H6  UNL     1      14.302  19.666  17.455  1.00  0.00     0.163 HD
HETATM   22  C28 UNL     1      14.601  21.202  18.762  1.00  0.00     0.241 C 
HETATM   23  O6  UNL     1      13.921  22.253  18.418  1.00  0.00    -0.271 OA
HETATM   24  C29 UNL     1      15.854  21.550  19.529  1.00  0.00     0.177 C 
HETATM   25  N7  UNL     1      17.026  21.403  18.710  1.00  0.00    -0.346 N 
ATOM     26  H7  UNL     1      17.899  21.306  19.229  1.00  0.00     0.163 HD
HETATM   27  C34 UNL     1      17.168  21.372  17.326  1.00  0.00     0.241 C 
HETATM   28  O7  UNL     1      17.782  20.346  16.840  1.00  0.00    -0.271 OA
ENDROOT
BRANCH  10  29
HETATM   29  C13 UNL     1      12.267  16.576  13.704  1.00  0.00     0.042 C 
BRANCH  29  30
HETATM   30  C14 UNL     1      11.819  15.796  12.506  1.00  0.00     0.102 C 
BRANCH  30  31
HETATM   31  C15 UNL     1      12.987  15.460  11.616  1.00  0.00     0.231 C 
HETATM   32  N3  UNL     1      12.815  14.993  10.297  1.00  0.00    -0.062 NA
HETATM   33  O3  UNL     1      14.142  15.603  12.068  1.00  0.00    -0.277 OA
ENDBRANCH  30  31
ENDBRANCH  29  30
ENDBRANCH  10  29
BRANCH   9  34
HETATM   34  O2  UNL     1      13.995  18.513  12.457  1.00  0.00    -0.348 OA
ATOM     35  H2  UNL     1      14.145  19.264  11.895  1.00  0.00     0.219 HD
ENDBRANCH   9  34
BRANCH   6  36
HETATM   36  C8  UNL     1      12.863  21.838  14.043  1.00  0.00     0.009 C 
HETATM   37  C9  UNL     1      12.999  23.298  13.927  1.00  0.00     0.012 C 
HETATM   38  C10 UNL     1      11.652  21.568  14.964  1.00  0.00     0.012 C 
ENDBRANCH   6  36
BRANCH  15  39
HETATM   39  C18 UNL     1      10.420  16.679  17.680  1.00  0.00     0.038 C 
BRANCH  39  40
HETATM   40  C19 UNL     1      10.618  15.265  17.627  1.00  0.00    -0.020 C 
HETATM   41  C20 UNL     1       9.769  14.412  18.501  1.00  0.00     0.009 C 
HETATM   42  C21 UNL     1      10.616  14.653  16.233  1.00  0.00     0.009 C 
ENDBRANCH  39  40
ENDBRANCH  15  39
BRANCH  18  43
HETATM   43  O5  UNL     1      11.444  19.258  20.154  1.00  0.00    -0.348 OA
ATOM     44  H5  UNL     1      11.685  18.735  20.909  1.00  0.00     0.219 HD
ENDBRANCH  18  43
BRANCH   1  45
HETATM   45  C3  UNL     1      17.843  23.358  16.018  1.00  0.00     0.013 C 
HETATM   46  C4  UNL     1      18.746  23.356  17.213  1.00  0.00     0.012 C 
BRANCH  45  47
HETATM   47  C2  UNL     1      17.306  24.710  15.699  1.00  0.00     0.002 C 
HETATM   48  C1  UNL     1      17.480  24.919  14.200  1.00  0.00     0.005 C 
ENDBRANCH  45  47
ENDBRANCH   1  45
BRANCH  19  49
HETATM   49  C24 UNL     1      14.149  17.552  19.018  1.00  0.00     0.037 C 
BRANCH  49  50
HETATM   50  C25 UNL     1      14.740  16.991  20.323  1.00  0.00    -0.020 C 
HETATM   51  C26 UNL     1      13.621  17.056  21.364  1.00  0.00     0.009 C 
HETATM   52  C27 UNL     1      15.745  18.051  20.797  1.00  0.00     0.009 C 
ENDBRANCH  49  50
ENDBRANCH  19  49
BRANCH  24  53
HETATM   53  C30 UNL     1      15.714  22.876  20.166  1.00  0.00     0.038 C 
BRANCH  53  54
HETATM   54  C31 UNL     1      16.704  23.933  19.895  1.00  0.00    -0.020 C 
HETATM   55  C32 UNL     1      17.390  24.573  21.047  1.00  0.00     0.009 C 
HETATM   56  C33 UNL     1      16.150  25.013  18.968  1.00  0.00     0.009 C 
ENDBRANCH  53  54
ENDBRANCH  24  53
TORSDOF 14
ENDMDL
