MODEL 1
REMARK VINA RESULT: -5.821503559      0.000      0.000
REMARK  6 active torsions:
REMARK  status: ('A' for Active; 'I' for Inactive)
REMARK    1  A    between atoms: O1_2  and  C2_3 
REMARK    2  A    between atoms: C2_3  and  C3_4 
REMARK    3  A    between atoms: C3_4  and  N1_6 
REMARK    4  A    between atoms: N1_6  and  C5_8 
REMARK    5  A    between atoms: C5_8  and  C7_10 
REMARK    6  A    between atoms: C7_10  and  C8_11 
ROOT
HETATM    1  N1  UNL     1      15.357  -9.605  -1.306  1.00  0.00    -0.412 N 
ATOM      2  H1  UNL     1      15.236 -10.215  -2.116  1.00  0.00     0.154 HD
ENDROOT
BRANCH   1   3
HETATM    3  C3  UNL     1      14.496  -8.533  -1.175  1.00  0.00     0.096 C 
HETATM    4  C4  UNL     1      13.153  -9.042  -0.603  1.00  0.00     0.034 C 
BRANCH   3   5
HETATM    5  C2  UNL     1      14.127  -7.739  -2.391  1.00  0.00     0.191 C 
BRANCH   5   6
HETATM    6  O1  UNL     1      12.966  -6.958  -2.127  1.00  0.00    -0.394 OA
HETATM    7  C1  UNL     1      12.753  -6.065  -3.180  1.00  0.00     0.201 C 
ENDBRANCH   5   6
ENDBRANCH   3   5
ENDBRANCH   1   3
BRANCH   1   8
HETATM    8  C5  UNL     1      16.395  -9.919  -0.394  1.00  0.00     0.073 C 
HETATM    9  C6  UNL     1      16.810  -8.755   0.379  1.00  0.00     0.032 C 
BRANCH   8  10
HETATM   10  C7  UNL     1      16.031 -11.171   0.299  1.00  0.00     0.029 C 
BRANCH  10  11
HETATM   11  C8  UNL     1      15.700 -11.300   1.677  1.00  0.00    -0.013 C 
HETATM   12  C9  UNL     1      15.249 -12.622   2.267  1.00  0.00     0.005 C 
HETATM   13  C10 UNL     1      14.864 -11.734   3.476  1.00  0.00     0.001 C 
HETATM   14  C11 UNL     1      14.517 -10.720   2.355  1.00  0.00     0.005 C 
ENDBRANCH  10  11
ENDBRANCH   8  10
ENDBRANCH   1   8
TORSDOF 6
ENDMDL
MODEL 2
REMARK VINA RESULT: -5.638443951      5.535      7.668
REMARK  6 active torsions:
REMARK  status: ('A' for Active; 'I' for Inactive)
REMARK    1  A    between atoms: O1_2  and  C2_3 
REMARK    2  A    between atoms: C2_3  and  C3_4 
REMARK    3  A    between atoms: C3_4  and  N1_6 
REMARK    4  A    between atoms: N1_6  and  C5_8 
REMARK    5  A    between atoms: C5_8  and  C7_10 
REMARK    6  A    between atoms: C7_10  and  C8_11 
ROOT
HETATM    1  N1  UNL     1      15.192  -3.957  -2.429  1.00  0.00    -0.412 N 
ATOM      2  H1  UNL     1      14.473  -3.252  -2.590  1.00  0.00     0.154 HD
ENDROOT
BRANCH   1   3
HETATM    3  C3  UNL     1      15.094  -5.146  -3.125  1.00  0.00     0.096 C 
HETATM    4  C4  UNL     1      15.259  -4.851  -4.634  1.00  0.00     0.034 C 
BRANCH   3   5
HETATM    5  C2  UNL     1      13.837  -5.953  -3.020  1.00  0.00     0.191 C 
BRANCH   5   6
HETATM    6  O1  UNL     1      13.098  -5.863  -4.234  1.00  0.00    -0.394 OA
HETATM    7  C1  UNL     1      11.731  -5.921  -3.956  1.00  0.00     0.201 C 
ENDBRANCH   5   6
ENDBRANCH   3   5
ENDBRANCH   1   3
BRANCH   1   8
HETATM    8  C5  UNL     1      16.223  -3.649  -1.506  1.00  0.00     0.073 C 
HETATM    9  C6  UNL     1      16.798  -4.849  -0.911  1.00  0.00     0.032 C 
BRANCH   8  10
HETATM   10  C7  UNL     1      17.105  -2.640  -2.127  1.00  0.00     0.029 C 
BRANCH  10  11
HETATM   11  C8  UNL     1      18.033  -2.874  -3.181  1.00  0.00    -0.013 C 
HETATM   12  C9  UNL     1      19.449  -3.341  -2.905  1.00  0.00     0.005 C 
HETATM   13  C10 UNL     1      19.656  -2.979  -4.397  1.00  0.00     0.001 C 
HETATM   14  C11 UNL     1      18.658  -1.845  -4.045  1.00  0.00     0.005 C 
ENDBRANCH  10  11
ENDBRANCH   8  10
ENDBRANCH   1   8
TORSDOF 6
ENDMDL
MODEL 3
REMARK VINA RESULT: -5.601127977      4.919      7.652
REMARK  6 active torsions:
REMARK  status: ('A' for Active; 'I' for Inactive)
REMARK    1  A    between atoms: O1_2  and  C2_3 
REMARK    2  A    between atoms: C2_3  and  C3_4 
REMARK    3  A    between atoms: C3_4  and  N1_6 
REMARK    4  A    between atoms: N1_6  and  C5_8 
REMARK    5  A    between atoms: C5_8  and  C7_10 
REMARK    6  A    between atoms: C7_10  and  C8_11 
ROOT
HETATM    1  N1  UNL     1      15.132  -3.914  -2.347  1.00  0.00    -0.412 N 
ATOM      2  H1  UNL     1      14.469  -3.153  -2.498  1.00  0.00     0.154 HD
ENDROOT
BRANCH   1   3
HETATM    3  C3  UNL     1      14.912  -5.100  -3.020  1.00  0.00     0.096 C 
HETATM    4  C4  UNL     1      15.240  -4.889  -4.516  1.00  0.00     0.034 C 
BRANCH   3   5
HETATM    5  C2  UNL     1      13.543  -5.708  -3.003  1.00  0.00     0.191 C 
BRANCH   5   6
HETATM    6  O1  UNL     1      13.602  -7.052  -3.469  1.00  0.00    -0.394 OA
HETATM    7  C1  UNL     1      14.159  -7.867  -2.481  1.00  0.00     0.201 C 
ENDBRANCH   5   6
ENDBRANCH   3   5
ENDBRANCH   1   3
BRANCH   1   8
HETATM    8  C5  UNL     1      16.214  -3.681  -1.462  1.00  0.00     0.073 C 
HETATM    9  C6  UNL     1      16.784  -4.925  -0.960  1.00  0.00     0.032 C 
BRANCH   8  10
HETATM   10  C7  UNL     1      17.092  -2.663  -2.074  1.00  0.00     0.029 C 
BRANCH  10  11
HETATM   11  C8  UNL     1      18.005  -2.878  -3.144  1.00  0.00    -0.013 C 
HETATM   12  C9  UNL     1      19.426  -3.348  -2.896  1.00  0.00     0.005 C 
HETATM   13  C10 UNL     1      19.611  -2.962  -4.385  1.00  0.00     0.001 C 
HETATM   14  C11 UNL     1      18.617  -1.835  -4.000  1.00  0.00     0.005 C 
ENDBRANCH  10  11
ENDBRANCH   8  10
ENDBRANCH   1   8
TORSDOF 6
ENDMDL
MODEL 4
REMARK VINA RESULT: -5.506125555      1.193      1.360
REMARK  6 active torsions:
REMARK  status: ('A' for Active; 'I' for Inactive)
REMARK    1  A    between atoms: O1_2  and  C2_3 
REMARK    2  A    between atoms: C2_3  and  C3_4 
REMARK    3  A    between atoms: C3_4  and  N1_6 
REMARK    4  A    between atoms: N1_6  and  C5_8 
REMARK    5  A    between atoms: C5_8  and  C7_10 
REMARK    6  A    between atoms: C7_10  and  C8_11 
ROOT
HETATM    1  N1  UNL     1      14.306  -8.196  -0.318  1.00  0.00    -0.412 N 
ATOM      2  H1  UNL     1      14.213  -7.429   0.349  1.00  0.00     0.154 HD
ENDROOT
BRANCH   1   3
HETATM    3  C3  UNL     1      13.652  -8.078  -1.529  1.00  0.00     0.096 C 
HETATM    4  C4  UNL     1      14.046  -9.275  -2.424  1.00  0.00     0.034 C 
BRANCH   3   5
HETATM    5  C2  UNL     1      13.890  -6.864  -2.373  1.00  0.00     0.191 C 
BRANCH   5   6
HETATM    6  O1  UNL     1      13.323  -7.052  -3.666  1.00  0.00    -0.394 OA
HETATM    7  C1  UNL     1      12.400  -6.036  -3.925  1.00  0.00     0.201 C 
ENDBRANCH   5   6
ENDBRANCH   3   5
ENDBRANCH   1   3
BRANCH   1   8
HETATM    8  C5  UNL     1      15.098  -9.308   0.062  1.00  0.00     0.073 C 
HETATM    9  C6  UNL     1      16.501  -8.947   0.227  1.00  0.00     0.032 C 
BRANCH   8  10
HETATM   10  C7  UNL     1      14.390 -10.024   1.142  1.00  0.00     0.029 C 
BRANCH  10  11
HETATM   11  C8  UNL     1      14.991 -10.846   2.137  1.00  0.00    -0.013 C 
HETATM   12  C9  UNL     1      15.445 -12.260   1.834  1.00  0.00     0.005 C 
HETATM   13  C10 UNL     1      15.564 -12.350   3.375  1.00  0.00     0.001 C 
HETATM   14  C11 UNL     1      14.314 -11.434   3.317  1.00  0.00     0.005 C 
ENDBRANCH  10  11
ENDBRANCH   8  10
ENDBRANCH   1   8
TORSDOF 6
ENDMDL
MODEL 5
REMARK VINA RESULT: -5.488887446      5.824      8.362
REMARK  6 active torsions:
REMARK  status: ('A' for Active; 'I' for Inactive)
REMARK    1  A    between atoms: O1_2  and  C2_3 
REMARK    2  A    between atoms: C2_3  and  C3_4 
REMARK    3  A    between atoms: C3_4  and  N1_6 
REMARK    4  A    between atoms: N1_6  and  C5_8 
REMARK    5  A    between atoms: C5_8  and  C7_10 
REMARK    6  A    between atoms: C7_10  and  C8_11 
ROOT
HETATM    1  N1  UNL     1      16.603  -3.635  -3.282  1.00  0.00    -0.412 N 
ATOM      2  H1  UNL     1      17.068  -4.355  -3.835  1.00  0.00     0.154 HD
ENDROOT
BRANCH   1   3
HETATM    3  C3  UNL     1      15.726  -4.047  -2.297  1.00  0.00     0.096 C 
HETATM    4  C4  UNL     1      16.533  -4.729  -1.169  1.00  0.00     0.034 C 
BRANCH   3   5
HETATM    5  C2  UNL     1      14.641  -5.020  -2.645  1.00  0.00     0.191 C 
BRANCH   5   6
HETATM    6  O1  UNL     1      14.490  -5.094  -4.058  1.00  0.00    -0.394 OA
HETATM    7  C1  UNL     1      13.392  -5.899  -4.370  1.00  0.00     0.201 C 
ENDBRANCH   5   6
ENDBRANCH   3   5
ENDBRANCH   1   3
BRANCH   1   8
HETATM    8  C5  UNL     1      16.901  -2.282  -3.577  1.00  0.00     0.073 C 
HETATM    9  C6  UNL     1      15.723  -1.430  -3.477  1.00  0.00     0.032 C 
BRANCH   8  10
HETATM   10  C7  UNL     1      18.136  -1.918  -2.853  1.00  0.00     0.029 C 
BRANCH  10  11
HETATM   11  C8  UNL     1      19.456  -2.334  -3.186  1.00  0.00    -0.013 C 
HETATM   12  C9  UNL     1      19.828  -2.750  -4.597  1.00  0.00     0.005 C 
HETATM   13  C10 UNL     1      21.112  -3.266  -3.902  1.00  0.00     0.001 C 
HETATM   14  C11 UNL     1      20.114  -3.592  -2.761  1.00  0.00     0.005 C 
ENDBRANCH  10  11
ENDBRANCH   8  10
ENDBRANCH   1   8
TORSDOF 6
ENDMDL
