MODEL 1
REMARK VINA RESULT: -5.695247923      0.000      0.000
REMARK  7 active torsions:
REMARK  status: ('A' for Active; 'I' for Inactive)
REMARK    1  A    between atoms: C3_3  and  C4_4 
REMARK    2  A    between atoms: C4_4  and  C5_5 
REMARK    3  A    between atoms: C5_5  and  O1_6 
REMARK    4  A    between atoms: O1_6  and  C6_7 
REMARK    5  A    between atoms: C6_7  and  C7_8 
REMARK    6  A    between atoms: C7_8  and  N1_9 
REMARK    7  A    between atoms: N1_9  and  C8_12 
ROOT
HETATM    1  C6  UNL     1      15.061  -8.075  -0.919  1.00  0.00     0.195 C 
ENDROOT
BRANCH   1   2
HETATM    2  O1  UNL     1      15.457  -9.382  -0.993  1.00  0.00    -0.389 OA
BRANCH   2   3
HETATM    3  C5  UNL     1      16.546  -9.697  -0.191  1.00  0.00     0.168 C 
BRANCH   3   4
HETATM    4  C4  UNL     1      16.299 -11.010   0.478  1.00  0.00     0.031 C 
BRANCH   4   5
HETATM    5  C3  UNL     1      14.997 -11.217   1.152  1.00  0.00    -0.013 C 
HETATM    6  C2  UNL     1      15.140 -12.494   2.041  1.00  0.00     0.005 C 
HETATM    7  C1  UNL     1      15.503 -11.548   3.194  1.00  0.00     0.001 C 
HETATM    8  C11 UNL     1      14.715 -10.492   2.412  1.00  0.00     0.005 C 
ENDBRANCH   4   5
ENDBRANCH   3   4
ENDBRANCH   2   3
ENDBRANCH   1   2
BRANCH   1   9
HETATM    9  C7  UNL     1      13.610  -7.941  -1.394  1.00  0.00     0.258 C 
BRANCH   9  10
HETATM   10  N1  UNL     1      13.544  -7.647  -2.803  1.00  0.00    -0.069 N 
ATOM     11  H12 UNL     1      14.442  -7.806  -3.259  1.00  0.00     0.277 HD
ATOM     12  H11 UNL     1      12.988  -8.340  -3.302  1.00  0.00     0.277 HD
BRANCH  10  13
HETATM   13  C8  UNL     1      13.061  -6.310  -3.046  1.00  0.00     0.186 A 
HETATM   14  C9  UNL     1      11.839  -5.971  -3.815  1.00  0.00     0.035 A 
HETATM   15  C10 UNL     1      13.120  -5.945  -4.562  1.00  0.00     0.035 A 
ENDBRANCH  10  13
ENDBRANCH   9  10
ENDBRANCH   1   9
TORSDOF 7
ENDMDL
MODEL 2
REMARK VINA RESULT: -5.618363183      7.969      9.862
REMARK  7 active torsions:
REMARK  status: ('A' for Active; 'I' for Inactive)
REMARK    1  A    between atoms: C3_3  and  C4_4 
REMARK    2  A    between atoms: C4_4  and  C5_5 
REMARK    3  A    between atoms: C5_5  and  O1_6 
REMARK    4  A    between atoms: O1_6  and  C6_7 
REMARK    5  A    between atoms: C6_7  and  C7_8 
REMARK    6  A    between atoms: C7_8  and  N1_9 
REMARK    7  A    between atoms: N1_9  and  C8_12 
ROOT
HETATM    1  C6  UNL     1      20.411  -1.879  -4.691  1.00  0.00     0.195 C 
ENDROOT
BRANCH   1   2
HETATM    2  O1  UNL     1      19.102  -1.495  -4.604  1.00  0.00    -0.389 OA
BRANCH   2   3
HETATM    3  C5  UNL     1      18.537  -1.665  -3.346  1.00  0.00     0.168 C 
BRANCH   3   4
HETATM    4  C4  UNL     1      17.114  -2.094  -3.502  1.00  0.00     0.031 C 
BRANCH   4   5
HETATM    5  C3  UNL     1      16.791  -3.525  -3.308  1.00  0.00    -0.013 C 
HETATM    6  C2  UNL     1      17.453  -3.966  -1.963  1.00  0.00     0.005 C 
HETATM    7  C1  UNL     1      16.107  -3.648  -1.296  1.00  0.00     0.001 C 
HETATM    8  C11 UNL     1      15.501  -3.895  -2.681  1.00  0.00     0.005 C 
ENDBRANCH   4   5
ENDBRANCH   3   4
ENDBRANCH   2   3
ENDBRANCH   1   2
BRANCH   1   9
HETATM    9  C7  UNL     1      20.702  -2.980  -3.665  1.00  0.00     0.258 C 
BRANCH   9  10
HETATM   10  N1  UNL     1      22.044  -3.486  -3.804  1.00  0.00    -0.069 N 
ATOM     11  H12 UNL     1      22.335  -4.001  -2.973  1.00  0.00     0.277 HD
ATOM     12  H11 UNL     1      22.087  -4.244  -4.484  1.00  0.00     0.277 HD
BRANCH  10  13
HETATM   13  C8  UNL     1      22.978  -2.436  -4.126  1.00  0.00     0.186 A 
HETATM   14  C9  UNL     1      24.357  -2.646  -4.630  1.00  0.00     0.035 A 
HETATM   15  C10 UNL     1      24.209  -2.449  -3.167  1.00  0.00     0.035 A 
ENDBRANCH  10  13
ENDBRANCH   9  10
ENDBRANCH   1   9
TORSDOF 7
ENDMDL
MODEL 3
REMARK VINA RESULT: -5.582565934      1.106      1.745
REMARK  7 active torsions:
REMARK  status: ('A' for Active; 'I' for Inactive)
REMARK    1  A    between atoms: C3_3  and  C4_4 
REMARK    2  A    between atoms: C4_4  and  C5_5 
REMARK    3  A    between atoms: C5_5  and  O1_6 
REMARK    4  A    between atoms: O1_6  and  C6_7 
REMARK    5  A    between atoms: C6_7  and  C7_8 
REMARK    6  A    between atoms: C7_8  and  N1_9 
REMARK    7  A    between atoms: N1_9  and  C8_12 
ROOT
HETATM    1  C6  UNL     1      14.474  -8.764  -2.388  1.00  0.00     0.195 C 
ENDROOT
BRANCH   1   2
HETATM    2  O1  UNL     1      14.141  -9.693  -1.442  1.00  0.00    -0.389 OA
BRANCH   2   3
HETATM    3  C5  UNL     1      13.718  -9.154  -0.234  1.00  0.00     0.168 C 
BRANCH   3   4
HETATM    4  C4  UNL     1      13.949 -10.151   0.856  1.00  0.00     0.031 C 
BRANCH   4   5
HETATM    5  C3  UNL     1      15.346 -10.506   1.193  1.00  0.00    -0.013 C 
HETATM    6  C2  UNL     1      15.344 -11.023   2.668  1.00  0.00     0.005 C 
HETATM    7  C1  UNL     1      15.204 -12.435   2.082  1.00  0.00     0.001 C 
HETATM    8  C11 UNL     1      15.857 -11.847   0.828  1.00  0.00     0.005 C 
ENDBRANCH   4   5
ENDBRANCH   3   4
ENDBRANCH   2   3
ENDBRANCH   1   2
BRANCH   1   9
HETATM    9  C7  UNL     1      14.764  -7.417  -1.718  1.00  0.00     0.258 C 
BRANCH   9  10
HETATM   10  N1  UNL     1      14.116  -6.334  -2.413  1.00  0.00    -0.069 N 
ATOM     11  H12 UNL     1      13.529  -5.787  -1.784  1.00  0.00     0.277 HD
ATOM     12  H11 UNL     1      14.783  -5.609  -2.677  1.00  0.00     0.277 HD
BRANCH  10  13
HETATM   13  C8  UNL     1      13.370  -6.804  -3.553  1.00  0.00     0.186 A 
HETATM   14  C9  UNL     1      13.101  -6.016  -4.781  1.00  0.00     0.035 A 
HETATM   15  C10 UNL     1      12.043  -6.003  -3.741  1.00  0.00     0.035 A 
ENDBRANCH  10  13
ENDBRANCH   9  10
ENDBRANCH   1   9
TORSDOF 7
ENDMDL
MODEL 4
REMARK VINA RESULT: -5.546469406      8.045      9.746
REMARK  7 active torsions:
REMARK  status: ('A' for Active; 'I' for Inactive)
REMARK    1  A    between atoms: C3_3  and  C4_4 
REMARK    2  A    between atoms: C4_4  and  C5_5 
REMARK    3  A    between atoms: C5_5  and  O1_6 
REMARK    4  A    between atoms: O1_6  and  C6_7 
REMARK    5  A    between atoms: C6_7  and  C7_8 
REMARK    6  A    between atoms: C7_8  and  N1_9 
REMARK    7  A    between atoms: N1_9  and  C8_12 
ROOT
HETATM    1  C6  UNL     1      20.349  -2.534  -4.140  1.00  0.00     0.195 C 
ENDROOT
BRANCH   1   2
HETATM    2  O1  UNL     1      19.606  -1.851  -3.217  1.00  0.00    -0.389 OA
BRANCH   2   3
HETATM    3  C5  UNL     1      18.232  -1.993  -3.369  1.00  0.00     0.168 C 
BRANCH   3   4
HETATM    4  C4  UNL     1      17.821  -3.344  -2.879  1.00  0.00     0.031 C 
BRANCH   4   5
HETATM    5  C3  UNL     1      16.994  -3.421  -1.654  1.00  0.00    -0.013 C 
HETATM    6  C2  UNL     1      15.499  -3.393  -2.109  1.00  0.00     0.005 C 
HETATM    7  C1  UNL     1      15.551  -4.927  -2.081  1.00  0.00     0.001 C 
HETATM    8  C11 UNL     1      16.690  -4.749  -1.073  1.00  0.00     0.005 C 
ENDBRANCH   4   5
ENDBRANCH   3   4
ENDBRANCH   2   3
ENDBRANCH   1   2
BRANCH   1   9
HETATM    9  C7  UNL     1      20.978  -1.552  -5.135  1.00  0.00     0.258 C 
BRANCH   9  10
HETATM   10  N1  UNL     1      22.367  -1.317  -4.833  1.00  0.00    -0.069 N 
ATOM     11  H12 UNL     1      22.878  -0.998  -5.656  1.00  0.00     0.277 HD
ATOM     12  H11 UNL     1      22.486  -0.494  -4.243  1.00  0.00     0.277 HD
BRANCH  10  13
HETATM   13  C8  UNL     1      22.988  -2.479  -4.247  1.00  0.00     0.186 A 
HETATM   14  C9  UNL     1      24.084  -2.447  -3.248  1.00  0.00     0.035 A 
HETATM   15  C10 UNL     1      24.486  -2.603  -4.668  1.00  0.00     0.035 A 
ENDBRANCH  10  13
ENDBRANCH   9  10
ENDBRANCH   1   9
TORSDOF 7
ENDMDL
MODEL 5
REMARK VINA RESULT: -5.479557603      2.188      2.836
REMARK  7 active torsions:
REMARK  status: ('A' for Active; 'I' for Inactive)
REMARK    1  A    between atoms: C3_3  and  C4_4 
REMARK    2  A    between atoms: C4_4  and  C5_5 
REMARK    3  A    between atoms: C5_5  and  O1_6 
REMARK    4  A    between atoms: O1_6  and  C6_7 
REMARK    5  A    between atoms: C6_7  and  C7_8 
REMARK    6  A    between atoms: C7_8  and  N1_9 
REMARK    7  A    between atoms: N1_9  and  C8_12 
ROOT
HETATM    1  C6  UNL     1      13.610  -7.718  -1.957  1.00  0.00     0.195 C 
ENDROOT
BRANCH   1   2
HETATM    2  O1  UNL     1      14.086  -8.322  -0.827  1.00  0.00    -0.389 OA
BRANCH   2   3
HETATM    3  C5  UNL     1      13.616  -9.614  -0.626  1.00  0.00     0.168 C 
BRANCH   3   4
HETATM    4  C4  UNL     1      13.946 -10.046   0.766  1.00  0.00     0.031 C 
BRANCH   4   5
HETATM    5  C3  UNL     1      15.346 -10.419   1.068  1.00  0.00    -0.013 C 
HETATM    6  C2  UNL     1      15.369 -10.965   2.532  1.00  0.00     0.005 C 
HETATM    7  C1  UNL     1      15.205 -12.364   1.921  1.00  0.00     0.001 C 
HETATM    8  C11 UNL     1      15.838 -11.757   0.666  1.00  0.00     0.005 C 
ENDBRANCH   4   5
ENDBRANCH   3   4
ENDBRANCH   2   3
ENDBRANCH   1   2
BRANCH   1   9
HETATM    9  C7  UNL     1      14.735  -6.937  -2.645  1.00  0.00     0.258 C 
BRANCH   9  10
HETATM   10  N1  UNL     1      14.536  -5.515  -2.525  1.00  0.00    -0.069 N 
ATOM     11  H12 UNL     1      13.962  -5.154  -3.287  1.00  0.00     0.277 HD
ATOM     12  H11 UNL     1      13.922  -5.290  -1.743  1.00  0.00     0.277 HD
BRANCH  10  13
HETATM   13  C8  UNL     1      15.789  -4.808  -2.431  1.00  0.00     0.186 A 
HETATM   14  C9  UNL     1      16.505  -4.506  -1.167  1.00  0.00     0.035 A 
HETATM   15  C10 UNL     1      15.623  -3.439  -1.699  1.00  0.00     0.035 A 
ENDBRANCH  10  13
ENDBRANCH   9  10
ENDBRANCH   1   9
TORSDOF 7
ENDMDL
