MODEL 1
REMARK VINA RESULT: -7.004772471      0.000      0.000
REMARK  6 active torsions:
REMARK  status: ('A' for Active; 'I' for Inactive)
REMARK    1  A    between atoms: N1_1  and  C1_5 
REMARK    2  A    between atoms: C1_5  and  C2_6 
REMARK    3  A    between atoms: C1_5  and  C11_16 
REMARK    4  A    between atoms: C2_6  and  O1_7 
REMARK    5  A    between atoms: O1_7  and  C3_8 
REMARK    6  A    between atoms: C3_8  and  C4_9 
ROOT
HETATM    1  C2  UNL     1      20.367  -6.561  -7.640  1.00  0.00     0.200 C 
ENDROOT
BRANCH   1   2
HETATM    2  C1  UNL     1      21.070  -6.357  -8.971  1.00  0.00     0.211 C 
BRANCH   2   3
HETATM    3  N1  UNL     1      20.309  -5.356  -9.693  1.00  0.00    -0.073 N 
ATOM      4  H13 UNL     1      19.408  -5.699 -10.029  1.00  0.00     0.274 HD
ATOM      5  H12 UNL     1      19.947  -4.615  -9.093  1.00  0.00     0.274 HD
ATOM      6  H11 UNL     1      20.913  -5.012 -10.439  1.00  0.00     0.274 HD
ENDBRANCH   2   3
BRANCH   2   7
HETATM    7  C11 UNL     1      21.060  -7.623  -9.796  1.00  0.00     0.018 A 
HETATM    8  C12 UNL     1      21.651  -8.874  -9.281  1.00  0.00     0.007 A 
HETATM    9  C13 UNL     1      22.448  -8.041 -10.274  1.00  0.00     0.007 A 
ENDBRANCH   2   7
ENDBRANCH   1   2
BRANCH   1  10
HETATM   10  O1  UNL     1      21.282  -6.238  -6.653  1.00  0.00    -0.389 OA
BRANCH  10  11
HETATM   11  C3  UNL     1      20.757  -5.306  -5.802  1.00  0.00     0.172 C 
BRANCH  11  12
HETATM   12  C4  UNL     1      21.418  -3.988  -5.909  1.00  0.00     0.014 C 
HETATM   13  C5  UNL     1      20.682  -3.023  -6.835  1.00  0.00     0.011 C 
HETATM   14  C6  UNL     1      20.664  -1.691  -6.152  1.00  0.00    -0.014 C 
HETATM   15  C7  UNL     1      19.522  -1.711  -5.158  1.00  0.00     0.005 C 
HETATM   16  C10 UNL     1      21.849  -1.838  -5.181  1.00  0.00     0.010 C 
HETATM   17  C8  UNL     1      19.985  -2.819  -4.200  1.00  0.00     0.005 C 
HETATM   18  C9  UNL     1      21.373  -3.192  -4.611  1.00  0.00    -0.008 C 
ENDBRANCH  11  12
ENDBRANCH  10  11
ENDBRANCH   1  10
TORSDOF 6
ENDMDL
MODEL 2
REMARK VINA RESULT: -6.510696086      4.372      6.598
REMARK  6 active torsions:
REMARK  status: ('A' for Active; 'I' for Inactive)
REMARK    1  A    between atoms: N1_1  and  C1_5 
REMARK    2  A    between atoms: C1_5  and  C2_6 
REMARK    3  A    between atoms: C1_5  and  C11_16 
REMARK    4  A    between atoms: C2_6  and  O1_7 
REMARK    5  A    between atoms: O1_7  and  C3_8 
REMARK    6  A    between atoms: C3_8  and  C4_9 
ROOT
HETATM    1  C2  UNL     1      17.243  -4.334  -2.710  1.00  0.00     0.200 C 
ENDROOT
BRANCH   1   2
HETATM    2  C1  UNL     1      16.619  -3.288  -1.802  1.00  0.00     0.211 C 
BRANCH   2   3
HETATM    3  N1  UNL     1      16.039  -4.004  -0.681  1.00  0.00    -0.073 N 
ATOM      4  H13 UNL     1      15.587  -4.878  -0.952  1.00  0.00     0.274 HD
ATOM      5  H12 UNL     1      16.737  -4.410  -0.058  1.00  0.00     0.274 HD
ATOM      6  H11 UNL     1      15.410  -3.352  -0.213  1.00  0.00     0.274 HD
ENDBRANCH   2   3
BRANCH   2   7
HETATM    7  C11 UNL     1      15.501  -2.551  -2.502  1.00  0.00     0.018 A 
HETATM    8  C12 UNL     1      15.543  -2.307  -3.958  1.00  0.00     0.007 A 
HETATM    9  C13 UNL     1      15.915  -1.174  -3.013  1.00  0.00     0.007 A 
ENDBRANCH   2   7
ENDBRANCH   1   2
BRANCH   1  10
HETATM   10  O1  UNL     1      18.609  -4.291  -2.486  1.00  0.00    -0.389 OA
BRANCH  10  11
HETATM   11  C3  UNL     1      19.133  -3.121  -2.959  1.00  0.00     0.172 C 
BRANCH  11  12
HETATM   12  C4  UNL     1      19.336  -3.130  -4.424  1.00  0.00     0.014 C 
HETATM   13  C5  UNL     1      19.260  -1.739  -5.046  1.00  0.00     0.011 C 
HETATM   14  C6  UNL     1      20.382  -1.639  -6.033  1.00  0.00    -0.014 C 
HETATM   15  C7  UNL     1      21.634  -1.294  -5.256  1.00  0.00     0.005 C 
HETATM   16  C10 UNL     1      20.661  -3.126  -6.316  1.00  0.00     0.010 C 
HETATM   17  C8  UNL     1      21.783  -2.540  -4.369  1.00  0.00     0.005 C 
HETATM   18  C9  UNL     1      20.752  -3.521  -4.827  1.00  0.00    -0.008 C 
ENDBRANCH  11  12
ENDBRANCH  10  11
ENDBRANCH   1  10
TORSDOF 6
ENDMDL
MODEL 3
REMARK VINA RESULT: -6.488307117      4.004      6.314
REMARK  6 active torsions:
REMARK  status: ('A' for Active; 'I' for Inactive)
REMARK    1  A    between atoms: N1_1  and  C1_5 
REMARK    2  A    between atoms: C1_5  and  C2_6 
REMARK    3  A    between atoms: C1_5  and  C11_16 
REMARK    4  A    between atoms: C2_6  and  O1_7 
REMARK    5  A    between atoms: O1_7  and  C3_8 
REMARK    6  A    between atoms: C3_8  and  C4_9 
ROOT
HETATM    1  C2  UNL     1      17.641  -4.983  -3.519  1.00  0.00     0.200 C 
ENDROOT
BRANCH   1   2
HETATM    2  C1  UNL     1      17.741  -4.517  -2.077  1.00  0.00     0.211 C 
BRANCH   2   3
HETATM    3  N1  UNL     1      18.855  -5.233  -1.486  1.00  0.00    -0.073 N 
ATOM      4  H13 UNL     1      19.182  -6.013  -2.057  1.00  0.00     0.274 HD
ATOM      5  H12 UNL     1      19.724  -4.699  -1.489  1.00  0.00     0.274 HD
ATOM      6  H11 UNL     1      18.558  -5.515  -0.552  1.00  0.00     0.274 HD
ENDBRANCH   2   3
BRANCH   2   7
HETATM    7  C11 UNL     1      16.499  -4.878  -1.297  1.00  0.00     0.018 A 
HETATM    8  C12 UNL     1      15.152  -4.666  -1.866  1.00  0.00     0.007 A 
HETATM    9  C13 UNL     1      15.688  -3.662  -0.857  1.00  0.00     0.007 A 
ENDBRANCH   2   7
ENDBRANCH   1   2
BRANCH   1  10
HETATM   10  O1  UNL     1      18.661  -4.353  -4.213  1.00  0.00    -0.389 OA
BRANCH  10  11
HETATM   11  C3  UNL     1      18.452  -3.003  -4.245  1.00  0.00     0.172 C 
BRANCH  11  12
HETATM   12  C4  UNL     1      19.708  -2.223  -4.212  1.00  0.00     0.014 C 
HETATM   13  C5  UNL     1      20.946  -3.093  -4.014  1.00  0.00     0.011 C 
HETATM   14  C6  UNL     1      21.989  -2.589  -4.963  1.00  0.00    -0.014 C 
HETATM   15  C7  UNL     1      21.697  -3.199  -6.317  1.00  0.00     0.005 C 
HETATM   16  C10 UNL     1      21.492  -1.154  -5.217  1.00  0.00     0.010 C 
HETATM   17  C8  UNL     1      20.323  -2.584  -6.626  1.00  0.00     0.005 C 
HETATM   18  C9  UNL     1      20.047  -1.583  -5.552  1.00  0.00    -0.008 C 
ENDBRANCH  11  12
ENDBRANCH  10  11
ENDBRANCH   1  10
TORSDOF 6
ENDMDL
MODEL 4
REMARK VINA RESULT: -6.479355759      4.068      6.807
REMARK  6 active torsions:
REMARK  status: ('A' for Active; 'I' for Inactive)
REMARK    1  A    between atoms: N1_1  and  C1_5 
REMARK    2  A    between atoms: C1_5  and  C2_6 
REMARK    3  A    between atoms: C1_5  and  C11_16 
REMARK    4  A    between atoms: C2_6  and  O1_7 
REMARK    5  A    between atoms: O1_7  and  C3_8 
REMARK    6  A    between atoms: C3_8  and  C4_9 
ROOT
HETATM    1  C2  UNL     1      17.281  -2.286  -2.641  1.00  0.00     0.200 C 
ENDROOT
BRANCH   1   2
HETATM    2  C1  UNL     1      15.793  -2.456  -2.896  1.00  0.00     0.211 C 
BRANCH   2   3
HETATM    3  N1  UNL     1      15.229  -1.122  -2.970  1.00  0.00    -0.073 N 
ATOM      4  H13 UNL     1      14.533  -0.938  -2.247  1.00  0.00     0.274 HD
ATOM      5  H12 UNL     1      15.888  -0.391  -2.701  1.00  0.00     0.274 HD
ATOM      6  H11 UNL     1      14.866  -1.010  -3.916  1.00  0.00     0.274 HD
ENDBRANCH   2   3
BRANCH   2   7
HETATM    7  C11 UNL     1      15.119  -3.175  -1.751  1.00  0.00     0.018 A 
HETATM    8  C12 UNL     1      15.778  -4.305  -1.067  1.00  0.00     0.007 A 
HETATM    9  C13 UNL     1      14.700  -4.601  -2.098  1.00  0.00     0.007 A 
ENDBRANCH   2   7
ENDBRANCH   1   2
BRANCH   1  10
HETATM   10  O1  UNL     1      17.937  -2.897  -3.696  1.00  0.00    -0.389 OA
BRANCH  10  11
HETATM   11  C3  UNL     1      18.470  -1.959  -4.535  1.00  0.00     0.172 C 
BRANCH  11  12
HETATM   12  C4  UNL     1      19.937  -1.832  -4.403  1.00  0.00     0.014 C 
HETATM   13  C5  UNL     1      20.617  -3.140  -4.006  1.00  0.00     0.011 C 
HETATM   14  C6  UNL     1      21.844  -3.270  -4.855  1.00  0.00    -0.014 C 
HETATM   15  C7  UNL     1      21.408  -3.826  -6.193  1.00  0.00     0.005 C 
HETATM   16  C10 UNL     1      22.084  -1.803  -5.255  1.00  0.00     0.010 C 
HETATM   17  C8  UNL     1      20.499  -2.696  -6.700  1.00  0.00     0.005 C 
HETATM   18  C9  UNL     1      20.635  -1.566  -5.731  1.00  0.00    -0.008 C 
ENDBRANCH  11  12
ENDBRANCH  10  11
ENDBRANCH   1  10
TORSDOF 6
ENDMDL
MODEL 5
REMARK VINA RESULT: -6.410580952      4.104      6.282
REMARK  6 active torsions:
REMARK  status: ('A' for Active; 'I' for Inactive)
REMARK    1  A    between atoms: N1_1  and  C1_5 
REMARK    2  A    between atoms: C1_5  and  C2_6 
REMARK    3  A    between atoms: C1_5  and  C11_16 
REMARK    4  A    between atoms: C2_6  and  O1_7 
REMARK    5  A    between atoms: O1_7  and  C3_8 
REMARK    6  A    between atoms: C3_8  and  C4_9 
ROOT
HETATM    1  C2  UNL     1      20.060  -2.659  -3.414  1.00  0.00     0.200 C 
ENDROOT
BRANCH   1   2
HETATM    2  C1  UNL     1      21.313  -3.175  -4.098  1.00  0.00     0.211 C 
BRANCH   2   3
HETATM    3  N1  UNL     1      22.399  -3.017  -3.150  1.00  0.00    -0.073 N 
ATOM      4  H13 UNL     1      22.234  -2.276  -2.468  1.00  0.00     0.274 HD
ATOM      5  H12 UNL     1      22.469  -3.788  -2.485  1.00  0.00     0.274 HD
ATOM      6  H11 UNL     1      23.248  -2.878  -3.699  1.00  0.00     0.274 HD
ENDBRANCH   2   3
BRANCH   2   7
HETATM    7  C11 UNL     1      21.649  -2.353  -5.320  1.00  0.00     0.018 A 
HETATM    8  C12 UNL     1      20.587  -1.825  -6.200  1.00  0.00     0.007 A 
HETATM    9  C13 UNL     1      21.344  -3.071  -6.632  1.00  0.00     0.007 A 
ENDBRANCH   2   7
ENDBRANCH   1   2
BRANCH   1  10
HETATM   10  O1  UNL     1      19.074  -3.610  -3.618  1.00  0.00    -0.389 OA
BRANCH  10  11
HETATM   11  C3  UNL     1      17.845  -3.017  -3.686  1.00  0.00     0.172 C 
BRANCH  11  12
HETATM   12  C4  UNL     1      17.149  -2.979  -2.381  1.00  0.00     0.014 C 
HETATM   13  C5  UNL     1      15.687  -2.560  -2.496  1.00  0.00     0.011 C 
HETATM   14  C6  UNL     1      14.899  -3.473  -1.608  1.00  0.00    -0.014 C 
HETATM   15  C7  UNL     1      14.660  -4.754  -2.379  1.00  0.00     0.005 C 
HETATM   16  C10 UNL     1      15.992  -3.960  -0.639  1.00  0.00     0.010 C 
HETATM   17  C8  UNL     1      16.099  -5.260  -2.560  1.00  0.00     0.005 C 
HETATM   18  C9  UNL     1      16.979  -4.359  -1.757  1.00  0.00    -0.008 C 
ENDBRANCH  11  12
ENDBRANCH  10  11
ENDBRANCH   1  10
TORSDOF 6
ENDMDL
