MODEL 1
REMARK VINA RESULT: -5.200726333      0.000      0.000
REMARK  5 active torsions:
REMARK  status: ('A' for Active; 'I' for Inactive)
REMARK    1  A    between atoms: O1_2  and  C2_3 
REMARK    2  A    between atoms: C3_4  and  N1_5 
REMARK    3  A    between atoms: N1_5  and  N2_7 
REMARK    4  A    between atoms: C5_15  and  O3_16 
REMARK    5  A    between atoms: C6_18  and  O4_19 
ROOT
HETATM    1  C2  UNL     1      38.275  60.970  18.207  1.00  0.00     0.202 C 
HETATM    2  C3  UNL     1      36.872  60.689  17.716  1.00  0.00     0.270 C 
HETATM    3  O2  UNL     1      36.958  60.400  16.365  1.00  0.00    -0.344 OA
HETATM    4  C4  UNL     1      37.411  61.450  15.602  1.00  0.00     0.228 C 
HETATM    5  S1  UNL     1      37.632  60.806  13.896  1.00  0.00    -0.060 SA
HETATM    6  C5  UNL     1      38.728  62.010  16.037  1.00  0.00     0.189 C 
HETATM    7  C6  UNL     1      38.848  62.185  17.527  1.00  0.00     0.183 C 
ENDROOT
BRANCH   2   8
HETATM    8  N1  UNL     1      35.964  61.766  17.956  1.00  0.00    -0.291 N 
ATOM      9  H1  UNL     1      35.629  62.347  17.187  1.00  0.00     0.184 HD
BRANCH   8  10
HETATM   10  N2  UNL     1      35.590  61.978  19.126  1.00  0.00    -0.251 N 
HETATM   11  N3  UNL     1      34.757  62.392  19.958  1.00  0.00    -0.331 N 
ATOM     12  H32 UNL     1      34.006  62.722  19.353  1.00  0.00     0.178 HD
ATOM     13  H31 UNL     1      34.452  62.566  20.916  1.00  0.00     0.178 HD
ATOM     14  H2  UNL     1      36.363  61.638  19.698  1.00  0.00     0.207 HD
ENDBRANCH   8  10
ENDBRANCH   2   8
BRANCH   1  15
HETATM   15  O1  UNL     1      39.059  59.877  17.840  1.00  0.00    -0.384 OA
HETATM   16  C1  UNL     1      39.961  59.522  18.828  1.00  0.00     0.202 C 
ENDBRANCH   1  15
BRANCH   7  17
HETATM   17  O4  UNL     1      38.237  63.365  17.937  1.00  0.00    -0.390 OA
ATOM     18  H4  UNL     1      38.054  63.952  17.213  1.00  0.00     0.210 HD
ENDBRANCH   7  17
BRANCH   6  19
HETATM   19  O3  UNL     1      38.916  63.224  15.361  1.00  0.00    -0.389 OA
ATOM     20  H3  UNL     1      39.178  63.873  16.003  1.00  0.00     0.210 HD
ENDBRANCH   6  19
TORSDOF 5
ENDMDL
MODEL 2
REMARK VINA RESULT: -4.962559159      1.820      2.137
REMARK  5 active torsions:
REMARK  status: ('A' for Active; 'I' for Inactive)
REMARK    1  A    between atoms: O1_2  and  C2_3 
REMARK    2  A    between atoms: C3_4  and  N1_5 
REMARK    3  A    between atoms: N1_5  and  N2_7 
REMARK    4  A    between atoms: C5_15  and  O3_16 
REMARK    5  A    between atoms: C6_18  and  O4_19 
ROOT
HETATM    1  C2  UNL     1      36.947  60.838  19.949  1.00  0.00     0.202 C 
HETATM    2  C3  UNL     1      35.568  60.867  19.328  1.00  0.00     0.270 C 
HETATM    3  O2  UNL     1      35.716  60.579  17.981  1.00  0.00    -0.344 OA
HETATM    4  C4  UNL     1      36.450  61.516  17.292  1.00  0.00     0.228 C 
HETATM    5  S1  UNL     1      36.687  60.856  15.595  1.00  0.00    -0.060 SA
HETATM    6  C5  UNL     1      37.809  61.779  17.859  1.00  0.00     0.189 C 
HETATM    7  C6  UNL     1      37.824  61.910  19.358  1.00  0.00     0.183 C 
ENDROOT
BRANCH   2   8
HETATM    8  N1  UNL     1      34.889  62.110  19.517  1.00  0.00    -0.291 N 
ATOM      9  H1  UNL     1      34.486  62.610  18.724  1.00  0.00     0.184 HD
BRANCH   8  10
HETATM   10  N2  UNL     1      34.799  62.568  20.672  1.00  0.00    -0.251 N 
HETATM   11  N3  UNL     1      34.911  63.493  21.502  1.00  0.00    -0.331 N 
ATOM     12  H32 UNL     1      35.250  64.256  20.917  1.00  0.00     0.178 HD
ATOM     13  H31 UNL     1      34.837  63.867  22.448  1.00  0.00     0.178 HD
ATOM     14  H2  UNL     1      34.459  61.780  21.225  1.00  0.00     0.207 HD
ENDBRANCH   8  10
ENDBRANCH   2   8
BRANCH   1  15
HETATM   15  O1  UNL     1      37.513  59.607  19.621  1.00  0.00    -0.384 OA
HETATM   16  C1  UNL     1      37.511  58.727  20.691  1.00  0.00     0.202 C 
ENDBRANCH   1  15
BRANCH   7  17
HETATM   17  O4  UNL     1      37.439  63.189  19.746  1.00  0.00    -0.390 OA
ATOM     18  H4  UNL     1      36.572  63.207  20.134  1.00  0.00     0.210 HD
ENDBRANCH   7  17
BRANCH   6  19
HETATM   19  O3  UNL     1      38.310  62.931  17.238  1.00  0.00    -0.389 OA
ATOM     20  H3  UNL     1      38.816  62.654  16.483  1.00  0.00     0.210 HD
ENDBRANCH   6  19
TORSDOF 5
ENDMDL
MODEL 3
REMARK VINA RESULT: -4.948338481      2.178      2.604
REMARK  5 active torsions:
REMARK  status: ('A' for Active; 'I' for Inactive)
REMARK    1  A    between atoms: O1_2  and  C2_3 
REMARK    2  A    between atoms: C3_4  and  N1_5 
REMARK    3  A    between atoms: N1_5  and  N2_7 
REMARK    4  A    between atoms: C5_15  and  O3_16 
REMARK    5  A    between atoms: C6_18  and  O4_19 
ROOT
HETATM    1  C2  UNL     1      39.531  61.233  16.616  1.00  0.00     0.202 C 
HETATM    2  C3  UNL     1      38.567  61.556  17.736  1.00  0.00     0.270 C 
HETATM    3  O2  UNL     1      37.413  60.824  17.512  1.00  0.00    -0.344 OA
HETATM    4  C4  UNL     1      36.758  61.166  16.353  1.00  0.00     0.228 C 
HETATM    5  S1  UNL     1      35.384  59.965  16.149  1.00  0.00    -0.060 SA
HETATM    6  C5  UNL     1      37.599  61.090  15.118  1.00  0.00     0.189 C 
HETATM    7  C6  UNL     1      38.976  61.674  15.288  1.00  0.00     0.183 C 
ENDROOT
BRANCH   2   8
HETATM    8  N1  UNL     1      38.278  62.951  17.850  1.00  0.00    -0.291 N 
ATOM      9  H1  UNL     1      37.758  63.437  17.119  1.00  0.00     0.184 HD
BRANCH   8  10
HETATM   10  N2  UNL     1      38.677  63.560  18.861  1.00  0.00    -0.251 N 
HETATM   11  N3  UNL     1      39.584  64.023  19.582  1.00  0.00    -0.331 N 
ATOM     12  H32 UNL     1      40.419  63.757  19.061  1.00  0.00     0.178 HD
ATOM     13  H31 UNL     1      39.910  64.521  20.411  1.00  0.00     0.178 HD
ATOM     14  H2  UNL     1      37.819  63.807  19.355  1.00  0.00     0.207 HD
ENDBRANCH   8  10
ENDBRANCH   2   8
BRANCH   1  15
HETATM   15  O1  UNL     1      39.656  59.845  16.578  1.00  0.00    -0.384 OA
HETATM   16  C1  UNL     1      40.552  59.373  17.522  1.00  0.00     0.202 C 
ENDBRANCH   1  15
BRANCH   7  17
HETATM   17  O4  UNL     1      38.946  63.057  15.154  1.00  0.00    -0.390 OA
ATOM     18  H4  UNL     1      38.795  63.334  14.258  1.00  0.00     0.210 HD
ENDBRANCH   7  17
BRANCH   6  19
HETATM   19  O3  UNL     1      36.895  61.726  14.086  1.00  0.00    -0.389 OA
ATOM     20  H3  UNL     1      36.060  62.008  14.439  1.00  0.00     0.210 HD
ENDBRANCH   6  19
TORSDOF 5
ENDMDL
MODEL 4
REMARK VINA RESULT: -4.728322597      2.202      2.353
REMARK  5 active torsions:
REMARK  status: ('A' for Active; 'I' for Inactive)
REMARK    1  A    between atoms: O1_2  and  C2_3 
REMARK    2  A    between atoms: C3_4  and  N1_5 
REMARK    3  A    between atoms: N1_5  and  N2_7 
REMARK    4  A    between atoms: C5_15  and  O3_16 
REMARK    5  A    between atoms: C6_18  and  O4_19 
ROOT
HETATM    1  C2  UNL     1      39.665  61.097  18.279  1.00  0.00     0.202 C 
HETATM    2  C3  UNL     1      38.293  61.656  18.586  1.00  0.00     0.270 C 
HETATM    3  O2  UNL     1      37.436  61.215  17.592  1.00  0.00    -0.344 OA
HETATM    4  C4  UNL     1      37.753  61.685  16.340  1.00  0.00     0.228 C 
HETATM    5  S1  UNL     1      36.628  60.840  15.159  1.00  0.00    -0.060 SA
HETATM    6  C5  UNL     1      39.153  61.393  15.903  1.00  0.00     0.189 C 
HETATM    7  C6  UNL     1      40.184  61.636  16.973  1.00  0.00     0.183 C 
ENDROOT
BRANCH   2   8
HETATM    8  N1  UNL     1      38.274  63.081  18.689  1.00  0.00    -0.291 N 
ATOM      9  H1  UNL     1      37.626  63.636  18.128  1.00  0.00     0.184 HD
BRANCH   8  10
HETATM   10  N2  UNL     1      39.065  63.631  19.479  1.00  0.00    -0.251 N 
HETATM   11  N3  UNL     1      39.984  64.434  19.736  1.00  0.00    -0.331 N 
ATOM     12  H32 UNL     1      40.169  64.838  18.819  1.00  0.00     0.178 HD
ATOM     13  H31 UNL     1      40.632  64.884  20.384  1.00  0.00     0.178 HD
ATOM     14  H2  UNL     1      38.851  63.204  20.380  1.00  0.00     0.207 HD
ENDBRANCH   8  10
ENDBRANCH   2   8
BRANCH   1  15
HETATM   15  O1  UNL     1      39.517  59.718  18.134  1.00  0.00    -0.384 OA
HETATM   16  C1  UNL     1      40.677  59.030  18.446  1.00  0.00     0.202 C 
ENDBRANCH   1  15
BRANCH   7  17
HETATM   17  O4  UNL     1      40.512  62.985  17.045  1.00  0.00    -0.390 OA
ATOM     18  H4  UNL     1      39.879  63.539  16.602  1.00  0.00     0.210 HD
ENDBRANCH   7  17
BRANCH   6  19
HETATM   19  O3  UNL     1      39.409  62.161  14.759  1.00  0.00    -0.389 OA
ATOM     20  H3  UNL     1      40.327  62.408  14.778  1.00  0.00     0.210 HD
ENDBRANCH   6  19
TORSDOF 5
ENDMDL
MODEL 5
REMARK VINA RESULT: -4.663880341      3.682      4.211
REMARK  5 active torsions:
REMARK  status: ('A' for Active; 'I' for Inactive)
REMARK    1  A    between atoms: O1_2  and  C2_3 
REMARK    2  A    between atoms: C3_4  and  N1_5 
REMARK    3  A    between atoms: N1_5  and  N2_7 
REMARK    4  A    between atoms: C5_15  and  O3_16 
REMARK    5  A    between atoms: C6_18  and  O4_19 
ROOT
HETATM    1  C2  UNL     1      38.744  60.885  17.947  1.00  0.00     0.202 C 
HETATM    2  C3  UNL     1      40.105  60.992  17.296  1.00  0.00     0.270 C 
HETATM    3  O2  UNL     1      40.992  61.436  18.263  1.00  0.00    -0.344 OA
HETATM    4  C4  UNL     1      40.709  62.696  18.736  1.00  0.00     0.228 C 
HETATM    5  S1  UNL     1      41.869  63.011  20.124  1.00  0.00    -0.060 SA
HETATM    6  C5  UNL     1      39.322  62.862  19.271  1.00  0.00     0.189 C 
HETATM    7  C6  UNL     1      38.261  62.235  18.407  1.00  0.00     0.183 C 
ENDROOT
BRANCH   2   8
HETATM    8  N1  UNL     1      40.119  61.849  16.152  1.00  0.00    -0.291 N 
ATOM      9  H1  UNL     1      40.733  62.663  16.117  1.00  0.00     0.184 HD
BRANCH   8  10
HETATM   10  N2  UNL     1      39.363  61.580  15.199  1.00  0.00    -0.251 N 
HETATM   11  N3  UNL     1      38.379  61.821  14.471  1.00  0.00    -0.331 N 
ATOM     12  H32 UNL     1      38.025  62.685  14.882  1.00  0.00     0.178 HD
ATOM     13  H31 UNL     1      37.760  61.600  13.691  1.00  0.00     0.178 HD
ATOM     14  H2  UNL     1      39.746  60.715  14.816  1.00  0.00     0.207 HD
ENDBRANCH   8  10
ENDBRANCH   2   8
BRANCH   1  15
HETATM   15  O1  UNL     1      38.900  60.087  19.080  1.00  0.00    -0.384 OA
HETATM   16  C1  UNL     1      37.704  59.885  19.748  1.00  0.00     0.202 C 
ENDBRANCH   1  15
BRANCH   7  17
HETATM   17  O4  UNL     1      37.928  63.071  17.348  1.00  0.00    -0.390 OA
ATOM     18  H4  UNL     1      37.191  62.747  16.844  1.00  0.00     0.210 HD
ENDBRANCH   7  17
BRANCH   6  19
HETATM   19  O3  UNL     1      39.097  64.234  19.446  1.00  0.00    -0.389 OA
ATOM     20  H3  UNL     1      39.361  64.673  18.646  1.00  0.00     0.210 HD
ENDBRANCH   6  19
TORSDOF 5
ENDMDL
