MODEL 1
REMARK VINA RESULT: -8.755034580      0.000      0.000
REMARK  8 active torsions:
REMARK  status: ('A' for Active; 'I' for Inactive)
REMARK    1  A    between atoms: C2_2  and  N1_3 
REMARK    2  A    between atoms: N1_3  and  C3_4 
REMARK    3  A    between atoms: N1_3  and  C10_11 
REMARK       I    between atoms: N2_14  and  C13_15 
REMARK    4  A    between atoms: C13_15  and  C14_17 
REMARK    5  A    between atoms: C14_17  and  C15_18 
REMARK    6  A    between atoms: C15_18  and  C16_19 
REMARK    7  A    between atoms: C17_20  and  O2_21 
REMARK    8  A    between atoms: C19_25  and  O4_26 
ROOT
HETATM    1  C10 UNL     1       3.739 -11.746 -24.105  1.00  0.00     0.087 C 
HETATM    2  C11 UNL     1       5.122 -11.149 -23.978  1.00  0.00     0.045 C 
HETATM    3  C12 UNL     1       6.205 -12.160 -23.956  1.00  0.00     0.127 C 
HETATM    4  N2  UNL     1       5.865 -13.439 -24.466  1.00  0.00    -0.352 N 
HETATM    5  C13 UNL     1       6.969 -14.378 -24.690  1.00  0.00     0.220 C 
HETATM    6  O1  UNL     1       6.657 -15.500 -25.157  1.00  0.00    -0.273 OA
HETATM    7  C20 UNL     1       4.551 -13.915 -24.769  1.00  0.00     0.127 C 
HETATM    8  C21 UNL     1       3.732 -12.691 -25.251  1.00  0.00     0.045 C 
ENDROOT
BRANCH   5   9
HETATM    9  C14 UNL     1       8.319 -13.993 -24.384  1.00  0.00     0.108 C 
BRANCH   9  10
HETATM   10  C15 UNL     1       9.411 -14.953 -24.470  1.00  0.00     0.056 C 
BRANCH  10  11
HETATM   11  C16 UNL     1      10.394 -14.748 -25.537  1.00  0.00     0.035 A 
HETATM   12  C17 UNL     1      11.646 -14.220 -25.551  1.00  0.00     0.099 A 
HETATM   13  C18 UNL     1      12.178 -14.338 -26.818  1.00  0.00     0.182 A 
HETATM   14  O3  UNL     1      11.259 -14.920 -27.534  1.00  0.00    -0.297 OA
HETATM   15  C19 UNL     1      10.192 -15.190 -26.862  1.00  0.00     0.192 A 
BRANCH  12  16
HETATM   16  O2  UNL     1      12.336 -13.632 -24.499  1.00  0.00    -0.358 OA
ATOM     17  H2  UNL     1      12.572 -14.022 -23.666  1.00  0.00     0.217 HD
ENDBRANCH  12  16
BRANCH  15  18
HETATM   18  O4  UNL     1       9.027 -15.793 -27.276  1.00  0.00    -0.340 OA
ATOM     19  H4  UNL     1       9.001 -16.678 -27.620  1.00  0.00     0.220 HD
ENDBRANCH  15  18
ENDBRANCH  10  11
ENDBRANCH   9  10
ENDBRANCH   5   9
BRANCH   1  20
HETATM   20  N1  UNL     1       2.694 -10.808 -24.028  1.00  0.00    -0.384 N 
BRANCH  20  21
HETATM   21  C2  UNL     1       2.937  -9.699 -23.197  1.00  0.00     0.054 C 
HETATM   22  C1  UNL     1       3.103  -8.367 -23.864  1.00  0.00     0.054 C 
ENDBRANCH  20  21
BRANCH  20  23
HETATM   23  C3  UNL     1       1.416 -11.280 -24.282  1.00  0.00     0.084 C 
HETATM   24  C4  UNL     1       0.871 -12.218 -23.210  1.00  0.00     0.025 C 
HETATM   25  C5  UNL     1      -0.297 -12.949 -23.829  1.00  0.00     0.002 C 
HETATM   26  C6  UNL     1      -1.582 -12.235 -23.514  1.00  0.00     0.000 C 
HETATM   27  C7  UNL     1      -1.965 -11.245 -24.585  1.00  0.00     0.000 C 
HETATM   28  C8  UNL     1      -0.786 -10.713 -25.334  1.00  0.00     0.002 C 
HETATM   29  C9  UNL     1       0.314 -10.208 -24.417  1.00  0.00     0.025 C 
ENDBRANCH  20  23
ENDBRANCH   1  20
TORSDOF 8
ENDMDL
MODEL 2
REMARK VINA RESULT: -8.725690273      1.845      3.273
REMARK  8 active torsions:
REMARK  status: ('A' for Active; 'I' for Inactive)
REMARK    1  A    between atoms: C2_2  and  N1_3 
REMARK    2  A    between atoms: N1_3  and  C3_4 
REMARK    3  A    between atoms: N1_3  and  C10_11 
REMARK       I    between atoms: N2_14  and  C13_15 
REMARK    4  A    between atoms: C13_15  and  C14_17 
REMARK    5  A    between atoms: C14_17  and  C15_18 
REMARK    6  A    between atoms: C15_18  and  C16_19 
REMARK    7  A    between atoms: C17_20  and  O2_21 
REMARK    8  A    between atoms: C19_25  and  O4_26 
ROOT
HETATM    1  C10 UNL     1       2.132 -11.614 -24.186  1.00  0.00     0.087 C 
HETATM    2  C11 UNL     1       2.303 -13.110 -24.312  1.00  0.00     0.045 C 
HETATM    3  C12 UNL     1       3.683 -13.523 -24.658  1.00  0.00     0.127 C 
HETATM    4  N2  UNL     1       4.694 -12.561 -24.408  1.00  0.00    -0.352 N 
HETATM    5  C13 UNL     1       6.084 -13.022 -24.501  1.00  0.00     0.220 C 
HETATM    6  O1  UNL     1       6.969 -12.165 -24.262  1.00  0.00    -0.273 OA
HETATM    7  C20 UNL     1       4.500 -11.181 -24.091  1.00  0.00     0.127 C 
HETATM    8  C21 UNL     1       3.184 -11.090 -23.278  1.00  0.00     0.045 C 
ENDROOT
BRANCH   5   9
HETATM    9  C14 UNL     1       6.371 -14.388 -24.845  1.00  0.00     0.108 C 
BRANCH   9  10
HETATM   10  C15 UNL     1       7.231 -14.712 -25.976  1.00  0.00     0.056 C 
BRANCH  10  11
HETATM   11  C16 UNL     1       8.674 -14.540 -25.785  1.00  0.00     0.035 A 
HETATM   12  C17 UNL     1       9.638 -13.935 -26.526  1.00  0.00     0.099 A 
HETATM   13  C18 UNL     1      10.838 -13.989 -25.848  1.00  0.00     0.182 A 
HETATM   14  O3  UNL     1      10.585 -14.614 -24.734  1.00  0.00    -0.297 OA
HETATM   15  C19 UNL     1       9.350 -14.968 -24.622  1.00  0.00     0.192 A 
BRANCH  12  16
HETATM   16  O2  UNL     1       9.509 -13.345 -27.776  1.00  0.00    -0.358 OA
ATOM     17  H2  UNL     1       9.010 -12.570 -28.007  1.00  0.00     0.217 HD
ENDBRANCH  12  16
BRANCH  15  18
HETATM   18  O4  UNL     1       8.721 -15.639 -23.600  1.00  0.00    -0.340 OA
ATOM     19  H4  UNL     1       7.994 -16.232 -23.745  1.00  0.00     0.220 HD
ENDBRANCH  15  18
ENDBRANCH  10  11
ENDBRANCH   9  10
ENDBRANCH   5   9
BRANCH   1  20
HETATM   20  N1  UNL     1       0.809 -11.198 -23.955  1.00  0.00    -0.384 N 
BRANCH  20  21
HETATM   21  C2  UNL     1      -0.068 -12.199 -23.496  1.00  0.00     0.054 C 
HETATM   22  C1  UNL     1      -1.525 -12.023 -23.796  1.00  0.00     0.054 C 
ENDBRANCH  20  21
BRANCH  20  23
HETATM   23  C3  UNL     1       0.368 -10.099 -24.675  1.00  0.00     0.084 C 
HETATM   24  C4  UNL     1       0.837  -8.759 -24.120  1.00  0.00     0.025 C 
HETATM   25  C5  UNL     1      -0.051  -7.702 -24.734  1.00  0.00     0.002 C 
HETATM   26  C6  UNL     1       0.591  -7.139 -25.972  1.00  0.00     0.000 C 
HETATM   27  C7  UNL     1       0.157  -7.864 -27.222  1.00  0.00     0.000 C 
HETATM   28  C8  UNL     1      -0.240  -9.282 -26.963  1.00  0.00     0.002 C 
HETATM   29  C9  UNL     1       0.795 -10.045 -26.157  1.00  0.00     0.025 C 
ENDBRANCH  20  23
ENDBRANCH   1  20
TORSDOF 8
ENDMDL
MODEL 3
REMARK VINA RESULT: -8.704089667      1.688      2.890
REMARK  8 active torsions:
REMARK  status: ('A' for Active; 'I' for Inactive)
REMARK    1  A    between atoms: C2_2  and  N1_3 
REMARK    2  A    between atoms: N1_3  and  C3_4 
REMARK    3  A    between atoms: N1_3  and  C10_11 
REMARK       I    between atoms: N2_14  and  C13_15 
REMARK    4  A    between atoms: C13_15  and  C14_17 
REMARK    5  A    between atoms: C14_17  and  C15_18 
REMARK    6  A    between atoms: C15_18  and  C16_19 
REMARK    7  A    between atoms: C17_20  and  O2_21 
REMARK    8  A    between atoms: C19_25  and  O4_26 
ROOT
HETATM    1  C10 UNL     1       3.131 -11.448 -24.160  1.00  0.00     0.087 C 
HETATM    2  C11 UNL     1       3.348 -12.933 -24.338  1.00  0.00     0.045 C 
HETATM    3  C12 UNL     1       4.759 -13.299 -24.603  1.00  0.00     0.127 C 
HETATM    4  N2  UNL     1       5.726 -12.328 -24.241  1.00  0.00    -0.352 N 
HETATM    5  C13 UNL     1       7.130 -12.752 -24.255  1.00  0.00     0.220 C 
HETATM    6  O1  UNL     1       7.974 -11.888 -23.917  1.00  0.00    -0.273 OA
HETATM    7  C20 UNL     1       5.474 -10.967 -23.880  1.00  0.00     0.127 C 
HETATM    8  C21 UNL     1       4.103 -10.942 -23.159  1.00  0.00     0.045 C 
ENDROOT
BRANCH   5   9
HETATM    9  C14 UNL     1       7.475 -14.095 -24.635  1.00  0.00     0.108 C 
BRANCH   9  10
HETATM   10  C15 UNL     1       8.788 -14.647 -24.328  1.00  0.00     0.056 C 
BRANCH  10  11
HETATM   11  C16 UNL     1       9.785 -14.627 -25.401  1.00  0.00     0.035 A 
HETATM   12  C17 UNL     1      11.114 -14.344 -25.422  1.00  0.00     0.099 A 
HETATM   13  C18 UNL     1      11.606 -14.554 -26.693  1.00  0.00     0.182 A 
HETATM   14  O3  UNL     1      10.590 -14.950 -27.404  1.00  0.00    -0.297 OA
HETATM   15  C19 UNL     1       9.495 -15.017 -26.726  1.00  0.00     0.192 A 
BRANCH  12  16
HETATM   16  O2  UNL     1      11.908 -13.901 -24.373  1.00  0.00    -0.358 OA
ATOM     17  H2  UNL     1      12.414 -13.098 -24.323  1.00  0.00     0.217 HD
ENDBRANCH  12  16
BRANCH  15  18
HETATM   18  O4  UNL     1       8.235 -15.388 -27.134  1.00  0.00    -0.340 OA
ATOM     19  H4  UNL     1       8.067 -16.187 -27.620  1.00  0.00     0.220 HD
ENDBRANCH  15  18
ENDBRANCH  10  11
ENDBRANCH   9  10
ENDBRANCH   5   9
BRANCH   1  20
HETATM   20  N1  UNL     1       1.784 -11.074 -24.007  1.00  0.00    -0.384 N 
BRANCH  20  21
HETATM   21  C2  UNL     1       0.909 -12.106 -23.620  1.00  0.00     0.054 C 
HETATM   22  C1  UNL     1      -0.478 -12.075 -24.184  1.00  0.00     0.054 C 
ENDBRANCH  20  21
BRANCH  20  23
HETATM   23  C3  UNL     1       1.358  -9.974 -24.735  1.00  0.00     0.084 C 
HETATM   24  C4  UNL     1       1.210  -8.698 -23.912  1.00  0.00     0.025 C 
HETATM   25  C5  UNL     1       0.358  -7.754 -24.728  1.00  0.00     0.002 C 
HETATM   26  C6  UNL     1       1.231  -6.839 -25.541  1.00  0.00     0.000 C 
HETATM   27  C7  UNL     1       1.500  -7.382 -26.923  1.00  0.00     0.000 C 
HETATM   28  C8  UNL     1       1.435  -8.874 -26.984  1.00  0.00     0.002 C 
HETATM   29  C9  UNL     1       2.267  -9.544 -25.906  1.00  0.00     0.025 C 
ENDBRANCH  20  23
ENDBRANCH   1  20
TORSDOF 8
ENDMDL
MODEL 4
REMARK VINA RESULT: -8.547852348      0.409      1.492
REMARK  8 active torsions:
REMARK  status: ('A' for Active; 'I' for Inactive)
REMARK    1  A    between atoms: C2_2  and  N1_3 
REMARK    2  A    between atoms: N1_3  and  C3_4 
REMARK    3  A    between atoms: N1_3  and  C10_11 
REMARK       I    between atoms: N2_14  and  C13_15 
REMARK    4  A    between atoms: C13_15  and  C14_17 
REMARK    5  A    between atoms: C14_17  and  C15_18 
REMARK    6  A    between atoms: C15_18  and  C16_19 
REMARK    7  A    between atoms: C17_20  and  O2_21 
REMARK    8  A    between atoms: C19_25  and  O4_26 
ROOT
HETATM    1  C10 UNL     1       3.865 -11.828 -24.068  1.00  0.00     0.087 C 
HETATM    2  C11 UNL     1       5.240 -11.203 -24.010  1.00  0.00     0.045 C 
HETATM    3  C12 UNL     1       6.342 -12.193 -24.003  1.00  0.00     0.127 C 
HETATM    4  N2  UNL     1       6.007 -13.491 -24.467  1.00  0.00    -0.352 N 
HETATM    5  C13 UNL     1       7.120 -14.416 -24.710  1.00  0.00     0.220 C 
HETATM    6  O1  UNL     1       6.811 -15.555 -25.135  1.00  0.00    -0.273 OA
HETATM    7  C20 UNL     1       4.692 -13.998 -24.707  1.00  0.00     0.127 C 
HETATM    8  C21 UNL     1       3.832 -12.803 -25.188  1.00  0.00     0.045 C 
ENDROOT
BRANCH   5   9
HETATM    9  C14 UNL     1       8.473 -13.998 -24.466  1.00  0.00     0.108 C 
BRANCH   9  10
HETATM   10  C15 UNL     1       9.574 -14.951 -24.521  1.00  0.00     0.056 C 
BRANCH  10  11
HETATM   11  C16 UNL     1      10.513 -14.818 -25.638  1.00  0.00     0.035 A 
HETATM   12  C17 UNL     1      10.452 -15.186 -26.944  1.00  0.00     0.099 A 
HETATM   13  C18 UNL     1      11.587 -14.750 -27.596  1.00  0.00     0.182 A 
HETATM   14  O3  UNL     1      12.300 -14.141 -26.693  1.00  0.00    -0.297 OA
HETATM   15  C19 UNL     1      11.745 -14.139 -25.528  1.00  0.00     0.192 A 
BRANCH  12  16
HETATM   16  O2  UNL     1       9.445 -15.896 -27.585  1.00  0.00    -0.358 OA
ATOM     17  H2  UNL     1       9.533 -16.524 -28.293  1.00  0.00     0.217 HD
ENDBRANCH  12  16
BRANCH  15  18
HETATM   18  O4  UNL     1      12.196 -13.600 -24.346  1.00  0.00    -0.340 OA
ATOM     19  H4  UNL     1      11.639 -13.094 -23.767  1.00  0.00     0.220 HD
ENDBRANCH  15  18
ENDBRANCH  10  11
ENDBRANCH   9  10
ENDBRANCH   5   9
BRANCH   1  20
HETATM   20  N1  UNL     1       2.806 -10.908 -23.975  1.00  0.00    -0.384 N 
BRANCH  20  21
HETATM   21  C2  UNL     1       3.027  -9.816 -23.114  1.00  0.00     0.054 C 
HETATM   22  C1  UNL     1       3.161  -8.464 -23.745  1.00  0.00     0.054 C 
ENDBRANCH  20  21
BRANCH  20  23
HETATM   23  C3  UNL     1       1.536 -11.391 -24.250  1.00  0.00     0.084 C 
HETATM   24  C4  UNL     1       0.981 -12.332 -23.185  1.00  0.00     0.025 C 
HETATM   25  C5  UNL     1      -0.169 -13.075 -23.822  1.00  0.00     0.002 C 
HETATM   26  C6  UNL     1      -1.466 -12.372 -23.531  1.00  0.00     0.000 C 
HETATM   27  C7  UNL     1      -1.839 -11.386 -24.610  1.00  0.00     0.000 C 
HETATM   28  C8  UNL     1      -0.652 -10.846 -25.340  1.00  0.00     0.002 C 
HETATM   29  C9  UNL     1       0.427 -10.329 -24.405  1.00  0.00     0.025 C 
ENDBRANCH  20  23
ENDBRANCH   1  20
TORSDOF 8
ENDMDL
MODEL 5
REMARK VINA RESULT: -8.540024633      4.655      9.262
REMARK  8 active torsions:
REMARK  status: ('A' for Active; 'I' for Inactive)
REMARK    1  A    between atoms: C2_2  and  N1_3 
REMARK    2  A    between atoms: N1_3  and  C3_4 
REMARK    3  A    between atoms: N1_3  and  C10_11 
REMARK       I    between atoms: N2_14  and  C13_15 
REMARK    4  A    between atoms: C13_15  and  C14_17 
REMARK    5  A    between atoms: C14_17  and  C15_18 
REMARK    6  A    between atoms: C15_18  and  C16_19 
REMARK    7  A    between atoms: C17_20  and  O2_21 
REMARK    8  A    between atoms: C19_25  and  O4_26 
ROOT
HETATM    1  C10 UNL     1       5.255 -12.666 -24.802  1.00  0.00     0.087 C 
HETATM    2  C11 UNL     1       6.128 -11.914 -23.824  1.00  0.00     0.045 C 
HETATM    3  C12 UNL     1       5.637 -10.551 -23.516  1.00  0.00     0.127 C 
HETATM    4  N2  UNL     1       4.272 -10.306 -23.812  1.00  0.00    -0.352 N 
HETATM    5  C13 UNL     1       3.693  -9.062 -23.293  1.00  0.00     0.220 C 
HETATM    6  O1  UNL     1       2.481  -8.865 -23.550  1.00  0.00    -0.273 OA
HETATM    7  C20 UNL     1       3.404 -11.141 -24.583  1.00  0.00     0.127 C 
HETATM    8  C21 UNL     1       3.849 -12.603 -24.331  1.00  0.00     0.045 C 
ENDROOT
BRANCH   5   9
HETATM    9  C14 UNL     1       4.504  -8.150 -22.534  1.00  0.00     0.108 C 
BRANCH   9  10
HETATM   10  C15 UNL     1       4.061  -6.785 -22.281  1.00  0.00     0.056 C 
BRANCH  10  11
HETATM   11  C16 UNL     1       3.804  -6.418 -20.886  1.00  0.00     0.035 A 
HETATM   12  C17 UNL     1       4.020  -7.057 -19.707  1.00  0.00     0.099 A 
HETATM   13  C18 UNL     1       3.665  -6.228 -18.664  1.00  0.00     0.182 A 
HETATM   14  O3  UNL     1       3.247  -5.126 -19.217  1.00  0.00    -0.297 OA
HETATM   15  C19 UNL     1       3.295  -5.157 -20.506  1.00  0.00     0.192 A 
BRANCH  12  16
HETATM   16  O2  UNL     1       4.508  -8.343 -19.511  1.00  0.00    -0.358 OA
ATOM     17  H2  UNL     1       5.413  -8.632 -19.529  1.00  0.00     0.217 HD
ENDBRANCH  12  16
BRANCH  15  18
HETATM   18  O4  UNL     1       2.940  -4.192 -21.418  1.00  0.00    -0.340 OA
ATOM     19  H4  UNL     1       2.624  -3.333 -21.161  1.00  0.00     0.220 HD
ENDBRANCH  15  18
ENDBRANCH  10  11
ENDBRANCH   9  10
ENDBRANCH   5   9
BRANCH   1  20
HETATM   20  N1  UNL     1       5.759 -13.922 -25.182  1.00  0.00    -0.384 N 
BRANCH  20  21
HETATM   21  C2  UNL     1       4.938 -15.022 -24.871  1.00  0.00     0.054 C 
HETATM   22  C1  UNL     1       4.427 -15.841 -26.017  1.00  0.00     0.054 C 
ENDBRANCH  20  21
BRANCH  20  23
HETATM   23  C3  UNL     1       7.136 -14.032 -25.293  1.00  0.00     0.084 C 
HETATM   24  C4  UNL     1       7.732 -15.217 -24.540  1.00  0.00     0.025 C 
HETATM   25  C5  UNL     1       9.213 -14.946 -24.411  1.00  0.00     0.002 C 
HETATM   26  C6  UNL     1       9.960 -15.600 -25.540  1.00  0.00     0.000 C 
HETATM   27  C7  UNL     1      10.153 -14.671 -26.713  1.00  0.00     0.000 C 
HETATM   28  C8  UNL     1       9.090 -13.625 -26.807  1.00  0.00     0.002 C 
HETATM   29  C9  UNL     1       7.688 -14.201 -26.724  1.00  0.00     0.025 C 
ENDBRANCH  20  23
ENDBRANCH   1  20
TORSDOF 8
ENDMDL
