MODEL 1
REMARK VINA RESULT: -8.446530818      0.000      0.000
REMARK  13 active torsions:
REMARK  status: ('A' for Active; 'I' for Inactive)
REMARK    1  A    between atoms: C2_2  and  C3_3 
REMARK    2  A    between atoms: C3_3  and  C4_4 
REMARK    3  A    between atoms: C3_3  and  N1_6 
REMARK    4  A    between atoms: C7_9  and  C8_10 
REMARK    5  A    between atoms: C8_10  and  C9_11 
REMARK    6  A    between atoms: C15_21  and  O2_22 
REMARK    7  A    between atoms: C16_24  and  C17_25 
REMARK    8  A    between atoms: C17_25  and  C18_26 
REMARK    9  A    between atoms: C20_33  and  C21_34 
REMARK   10  A    between atoms: C21_34  and  C22_35 
REMARK   11  A    between atoms: C26_42  and  C27_43 
REMARK   12  A    between atoms: C27_43  and  C28_44 
REMARK   13  A    between atoms: C32_51  and  C33_52 
ROOT
HETATM    1  N1  UNL     1      13.463  20.102  14.477  1.00  0.00    -0.329 N 
HETATM    2  C6  UNL     1      12.531  20.076  15.531  1.00  0.00     0.244 C 
HETATM    3  O1  UNL     1      11.326  19.946  15.072  1.00  0.00    -0.271 OA
HETATM    4  C7  UNL     1      12.645  20.163  16.981  1.00  0.00     0.181 C 
HETATM    5  N3  UNL     1      13.783  19.487  17.523  1.00  0.00    -0.359 N 
ATOM      6  H3  UNL     1      14.463  19.235  16.806  1.00  0.00     0.162 HD
HETATM    7  C15 UNL     1      14.182  19.094  18.788  1.00  0.00     0.136 C 
HETATM    8  C16 UNL     1      14.137  19.744  20.083  1.00  0.00     0.167 C 
HETATM    9  N5  UNL     1      14.252  21.160  20.175  1.00  0.00    -0.347 N 
ATOM     10  H5  UNL     1      13.751  21.540  20.978  1.00  0.00     0.163 HD
HETATM   11  C19 UNL     1      14.878  22.137  19.438  1.00  0.00     0.241 C 
HETATM   12  O4  UNL     1      14.109  23.039  18.936  1.00  0.00    -0.271 OA
HETATM   13  C20 UNL     1      16.334  22.325  19.123  1.00  0.00     0.177 C 
HETATM   14  N6  UNL     1      16.930  21.223  18.476  1.00  0.00    -0.346 N 
ATOM     15  H6  UNL     1      17.275  20.501  19.108  1.00  0.00     0.163 HD
HETATM   16  C25 UNL     1      17.132  20.945  17.121  1.00  0.00     0.241 C 
HETATM   17  O5  UNL     1      17.330  19.693  16.853  1.00  0.00    -0.271 OA
HETATM   18  C26 UNL     1      17.154  21.856  15.959  1.00  0.00     0.177 C 
HETATM   19  N7  UNL     1      15.932  22.534  15.717  1.00  0.00    -0.346 N 
ATOM     20  H7  UNL     1      15.891  23.472  16.114  1.00  0.00     0.163 HD
HETATM   21  C31 UNL     1      14.771  22.153  15.031  1.00  0.00     0.241 C 
HETATM   22  O6  UNL     1      13.739  22.927  15.181  1.00  0.00    -0.271 OA
HETATM   23  C32 UNL     1      14.515  21.021  14.159  1.00  0.00     0.183 C 
ENDROOT
BRANCH   4  24
HETATM   24  C8  UNL     1      11.402  19.820  17.761  1.00  0.00     0.092 C 
BRANCH  24  25
HETATM   25  C9  UNL     1      10.922  18.437  17.651  1.00  0.00     0.017 A 
HETATM   26  N2  UNL     1      10.422  17.836  16.534  1.00  0.00    -0.363 N 
HETATM   27  C10 UNL     1      10.218  16.550  16.771  1.00  0.00     0.006 A 
ATOM     28  H2  UNL     1      10.234  18.306  15.649  1.00  0.00     0.165 HD
HETATM   29  C11 UNL     1       9.697  15.552  15.803  1.00  0.00     0.068 C 
HETATM   30  C12 UNL     1      10.582  16.261  18.074  1.00  0.00     0.033 A 
HETATM   31  C13 UNL     1      11.016  17.462  18.601  1.00  0.00    -0.037 A 
HETATM   32  C14 UNL     1      11.415  17.562  20.054  1.00  0.00     0.050 C 
ENDBRANCH  24  25
ENDBRANCH   4  24
BRANCH   1  33
HETATM   33  C3  UNL     1      13.343  18.995  13.491  1.00  0.00     0.110 C 
BRANCH  33  34
HETATM   34  C2  UNL     1      14.494  18.790  12.644  1.00  0.00    -0.012 C 
HETATM   35  C1  UNL     1      14.859  17.760  11.929  1.00  0.00     0.009 C 
ENDBRANCH  33  34
BRANCH  33  36
HETATM   36  C4  UNL     1      12.160  19.338  12.531  1.00  0.00     0.025 C 
HETATM   37  C5  UNL     1      11.370  18.062  12.292  1.00  0.00     0.007 C 
ENDBRANCH  33  36
ENDBRANCH   1  33
BRANCH   7  38
HETATM   38  O2  UNL     1      14.708  17.898  18.817  1.00  0.00    -0.348 OA
ATOM     39  H2  UNL     1      14.144  17.250  19.221  1.00  0.00     0.219 HD
ENDBRANCH   7  38
BRANCH  23  40
HETATM   40  C33 UNL     1      14.244  21.681  12.777  1.00  0.00     0.009 C 
HETATM   41  C34 UNL     1      13.080  22.620  12.812  1.00  0.00     0.012 C 
HETATM   42  C35 UNL     1      15.437  22.552  12.425  1.00  0.00     0.012 C 
ENDBRANCH  23  40
BRANCH   8  43
HETATM   43  C17 UNL     1      15.016  19.155  21.163  1.00  0.00     0.133 C 
BRANCH  43  44
HETATM   44  C18 UNL     1      14.284  18.729  22.372  1.00  0.00     0.233 C 
HETATM   45  N4  UNL     1      13.755  17.401  22.488  1.00  0.00    -0.062 NA
HETATM   46  O3  UNL     1      14.091  19.495  23.346  1.00  0.00    -0.277 OA
ENDBRANCH  43  44
ENDBRANCH   8  43
BRANCH  18  47
HETATM   47  C27 UNL     1      18.282  22.847  16.124  1.00  0.00     0.038 C 
BRANCH  47  48
HETATM   48  C28 UNL     1      17.911  24.285  15.953  1.00  0.00    -0.020 C 
HETATM   49  C29 UNL     1      18.547  25.112  17.092  1.00  0.00     0.009 C 
HETATM   50  C30 UNL     1      18.578  24.849  14.681  1.00  0.00     0.009 C 
ENDBRANCH  47  48
ENDBRANCH  18  47
BRANCH  13  51
HETATM   51  C21 UNL     1      17.057  22.846  20.338  1.00  0.00     0.038 C 
BRANCH  51  52
HETATM   52  C22 UNL     1      18.476  23.152  20.163  1.00  0.00    -0.020 C 
HETATM   53  C23 UNL     1      19.467  22.033  20.278  1.00  0.00     0.009 C 
HETATM   54  C24 UNL     1      18.895  24.217  21.201  1.00  0.00     0.009 C 
ENDBRANCH  51  52
ENDBRANCH  13  51
TORSDOF 13
ENDMDL
MODEL 2
REMARK VINA RESULT: -7.258800497      1.050      1.358
REMARK  13 active torsions:
REMARK  status: ('A' for Active; 'I' for Inactive)
REMARK    1  A    between atoms: C2_2  and  C3_3 
REMARK    2  A    between atoms: C3_3  and  C4_4 
REMARK    3  A    between atoms: C3_3  and  N1_6 
REMARK    4  A    between atoms: C7_9  and  C8_10 
REMARK    5  A    between atoms: C8_10  and  C9_11 
REMARK    6  A    between atoms: C15_21  and  O2_22 
REMARK    7  A    between atoms: C16_24  and  C17_25 
REMARK    8  A    between atoms: C17_25  and  C18_26 
REMARK    9  A    between atoms: C20_33  and  C21_34 
REMARK   10  A    between atoms: C21_34  and  C22_35 
REMARK   11  A    between atoms: C26_42  and  C27_43 
REMARK   12  A    between atoms: C27_43  and  C28_44 
REMARK   13  A    between atoms: C32_51  and  C33_52 
ROOT
HETATM    1  N1  UNL     1      14.379  20.663  14.122  1.00  0.00    -0.329 N 
HETATM    2  C6  UNL     1      13.340  20.628  15.072  1.00  0.00     0.244 C 
HETATM    3  O1  UNL     1      12.189  20.515  14.486  1.00  0.00    -0.271 OA
HETATM    4  C7  UNL     1      13.300  20.691  16.527  1.00  0.00     0.181 C 
HETATM    5  N3  UNL     1      14.370  19.998  17.175  1.00  0.00    -0.359 N 
ATOM      6  H3  UNL     1      15.121  19.752  16.530  1.00  0.00     0.162 HD
HETATM    7  C15 UNL     1      14.631  19.583  18.469  1.00  0.00     0.136 C 
HETATM    8  C16 UNL     1      14.453  20.213  19.762  1.00  0.00     0.167 C 
HETATM    9  N5  UNL     1      14.566  21.626  19.889  1.00  0.00    -0.347 N 
ATOM     10  H5  UNL     1      13.985  21.998  20.641  1.00  0.00     0.163 HD
HETATM   11  C19 UNL     1      15.273  22.609  19.238  1.00  0.00     0.241 C 
HETATM   12  O4  UNL     1      14.567  23.525  18.672  1.00  0.00    -0.271 OA
HETATM   13  C20 UNL     1      16.755  22.791  19.082  1.00  0.00     0.177 C 
HETATM   14  N6  UNL     1      17.410  21.694  18.484  1.00  0.00    -0.346 N 
ATOM     15  H6  UNL     1      17.681  20.960  19.137  1.00  0.00     0.163 HD
HETATM   16  C25 UNL     1      17.752  21.436  17.153  1.00  0.00     0.241 C 
HETATM   17  O5  UNL     1      17.969  20.187  16.888  1.00  0.00    -0.271 OA
HETATM   18  C26 UNL     1      17.902  22.364  16.015  1.00  0.00     0.177 C 
HETATM   19  N7  UNL     1      16.717  23.056  15.656  1.00  0.00    -0.346 N 
ATOM     20  H7  UNL     1      16.640  23.988  16.062  1.00  0.00     0.163 HD
HETATM   21  C31 UNL     1      15.633  22.695  14.846  1.00  0.00     0.241 C 
HETATM   22  O6  UNL     1      14.596  23.475  14.898  1.00  0.00    -0.271 OA
HETATM   23  C32 UNL     1      15.463  21.578  13.932  1.00  0.00     0.183 C 
ENDROOT
BRANCH   4  24
HETATM   24  C8  UNL     1      11.979  20.347  17.166  1.00  0.00     0.092 C 
BRANCH  24  25
HETATM   25  C9  UNL     1      11.496  18.974  16.967  1.00  0.00     0.017 A 
HETATM   26  N2  UNL     1      11.968  17.849  17.574  1.00  0.00    -0.363 N 
HETATM   27  C10 UNL     1      11.206  16.815  17.256  1.00  0.00     0.006 A 
ATOM     28  H2  UNL     1      12.786  17.810  18.183  1.00  0.00     0.165 HD
HETATM   29  C11 UNL     1      11.383  15.418  17.729  1.00  0.00     0.068 C 
HETATM   30  C12 UNL     1      10.194  17.235  16.414  1.00  0.00     0.033 A 
HETATM   31  C13 UNL     1      10.402  18.591  16.248  1.00  0.00    -0.037 A 
HETATM   32  C14 UNL     1       9.533  19.390  15.306  1.00  0.00     0.050 C 
ENDBRANCH  24  25
ENDBRANCH   4  24
BRANCH   1  33
HETATM   33  C3  UNL     1      14.356  19.573  13.112  1.00  0.00     0.110 C 
BRANCH  33  34
HETATM   34  C2  UNL     1      15.272  19.732  12.007  1.00  0.00    -0.012 C 
HETATM   35  C1  UNL     1      16.024  18.862  11.386  1.00  0.00     0.009 C 
ENDBRANCH  33  34
BRANCH  33  36
HETATM   36  C4  UNL     1      12.927  19.535  12.483  1.00  0.00     0.025 C 
HETATM   37  C5  UNL     1      12.478  18.084  12.435  1.00  0.00     0.007 C 
ENDBRANCH  33  36
ENDBRANCH   1  33
BRANCH   7  38
HETATM   38  O2  UNL     1      15.143  18.383  18.533  1.00  0.00    -0.348 OA
ATOM     39  H2  UNL     1      16.053  18.347  18.265  1.00  0.00     0.219 HD
ENDBRANCH   7  38
BRANCH  23  40
HETATM   40  C33 UNL     1      15.345  22.262  12.541  1.00  0.00     0.009 C 
HETATM   41  C34 UNL     1      13.972  22.799  12.285  1.00  0.00     0.012 C 
HETATM   42  C35 UNL     1      16.249  23.481  12.532  1.00  0.00     0.012 C 
ENDBRANCH  23  40
BRANCH   8  43
HETATM   43  C17 UNL     1      15.209  19.600  20.919  1.00  0.00     0.133 C 
BRANCH  43  44
HETATM   44  C18 UNL     1      14.353  18.892  21.893  1.00  0.00     0.233 C 
HETATM   45  N4  UNL     1      13.663  17.688  21.534  1.00  0.00    -0.062 NA
HETATM   46  O3  UNL     1      14.189  19.303  23.067  1.00  0.00    -0.277 OA
ENDBRANCH  43  44
ENDBRANCH   8  43
BRANCH  18  47
HETATM   47  C27 UNL     1      19.012  23.344  16.315  1.00  0.00     0.038 C 
BRANCH  47  48
HETATM   48  C28 UNL     1      18.786  24.744  15.843  1.00  0.00    -0.020 C 
HETATM   49  C29 UNL     1      19.323  25.730  16.904  1.00  0.00     0.009 C 
HETATM   50  C30 UNL     1      19.666  25.028  14.607  1.00  0.00     0.009 C 
ENDBRANCH  47  48
ENDBRANCH  18  47
BRANCH  13  51
HETATM   51  C21 UNL     1      17.348  23.287  20.375  1.00  0.00     0.038 C 
BRANCH  51  52
HETATM   52  C22 UNL     1      18.803  23.432  20.404  1.00  0.00    -0.020 C 
HETATM   53  C23 UNL     1      19.640  22.200  20.571  1.00  0.00     0.009 C 
HETATM   54  C24 UNL     1      19.193  24.386  21.555  1.00  0.00     0.009 C 
ENDBRANCH  51  52
ENDBRANCH  13  51
TORSDOF 13
ENDMDL
MODEL 3
REMARK VINA RESULT: -6.881068355      3.892     10.614
REMARK  13 active torsions:
REMARK  status: ('A' for Active; 'I' for Inactive)
REMARK    1  A    between atoms: C2_2  and  C3_3 
REMARK    2  A    between atoms: C3_3  and  C4_4 
REMARK    3  A    between atoms: C3_3  and  N1_6 
REMARK    4  A    between atoms: C7_9  and  C8_10 
REMARK    5  A    between atoms: C8_10  and  C9_11 
REMARK    6  A    between atoms: C15_21  and  O2_22 
REMARK    7  A    between atoms: C16_24  and  C17_25 
REMARK    8  A    between atoms: C17_25  and  C18_26 
REMARK    9  A    between atoms: C20_33  and  C21_34 
REMARK   10  A    between atoms: C21_34  and  C22_35 
REMARK   11  A    between atoms: C26_42  and  C27_43 
REMARK   12  A    between atoms: C27_43  and  C28_44 
REMARK   13  A    between atoms: C32_51  and  C33_52 
ROOT
HETATM    1  N1  UNL     1      21.083  24.217  19.942  1.00  0.00    -0.329 N 
HETATM    2  C6  UNL     1      20.908  25.419  19.229  1.00  0.00     0.244 C 
HETATM    3  O1  UNL     1      21.595  26.375  19.772  1.00  0.00    -0.271 OA
HETATM    4  C7  UNL     1      20.139  25.790  18.049  1.00  0.00     0.181 C 
HETATM    5  N3  UNL     1      20.107  24.787  17.029  1.00  0.00    -0.359 N 
ATOM      6  H3  UNL     1      20.438  23.882  17.363  1.00  0.00     0.162 HD
HETATM    7  C15 UNL     1      19.736  24.752  15.697  1.00  0.00     0.136 C 
HETATM    8  C16 UNL     1      18.615  25.316  14.971  1.00  0.00     0.167 C 
HETATM    9  N5  UNL     1      17.355  25.475  15.613  1.00  0.00    -0.347 N 
ATOM     10  H5  UNL     1      16.825  26.262  15.240  1.00  0.00     0.163 HD
HETATM   11  C19 UNL     1      16.685  24.819  16.618  1.00  0.00     0.241 C 
HETATM   12  O4  UNL     1      16.396  25.527  17.653  1.00  0.00    -0.271 OA
HETATM   13  C20 UNL     1      16.226  23.392  16.701  1.00  0.00     0.177 C 
HETATM   14  N6  UNL     1      17.260  22.445  16.549  1.00  0.00    -0.346 N 
ATOM     15  H6  UNL     1      17.469  22.204  15.580  1.00  0.00     0.163 HD
HETATM   16  C25 UNL     1      18.049  21.778  17.491  1.00  0.00     0.241 C 
HETATM   17  O5  UNL     1      19.156  21.300  17.020  1.00  0.00    -0.271 OA
HETATM   18  C26 UNL     1      17.812  21.540  18.928  1.00  0.00     0.177 C 
HETATM   19  N7  UNL     1      17.730  22.716  19.716  1.00  0.00    -0.346 N 
ATOM     20  H7  UNL     1      16.777  23.038  19.885  1.00  0.00     0.163 HD
HETATM   21  C31 UNL     1      18.716  23.518  20.307  1.00  0.00     0.241 C 
HETATM   22  O6  UNL     1      18.317  24.657  20.784  1.00  0.00    -0.271 OA
HETATM   23  C32 UNL     1      20.139  23.289  20.487  1.00  0.00     0.183 C 
ENDROOT
BRANCH   4  24
HETATM   24  C8  UNL     1      20.449  27.141  17.458  1.00  0.00     0.092 C 
BRANCH  24  25
HETATM   25  C9  UNL     1      21.798  27.318  16.906  1.00  0.00     0.017 A 
HETATM   26  N2  UNL     1      22.959  27.424  17.612  1.00  0.00    -0.363 N 
HETATM   27  C10 UNL     1      23.989  27.437  16.781  1.00  0.00     0.006 A 
ATOM     28  H2  UNL     1      23.024  27.485  18.627  1.00  0.00     0.165 HD
HETATM   29  C11 UNL     1      25.422  27.525  17.162  1.00  0.00     0.068 C 
HETATM   30  C12 UNL     1      23.529  27.339  15.481  1.00  0.00     0.033 A 
HETATM   31  C13 UNL     1      22.153  27.269  15.589  1.00  0.00    -0.037 A 
HETATM   32  C14 UNL     1      21.286  27.244  14.352  1.00  0.00     0.050 C 
ENDBRANCH  24  25
ENDBRANCH   4  24
BRANCH   1  33
HETATM   33  C3  UNL     1      22.494  23.830  20.204  1.00  0.00     0.110 C 
BRANCH  33  34
HETATM   34  C2  UNL     1      23.483  24.503  19.393  1.00  0.00    -0.012 C 
HETATM   35  C1  UNL     1      24.594  25.104  19.723  1.00  0.00     0.009 C 
ENDBRANCH  33  34
BRANCH  33  36
HETATM   36  C4  UNL     1      22.639  22.309  19.882  1.00  0.00     0.025 C 
HETATM   37  C5  UNL     1      24.121  21.973  19.880  1.00  0.00     0.007 C 
ENDBRANCH  33  36
ENDBRANCH   1  33
BRANCH   7  38
HETATM   38  O2  UNL     1      20.561  24.071  14.947  1.00  0.00    -0.348 OA
ATOM     39  H2  UNL     1      20.230  23.913  14.071  1.00  0.00     0.219 HD
ENDBRANCH   7  38
BRANCH  23  40
HETATM   40  C33 UNL     1      20.301  23.211  22.032  1.00  0.00     0.009 C 
HETATM   41  C34 UNL     1      19.180  23.885  22.758  1.00  0.00     0.012 C 
HETATM   42  C35 UNL     1      20.214  21.753  22.446  1.00  0.00     0.012 C 
ENDBRANCH  23  40
BRANCH   8  43
HETATM   43  C17 UNL     1      18.346  24.741  13.598  1.00  0.00     0.133 C 
BRANCH  43  44
HETATM   44  C18 UNL     1      17.547  25.621  12.721  1.00  0.00     0.233 C 
HETATM   45  N4  UNL     1      16.877  25.102  11.564  1.00  0.00    -0.062 NA
HETATM   46  O3  UNL     1      17.414  26.849  12.941  1.00  0.00    -0.277 OA
ENDBRANCH  43  44
ENDBRANCH   8  43
BRANCH  18  47
HETATM   47  C27 UNL     1      16.564  20.706  19.096  1.00  0.00     0.038 C 
BRANCH  47  48
HETATM   48  C28 UNL     1      15.491  21.309  19.945  1.00  0.00    -0.020 C 
HETATM   49  C29 UNL     1      14.257  21.609  19.066  1.00  0.00     0.009 C 
HETATM   50  C30 UNL     1      14.971  20.262  20.952  1.00  0.00     0.009 C 
ENDBRANCH  47  48
ENDBRANCH  18  47
BRANCH  13  51
HETATM   51  C21 UNL     1      15.015  23.192  15.828  1.00  0.00     0.038 C 
BRANCH  51  52
HETATM   52  C22 UNL     1      15.077  22.078  14.882  1.00  0.00    -0.020 C 
HETATM   53  C23 UNL     1      15.291  22.384  13.431  1.00  0.00     0.009 C 
HETATM   54  C24 UNL     1      13.766  21.266  14.971  1.00  0.00     0.009 C 
ENDBRANCH  51  52
ENDBRANCH  13  51
TORSDOF 13
ENDMDL
MODEL 4
REMARK VINA RESULT: -6.651792012      2.038      6.234
REMARK  13 active torsions:
REMARK  status: ('A' for Active; 'I' for Inactive)
REMARK    1  A    between atoms: C2_2  and  C3_3 
REMARK    2  A    between atoms: C3_3  and  C4_4 
REMARK    3  A    between atoms: C3_3  and  N1_6 
REMARK    4  A    between atoms: C7_9  and  C8_10 
REMARK    5  A    between atoms: C8_10  and  C9_11 
REMARK    6  A    between atoms: C15_21  and  O2_22 
REMARK    7  A    between atoms: C16_24  and  C17_25 
REMARK    8  A    between atoms: C17_25  and  C18_26 
REMARK    9  A    between atoms: C20_33  and  C21_34 
REMARK   10  A    between atoms: C21_34  and  C22_35 
REMARK   11  A    between atoms: C26_42  and  C27_43 
REMARK   12  A    between atoms: C27_43  and  C28_44 
REMARK   13  A    between atoms: C32_51  and  C33_52 
ROOT
HETATM    1  N1  UNL     1      13.615  20.219  18.150  1.00  0.00    -0.329 N 
HETATM    2  C6  UNL     1      13.996  20.020  16.810  1.00  0.00     0.244 C 
HETATM    3  O1  UNL     1      13.422  18.963  16.325  1.00  0.00    -0.271 OA
HETATM    4  C7  UNL     1      14.874  20.734  15.892  1.00  0.00     0.181 C 
HETATM    5  N3  UNL     1      14.819  22.158  16.016  1.00  0.00    -0.359 N 
ATOM      6  H3  UNL     1      14.346  22.456  16.870  1.00  0.00     0.162 HD
HETATM    7  C15 UNL     1      15.254  23.228  15.255  1.00  0.00     0.136 C 
HETATM    8  C16 UNL     1      16.482  23.487  14.528  1.00  0.00     0.167 C 
HETATM    9  N5  UNL     1      17.714  22.948  14.994  1.00  0.00    -0.347 N 
ATOM     10  H5  UNL     1      18.370  22.764  14.235  1.00  0.00     0.163 HD
HETATM   11  C19 UNL     1      18.230  22.617  16.225  1.00  0.00     0.241 C 
HETATM   12  O4  UNL     1      18.558  21.383  16.381  1.00  0.00    -0.271 OA
HETATM   13  C20 UNL     1      18.477  23.477  17.431  1.00  0.00     0.177 C 
HETATM   14  N6  UNL     1      17.330  24.145  17.907  1.00  0.00    -0.346 N 
ATOM     15  H6  UNL     1      17.142  25.036  17.449  1.00  0.00     0.163 HD
HETATM   16  C25 UNL     1      16.404  23.801  18.897  1.00  0.00     0.241 C 
HETATM   17  O5  UNL     1      15.268  24.415  18.804  1.00  0.00    -0.271 OA
HETATM   18  C26 UNL     1      16.526  22.851  20.020  1.00  0.00     0.177 C 
HETATM   19  N7  UNL     1      16.729  21.501  19.633  1.00  0.00    -0.346 N 
ATOM     20  H7  UNL     1      17.707  21.212  19.632  1.00  0.00     0.163 HD
HETATM   21  C31 UNL     1      15.835  20.491  19.254  1.00  0.00     0.241 C 
HETATM   22  O6  UNL     1      16.365  19.421  18.745  1.00  0.00    -0.271 OA
HETATM   23  C32 UNL     1      14.386  20.429  19.338  1.00  0.00     0.183 C 
ENDROOT
BRANCH   4  24
HETATM   24  C8  UNL     1      14.790  20.323  14.445  1.00  0.00     0.092 C 
BRANCH  24  25
HETATM   25  C9  UNL     1      13.474  19.881  13.966  1.00  0.00     0.017 A 
HETATM   26  N2  UNL     1      13.070  18.595  13.765  1.00  0.00    -0.363 N 
HETATM   27  C10 UNL     1      11.782  18.573  13.462  1.00  0.00     0.006 A 
ATOM     28  H2  UNL     1      13.670  17.774  13.838  1.00  0.00     0.165 HD
HETATM   29  C11 UNL     1      10.968  17.361  13.187  1.00  0.00     0.068 C 
HETATM   30  C12 UNL     1      11.292  19.865  13.452  1.00  0.00     0.033 A 
HETATM   31  C13 UNL     1      12.374  20.664  13.769  1.00  0.00    -0.037 A 
HETATM   32  C14 UNL     1      12.243  22.169  13.766  1.00  0.00     0.050 C 
ENDBRANCH  24  25
ENDBRANCH   4  24
BRANCH   1  33
HETATM   33  C3  UNL     1      12.150  20.195  18.407  1.00  0.00     0.110 C 
BRANCH  33  34
HETATM   34  C2  UNL     1      11.554  18.881  18.475  1.00  0.00    -0.012 C 
HETATM   35  C1  UNL     1      11.203  18.152  19.500  1.00  0.00     0.009 C 
ENDBRANCH  33  34
BRANCH  33  36
HETATM   36  C4  UNL     1      11.446  20.925  17.220  1.00  0.00     0.025 C 
HETATM   37  C5  UNL     1      10.273  20.067  16.777  1.00  0.00     0.007 C 
ENDBRANCH  33  36
ENDBRANCH   1  33
BRANCH   7  38
HETATM   38  O2  UNL     1      14.384  24.199  15.182  1.00  0.00    -0.348 OA
ATOM     39  H2  UNL     1      14.607  24.856  14.533  1.00  0.00     0.219 HD
ENDBRANCH   7  38
BRANCH  23  40
HETATM   40  C33 UNL     1      14.130  19.276  20.349  1.00  0.00     0.009 C 
HETATM   41  C34 UNL     1      14.825  18.010  19.958  1.00  0.00     0.012 C 
HETATM   42  C35 UNL     1      14.749  19.665  21.680  1.00  0.00     0.012 C 
ENDBRANCH  23  40
BRANCH   8  43
HETATM   43  C17 UNL     1      16.742  24.924  14.138  1.00  0.00     0.133 C 
BRANCH  43  44
HETATM   44  C18 UNL     1      17.670  25.082  13.000  1.00  0.00     0.233 C 
HETATM   45  N4  UNL     1      19.070  25.304  13.211  1.00  0.00    -0.062 NA
HETATM   46  O3  UNL     1      17.285  25.031  11.807  1.00  0.00    -0.277 OA
ENDBRANCH  43  44
ENDBRANCH   8  43
BRANCH  18  47
HETATM   47  C27 UNL     1      17.633  23.307  20.941  1.00  0.00     0.038 C 
BRANCH  47  48
HETATM   48  C28 UNL     1      19.019  23.203  20.390  1.00  0.00    -0.020 C 
HETATM   49  C29 UNL     1      19.949  24.154  21.175  1.00  0.00     0.009 C 
HETATM   50  C30 UNL     1      19.596  21.804  20.688  1.00  0.00     0.009 C 
ENDBRANCH  47  48
ENDBRANCH  18  47
BRANCH  13  51
HETATM   51  C21 UNL     1      19.694  24.336  17.206  1.00  0.00     0.038 C 
BRANCH  51  52
HETATM   52  C22 UNL     1      19.487  25.782  17.283  1.00  0.00    -0.020 C 
HETATM   53  C23 UNL     1      19.730  26.605  16.054  1.00  0.00     0.009 C 
HETATM   54  C24 UNL     1      20.396  26.364  18.388  1.00  0.00     0.009 C 
ENDBRANCH  51  52
ENDBRANCH  13  51
TORSDOF 13
ENDMDL
MODEL 5
REMARK VINA RESULT: -6.556243332      2.535      9.189
REMARK  13 active torsions:
REMARK  status: ('A' for Active; 'I' for Inactive)
REMARK    1  A    between atoms: C2_2  and  C3_3 
REMARK    2  A    between atoms: C3_3  and  C4_4 
REMARK    3  A    between atoms: C3_3  and  N1_6 
REMARK    4  A    between atoms: C7_9  and  C8_10 
REMARK    5  A    between atoms: C8_10  and  C9_11 
REMARK    6  A    between atoms: C15_21  and  O2_22 
REMARK    7  A    between atoms: C16_24  and  C17_25 
REMARK    8  A    between atoms: C17_25  and  C18_26 
REMARK    9  A    between atoms: C20_33  and  C21_34 
REMARK   10  A    between atoms: C21_34  and  C22_35 
REMARK   11  A    between atoms: C26_42  and  C27_43 
REMARK   12  A    between atoms: C27_43  and  C28_44 
REMARK   13  A    between atoms: C32_51  and  C33_52 
ROOT
HETATM    1  N1  UNL     1      19.181  24.250  19.043  1.00  0.00    -0.329 N 
HETATM    2  C6  UNL     1      18.617  25.019  18.007  1.00  0.00     0.244 C 
HETATM    3  O1  UNL     1      19.212  26.167  17.916  1.00  0.00    -0.271 OA
HETATM    4  C7  UNL     1      17.539  24.793  17.054  1.00  0.00     0.181 C 
HETATM    5  N3  UNL     1      17.468  23.454  16.555  1.00  0.00    -0.359 N 
ATOM      6  H3  UNL     1      18.036  22.805  17.100  1.00  0.00     0.162 HD
HETATM    7  C15 UNL     1      16.812  22.829  15.509  1.00  0.00     0.136 C 
HETATM    8  C16 UNL     1      15.467  22.940  14.982  1.00  0.00     0.167 C 
HETATM    9  N5  UNL     1      14.383  23.253  15.850  1.00  0.00    -0.347 N 
ATOM     10  H5  UNL     1      13.638  23.763  15.375  1.00  0.00     0.163 HD
HETATM   11  C19 UNL     1      14.103  23.032  17.177  1.00  0.00     0.241 C 
HETATM   12  O4  UNL     1      13.930  24.085  17.896  1.00  0.00    -0.271 OA
HETATM   13  C20 UNL     1      13.962  21.741  17.932  1.00  0.00     0.177 C 
HETATM   14  N6  UNL     1      15.096  20.906  17.862  1.00  0.00    -0.346 N 
ATOM     15  H6  UNL     1      15.118  20.296  17.044  1.00  0.00     0.163 HD
HETATM   16  C25 UNL     1      16.195  20.766  18.714  1.00  0.00     0.241 C 
HETATM   17  O5  UNL     1      17.235  20.225  18.163  1.00  0.00    -0.271 OA
HETATM   18  C26 UNL     1      16.348  21.139  20.134  1.00  0.00     0.177 C 
HETATM   19  N7  UNL     1      16.224  22.528  20.396  1.00  0.00    -0.346 N 
ATOM     20  H7  UNL     1      15.292  22.812  20.697  1.00  0.00     0.163 HD
HETATM   21  C31 UNL     1      17.145  23.581  20.319  1.00  0.00     0.241 C 
HETATM   22  O6  UNL     1      16.654  24.778  20.416  1.00  0.00    -0.271 OA
HETATM   23  C32 UNL     1      18.588  23.566  20.152  1.00  0.00     0.183 C 
ENDROOT
BRANCH   4  24
HETATM   24  C8  UNL     1      17.435  25.787  15.927  1.00  0.00     0.092 C 
BRANCH  24  25
HETATM   25  C9  UNL     1      18.625  25.939  15.080  1.00  0.00     0.017 A 
HETATM   26  N2  UNL     1      19.853  26.381  15.473  1.00  0.00    -0.363 N 
HETATM   27  C10 UNL     1      20.713  26.258  14.475  1.00  0.00     0.006 A 
ATOM     28  H2  UNL     1      20.076  26.750  16.397  1.00  0.00     0.165 HD
HETATM   29  C11 UNL     1      22.155  26.615  14.511  1.00  0.00     0.068 C 
HETATM   30  C12 UNL     1      20.066  25.725  13.375  1.00  0.00     0.033 A 
HETATM   31  C13 UNL     1      18.759  25.538  13.782  1.00  0.00    -0.037 A 
HETATM   32  C14 UNL     1      17.715  25.048  12.808  1.00  0.00     0.050 C 
ENDBRANCH  24  25
ENDBRANCH   4  24
BRANCH   1  33
HETATM   33  C3  UNL     1      20.663  24.126  19.011  1.00  0.00     0.110 C 
BRANCH  33  34
HETATM   34  C2  UNL     1      21.202  22.958  19.667  1.00  0.00    -0.012 C 
HETATM   35  C1  UNL     1      22.364  22.750  20.227  1.00  0.00     0.009 C 
ENDBRANCH  33  34
BRANCH  33  36
HETATM   36  C4  UNL     1      21.260  25.356  19.765  1.00  0.00     0.025 C 
HETATM   37  C5  UNL     1      22.299  25.997  18.860  1.00  0.00     0.007 C 
ENDBRANCH  33  36
ENDBRANCH   1  33
BRANCH   7  38
HETATM   38  O2  UNL     1      17.558  21.965  14.874  1.00  0.00    -0.348 OA
ATOM     39  H2  UNL     1      17.441  21.988  13.932  1.00  0.00     0.219 HD
ENDBRANCH   7  38
BRANCH  23  40
HETATM   40  C33 UNL     1      19.115  24.162  21.488  1.00  0.00     0.009 C 
HETATM   41  C34 UNL     1      18.011  24.673  22.359  1.00  0.00     0.012 C 
HETATM   42  C35 UNL     1      19.755  23.042  22.288  1.00  0.00     0.012 C 
ENDBRANCH  23  40
BRANCH   8  43
HETATM   43  C17 UNL     1      15.004  21.819  14.078  1.00  0.00     0.133 C 
BRANCH  43  44
HETATM   44  C18 UNL     1      14.066  22.245  13.020  1.00  0.00     0.233 C 
HETATM   45  N4  UNL     1      14.525  22.515  11.688  1.00  0.00    -0.062 NA
HETATM   46  O3  UNL     1      12.838  22.389  13.228  1.00  0.00    -0.277 OA
ENDBRANCH  43  44
ENDBRANCH   8  43
BRANCH  18  47
HETATM   47  C27 UNL     1      15.358  20.357  20.964  1.00  0.00     0.038 C 
BRANCH  47  48
HETATM   48  C28 UNL     1      14.951  19.030  20.408  1.00  0.00    -0.020 C 
HETATM   49  C29 UNL     1      15.486  17.909  21.325  1.00  0.00     0.009 C 
HETATM   50  C30 UNL     1      13.419  18.873  20.501  1.00  0.00     0.009 C 
ENDBRANCH  47  48
ENDBRANCH  18  47
BRANCH  13  51
HETATM   51  C21 UNL     1      12.644  21.093  17.595  1.00  0.00     0.038 C 
BRANCH  51  52
HETATM   52  C22 UNL     1      12.715  19.791  16.934  1.00  0.00    -0.020 C 
HETATM   53  C23 UNL     1      12.580  19.739  15.442  1.00  0.00     0.009 C 
HETATM   54  C24 UNL     1      11.612  18.872  17.506  1.00  0.00     0.009 C 
ENDBRANCH  51  52
ENDBRANCH  13  51
TORSDOF 13
ENDMDL
