MODEL 1
REMARK VINA RESULT: -6.758685312      0.000      0.000
REMARK  3 active torsions:
REMARK  status: ('A' for Active; 'I' for Inactive)
REMARK    1  A    between atoms: N1_2  and  C2_4 
REMARK    2  A    between atoms: C4_9  and  N4_10 
REMARK    3  A    between atoms: N5_14  and  N6_16 
ROOT
HETATM    1  C2  UNL     1      29.238  65.474  11.146  1.00  0.00     0.680 A 
HETATM    2  N2  UNL     1      28.207  65.515  10.256  1.00  0.00    -0.176 N 
ATOM      3  H2  UNL     1      27.239  65.437  10.569  1.00  0.00     0.185 HD
HETATM    4  C3  UNL     1      28.507  65.661   8.944  1.00  0.00     0.168 A 
HETATM    5  N3  UNL     1      27.447  65.708   7.980  1.00  0.00    -0.079 NA
HETATM    6  C4  UNL     1      29.801  65.768   8.501  1.00  0.00     0.190 A 
HETATM    7  C5  UNL     1      30.825  65.728   9.404  1.00  0.00     0.172 A 
HETATM    8  N5  UNL     1      32.070  65.835   9.173  1.00  0.00    -0.289 N 
ATOM      9  H5  UNL     1      32.698  65.782   9.974  1.00  0.00     0.188 HD
HETATM   10  N7  UNL     1      30.483  65.576  10.731  1.00  0.00    -0.173 N 
ATOM     11  H7  UNL     1      31.231  65.542  11.424  1.00  0.00     0.186 HD
ENDROOT
BRANCH   6  12
HETATM   12  N4  UNL     1      30.066  65.899   7.125  1.00  0.00    -0.108 N 
HETATM   13  O1  UNL     1      29.963  64.915   6.330  1.00  0.00    -0.532 OA
HETATM   14  O2  UNL     1      30.448  67.080   6.548  1.00  0.00    -0.532 OA
ENDBRANCH   6  12
BRANCH   8  15
HETATM   15  N6  UNL     1      32.643  66.017   7.940  1.00  0.00    -0.344 N 
ATOM     16  H62 UNL     1      32.066  66.489   7.243  1.00  0.00     0.176 HD
ATOM     17  H61 UNL     1      33.581  65.722   7.670  1.00  0.00     0.176 HD
ENDBRANCH   8  15
BRANCH   1  18
HETATM   18  N1  UNL     1      28.878  65.335  12.379  1.00  0.00    -0.230 N 
HETATM   19  C1  UNL     1      28.493  64.052  12.906  1.00  0.00     0.165 C 
ATOM     20  H1  UNL     1      28.866  66.151  12.991  1.00  0.00     0.177 HD
ENDBRANCH   1  18
TORSDOF 3
ENDMDL
MODEL 2
REMARK VINA RESULT: -6.412269267      2.383      4.415
REMARK  3 active torsions:
REMARK  status: ('A' for Active; 'I' for Inactive)
REMARK    1  A    between atoms: N1_2  and  C2_4 
REMARK    2  A    between atoms: C4_9  and  N4_10 
REMARK    3  A    between atoms: N5_14  and  N6_16 
ROOT
HETATM    1  C2  UNL     1      30.787  65.826   9.213  1.00  0.00     0.680 A 
HETATM    2  N2  UNL     1      30.515  65.265  10.425  1.00  0.00    -0.176 N 
ATOM      3  H2  UNL     1      31.263  65.046  11.083  1.00  0.00     0.185 HD
HETATM    4  C3  UNL     1      29.220  65.006  10.728  1.00  0.00     0.168 A 
HETATM    5  N3  UNL     1      28.898  64.417  11.994  1.00  0.00    -0.079 NA
HETATM    6  C4  UNL     1      28.199  65.292   9.857  1.00  0.00     0.190 A 
HETATM    7  C5  UNL     1      28.485  65.856   8.647  1.00  0.00     0.172 A 
HETATM    8  N5  UNL     1      27.668  66.206   7.740  1.00  0.00    -0.289 N 
ATOM      9  H5  UNL     1      28.061  66.615   6.892  1.00  0.00     0.188 HD
HETATM   10  N7  UNL     1      29.813  66.104   8.372  1.00  0.00    -0.173 N 
ATOM     11  H7  UNL     1      30.052  66.524   7.473  1.00  0.00     0.186 HD
ENDROOT
BRANCH   6  12
HETATM   12  N4  UNL     1      26.870  64.988  10.207  1.00  0.00    -0.108 N 
HETATM   13  O1  UNL     1      26.310  63.914   9.827  1.00  0.00    -0.532 OA
HETATM   14  O2  UNL     1      26.092  65.813  10.974  1.00  0.00    -0.532 OA
ENDBRANCH   6  12
BRANCH   8  15
HETATM   15  N6  UNL     1      26.303  66.081   7.799  1.00  0.00    -0.344 N 
ATOM     16  H62 UNL     1      25.946  65.382   8.451  1.00  0.00     0.176 HD
ATOM     17  H61 UNL     1      25.631  66.620   7.254  1.00  0.00     0.176 HD
ENDBRANCH   8  15
BRANCH   1  18
HETATM   18  N1  UNL     1      32.040  66.046   8.993  1.00  0.00    -0.230 N 
HETATM   19  C1  UNL     1      32.505  66.512   7.712  1.00  0.00     0.165 C 
ATOM     20  H1  UNL     1      32.715  65.887   9.741  1.00  0.00     0.177 HD
ENDBRANCH   1  18
TORSDOF 3
ENDMDL
MODEL 3
REMARK VINA RESULT: -6.295481992      4.967      6.186
REMARK  3 active torsions:
REMARK  status: ('A' for Active; 'I' for Inactive)
REMARK    1  A    between atoms: N1_2  and  C2_4 
REMARK    2  A    between atoms: C4_9  and  N4_10 
REMARK    3  A    between atoms: N5_14  and  N6_16 
ROOT
HETATM    1  C2  UNL     1      23.560  64.275  11.856  1.00  0.00     0.680 A 
HETATM    2  N2  UNL     1      23.833  64.176  10.524  1.00  0.00    -0.176 N 
ATOM      3  H2  UNL     1      23.182  64.538   9.826  1.00  0.00     0.185 HD
HETATM    4  C3  UNL     1      24.993  63.583  10.156  1.00  0.00     0.168 A 
HETATM    5  N3  UNL     1      25.312  63.462   8.764  1.00  0.00    -0.079 NA
HETATM    6  C4  UNL     1      25.882  63.090  11.078  1.00  0.00     0.190 A 
HETATM    7  C5  UNL     1      25.598  63.197  12.410  1.00  0.00     0.172 A 
HETATM    8  N5  UNL     1      26.313  62.821  13.390  1.00  0.00    -0.289 N 
ATOM      9  H5  UNL     1      25.940  62.982  14.326  1.00  0.00     0.188 HD
HETATM   10  N7  UNL     1      24.407  63.805  12.747  1.00  0.00    -0.173 N 
ATOM     11  H7  UNL     1      24.172  63.896  13.736  1.00  0.00     0.186 HD
ENDROOT
BRANCH   6  12
HETATM   12  N4  UNL     1      27.067  62.463  10.649  1.00  0.00    -0.108 N 
HETATM   13  O1  UNL     1      28.168  63.091  10.588  1.00  0.00    -0.532 OA
HETATM   14  O2  UNL     1      27.121  61.148  10.273  1.00  0.00    -0.532 OA
ENDBRANCH   6  12
BRANCH   8  15
HETATM   15  N6  UNL     1      27.541  62.217  13.300  1.00  0.00    -0.344 N 
ATOM     16  H62 UNL     1      27.561  61.312  12.829  1.00  0.00     0.176 HD
ATOM     17  H61 UNL     1      28.417  62.593  13.660  1.00  0.00     0.176 HD
ENDBRANCH   8  15
BRANCH   1  18
HETATM   18  N1  UNL     1      22.439  64.853  12.133  1.00  0.00    -0.230 N 
HETATM   19  C1  UNL     1      21.640  64.438  13.257  1.00  0.00     0.165 C 
ATOM     20  H1  UNL     1      22.113  65.619  11.543  1.00  0.00     0.177 HD
ENDBRANCH   1  18
TORSDOF 3
ENDMDL
MODEL 4
REMARK VINA RESULT: -6.187917922      2.808      4.388
REMARK  3 active torsions:
REMARK  status: ('A' for Active; 'I' for Inactive)
REMARK    1  A    between atoms: N1_2  and  C2_4 
REMARK    2  A    between atoms: C4_9  and  N4_10 
REMARK    3  A    between atoms: N5_14  and  N6_16 
ROOT
HETATM    1  C2  UNL     1      29.546  66.504   7.917  1.00  0.00     0.680 A 
HETATM    2  N2  UNL     1      28.265  66.234   7.540  1.00  0.00    -0.176 N 
ATOM      3  H2  UNL     1      27.915  66.519   6.626  1.00  0.00     0.185 HD
HETATM    4  C3  UNL     1      27.471  65.575   8.418  1.00  0.00     0.168 A 
HETATM    5  N3  UNL     1      26.118  65.274   8.054  1.00  0.00    -0.079 NA
HETATM    6  C4  UNL     1      27.922  65.182   9.653  1.00  0.00     0.190 A 
HETATM    7  C5  UNL     1      29.209  65.457  10.018  1.00  0.00     0.172 A 
HETATM    8  N5  UNL     1      29.792  65.148  11.103  1.00  0.00    -0.289 N 
ATOM      9  H5  UNL     1      30.765  65.437  11.206  1.00  0.00     0.188 HD
HETATM   10  N7  UNL     1      29.988  66.130   9.100  1.00  0.00    -0.173 N 
ATOM     11  H7  UNL     1      30.952  66.348   9.350  1.00  0.00     0.186 HD
ENDROOT
BRANCH   6  12
HETATM   12  N4  UNL     1      27.055  64.517  10.540  1.00  0.00    -0.108 N 
HETATM   13  O1  UNL     1      26.425  65.141  11.449  1.00  0.00    -0.532 OA
HETATM   14  O2  UNL     1      26.826  63.168  10.490  1.00  0.00    -0.532 OA
ENDBRANCH   6  12
BRANCH   8  15
HETATM   15  N6  UNL     1      29.229  64.460  12.147  1.00  0.00    -0.344 N 
ATOM     16  H62 UNL     1      28.319  64.793  12.463  1.00  0.00     0.176 HD
ATOM     17  H61 UNL     1      29.642  63.658  12.623  1.00  0.00     0.176 HD
ENDBRANCH   8  15
BRANCH   1  18
HETATM   18  N1  UNL     1      30.246  67.131   7.031  1.00  0.00    -0.230 N 
HETATM   19  C1  UNL     1      31.596  66.735   6.725  1.00  0.00     0.165 C 
ATOM     20  H1  UNL     1      29.834  67.924   6.539  1.00  0.00     0.177 HD
ENDBRANCH   1  18
TORSDOF 3
ENDMDL
MODEL 5
REMARK VINA RESULT: -6.125090105      0.763      2.769
REMARK  3 active torsions:
REMARK  status: ('A' for Active; 'I' for Inactive)
REMARK    1  A    between atoms: N1_2  and  C2_4 
REMARK    2  A    between atoms: C4_9  and  N4_10 
REMARK    3  A    between atoms: N5_14  and  N6_16 
ROOT
HETATM    1  C2  UNL     1      28.801  65.381  11.459  1.00  0.00     0.680 A 
HETATM    2  N2  UNL     1      30.076  65.372  10.977  1.00  0.00    -0.176 N 
ATOM      3  H2  UNL     1      30.871  65.207  11.594  1.00  0.00     0.185 HD
HETATM    4  C3  UNL     1      30.254  65.589   9.652  1.00  0.00     0.168 A 
HETATM    5  N3  UNL     1      31.581  65.587   9.110  1.00  0.00    -0.079 NA
HETATM    6  C4  UNL     1      29.199  65.813   8.803  1.00  0.00     0.190 A 
HETATM    7  C5  UNL     1      27.927  65.817   9.299  1.00  0.00     0.172 A 
HETATM    8  N5  UNL     1      26.843  65.981   8.657  1.00  0.00    -0.289 N 
ATOM      9  H5  UNL     1      25.977  65.954   9.194  1.00  0.00     0.188 HD
HETATM   10  N7  UNL     1      27.783  65.594  10.652  1.00  0.00    -0.173 N 
ATOM     11  H7  UNL     1      26.842  65.594  11.046  1.00  0.00     0.186 HD
ENDROOT
BRANCH   6  12
HETATM   12  N4  UNL     1      29.434  66.054   7.436  1.00  0.00    -0.108 N 
HETATM   13  O1  UNL     1      29.317  65.135   6.568  1.00  0.00    -0.532 OA
HETATM   14  O2  UNL     1      29.799  67.279   6.946  1.00  0.00    -0.532 OA
ENDBRANCH   6  12
BRANCH   8  15
HETATM   15  N6  UNL     1      26.736  66.193   7.306  1.00  0.00    -0.344 N 
ATOM     16  H62 UNL     1      26.819  67.162   6.998  1.00  0.00     0.176 HD
ATOM     17  H61 UNL     1      26.584  65.473   6.601  1.00  0.00     0.176 HD
ENDBRANCH   8  15
BRANCH   1  18
HETATM   18  N1  UNL     1      28.707  65.165  12.729  1.00  0.00    -0.230 N 
HETATM   19  C1  UNL     1      28.462  63.844  13.247  1.00  0.00     0.165 C 
ATOM     20  H1  UNL     1      28.806  65.946  13.377  1.00  0.00     0.177 HD
ENDBRANCH   1  18
TORSDOF 3
ENDMDL
