MODEL 1
REMARK VINA RESULT: -6.816967522      0.000      0.000
REMARK  9 active torsions:
REMARK  status: ('A' for Active; 'I' for Inactive)
REMARK    1  A    between atoms: N1_1  and  C1_5 
REMARK    2  A    between atoms: C1_5  and  C2_6 
REMARK    3  A    between atoms: C2_6  and  C3_7 
REMARK    4  A    between atoms: C3_7  and  N2_8 
REMARK    5  A    between atoms: C3_7  and  C13_25 
REMARK       I    between atoms: N2_8  and  C4_10 
REMARK    6  A    between atoms: C4_10  and  C5_12 
REMARK    7  A    between atoms: C5_12  and  C6_13 
REMARK    8  A    between atoms: C6_13  and  C7_14 
REMARK    9  A    between atoms: C7_14  and  C8_15 
ROOT
HETATM    1  N2  UNL     1      28.827  66.030   9.132  1.00  0.00    -0.346 N 
ATOM      2  H2  UNL     1      28.194  66.827   9.065  1.00  0.00     0.163 HD
HETATM    3  C4  UNL     1      28.452  64.944   9.998  1.00  0.00     0.228 C 
HETATM    4  O1  UNL     1      29.284  63.954   9.950  1.00  0.00    -0.273 OA
ENDROOT
BRANCH   3   5
HETATM    5  C5  UNL     1      27.311  64.887  10.854  1.00  0.00     0.065 C 
HETATM    6  C9  UNL     1      27.311  63.510  11.543  1.00  0.00     0.022 C 
HETATM    7  C10 UNL     1      27.651  63.569  12.983  1.00  0.00     0.029 C 
HETATM    8  C11 UNL     1      28.917  64.331  13.211  1.00  0.00     0.232 C 
HETATM    9  N4  UNL     1      28.858  65.638  12.564  1.00  0.00    -0.074 N 
HETATM   10  C12 UNL     1      27.566  65.898  12.018  1.00  0.00     0.251 C 
ATOM     11  H42 UNL     1      29.150  66.381  13.198  1.00  0.00     0.277 HD
ATOM     12  H41 UNL     1      29.587  65.737  11.857  1.00  0.00     0.277 HD
BRANCH   5  13
HETATM   13  C6  UNL     1      25.925  65.171  10.450  1.00  0.00     0.029 C 
BRANCH  13  14
HETATM   14  C7  UNL     1      25.021  64.031  10.178  1.00  0.00     0.101 C 
BRANCH  14  15
HETATM   15  C8  UNL     1      24.982  63.830   8.698  1.00  0.00     0.231 C 
HETATM   16  N3  UNL     1      24.210  62.726   8.224  1.00  0.00    -0.062 NA
HETATM   17  O2  UNL     1      25.580  64.565   7.902  1.00  0.00    -0.277 OA
ENDBRANCH  14  15
ENDBRANCH  13  14
ENDBRANCH   5  13
ENDBRANCH   3   5
BRANCH   1  18
HETATM   18  C3  UNL     1      30.029  66.065   8.360  1.00  0.00     0.187 C 
BRANCH  18  19
HETATM   19  C2  UNL     1      30.989  66.855   9.256  1.00  0.00     0.063 C 
BRANCH  19  20
HETATM   20  C1  UNL     1      32.308  66.408   9.635  1.00  0.00     0.232 C 
BRANCH  20  21
HETATM   21  N1  UNL     1      32.134  64.995  10.074  1.00  0.00    -0.079 N 
ATOM     22  H13 UNL     1      31.486  64.462   9.495  1.00  0.00     0.274 HD
ATOM     23  H12 UNL     1      32.953  64.410   9.907  1.00  0.00     0.274 HD
ATOM     24  H11 UNL     1      31.860  65.049  11.055  1.00  0.00     0.274 HD
ENDBRANCH  20  21
ENDBRANCH  19  20
ENDBRANCH  18  19
BRANCH  18  25
HETATM   25  C13 UNL     1      29.872  66.675   7.053  1.00  0.00     0.196 C 
HETATM   26  O3  UNL     1      28.933  66.382   6.234  1.00  0.00    -0.646 OA
HETATM   27  O4  UNL     1      30.756  67.618   6.593  1.00  0.00    -0.646 OA
ENDBRANCH  18  25
ENDBRANCH   1  18
TORSDOF 9
ENDMDL
MODEL 2
REMARK VINA RESULT: -6.752351771      1.024      1.227
REMARK  9 active torsions:
REMARK  status: ('A' for Active; 'I' for Inactive)
REMARK    1  A    between atoms: N1_1  and  C1_5 
REMARK    2  A    between atoms: C1_5  and  C2_6 
REMARK    3  A    between atoms: C2_6  and  C3_7 
REMARK    4  A    between atoms: C3_7  and  N2_8 
REMARK    5  A    between atoms: C3_7  and  C13_25 
REMARK       I    between atoms: N2_8  and  C4_10 
REMARK    6  A    between atoms: C4_10  and  C5_12 
REMARK    7  A    between atoms: C5_12  and  C6_13 
REMARK    8  A    between atoms: C6_13  and  C7_14 
REMARK    9  A    between atoms: C7_14  and  C8_15 
ROOT
HETATM    1  N2  UNL     1      28.489  65.831   9.358  1.00  0.00    -0.346 N 
ATOM      2  H2  UNL     1      27.741  66.525   9.365  1.00  0.00     0.163 HD
HETATM    3  C4  UNL     1      28.313  64.644  10.150  1.00  0.00     0.228 C 
HETATM    4  O1  UNL     1      29.282  63.799  10.010  1.00  0.00    -0.273 OA
ENDROOT
BRANCH   3   5
HETATM    5  C5  UNL     1      27.225  64.355  11.028  1.00  0.00     0.065 C 
HETATM    6  C9  UNL     1      27.599  63.103  11.842  1.00  0.00     0.022 C 
HETATM    7  C10 UNL     1      27.897  63.390  13.264  1.00  0.00     0.029 C 
HETATM    8  C11 UNL     1      28.900  64.490  13.399  1.00  0.00     0.232 C 
HETATM    9  N4  UNL     1      28.487  65.663  12.633  1.00  0.00    -0.074 N 
HETATM   10  C12 UNL     1      27.179  65.502  12.088  1.00  0.00     0.251 C 
ATOM     11  H42 UNL     1      28.556  66.514  13.190  1.00  0.00     0.277 HD
ATOM     12  H41 UNL     1      29.167  65.892  11.908  1.00  0.00     0.277 HD
BRANCH   5  13
HETATM   13  C6  UNL     1      25.818  64.205  10.624  1.00  0.00     0.029 C 
BRANCH  13  14
HETATM   14  C7  UNL     1      25.188  62.871  10.741  1.00  0.00     0.101 C 
BRANCH  14  15
HETATM   15  C8  UNL     1      25.237  62.229   9.393  1.00  0.00     0.231 C 
HETATM   16  N3  UNL     1      24.278  62.681   8.435  1.00  0.00    -0.062 NA
HETATM   17  O2  UNL     1      26.053  61.347   9.094  1.00  0.00    -0.277 OA
ENDBRANCH  14  15
ENDBRANCH  13  14
ENDBRANCH   5  13
ENDBRANCH   3   5
BRANCH   1  18
HETATM   18  C3  UNL     1      29.644  66.103   8.561  1.00  0.00     0.187 C 
BRANCH  18  19
HETATM   19  C2  UNL     1      30.581  66.812   9.545  1.00  0.00     0.063 C 
BRANCH  19  20
HETATM   20  C1  UNL     1      31.977  66.492   9.721  1.00  0.00     0.232 C 
BRANCH  20  21
HETATM   21  N1  UNL     1      32.012  65.034  10.021  1.00  0.00    -0.079 N 
ATOM     22  H13 UNL     1      31.534  64.781  10.885  1.00  0.00     0.274 HD
ATOM     23  H12 UNL     1      31.435  64.471   9.396  1.00  0.00     0.274 HD
ATOM     24  H11 UNL     1      33.000  64.779  10.009  1.00  0.00     0.274 HD
ENDBRANCH  20  21
ENDBRANCH  19  20
ENDBRANCH  18  19
BRANCH  18  25
HETATM   25  C13 UNL     1      29.372  66.908   7.385  1.00  0.00     0.196 C 
HETATM   26  O3  UNL     1      30.242  67.647   6.805  1.00  0.00    -0.646 OA
HETATM   27  O4  UNL     1      28.124  66.943   6.816  1.00  0.00    -0.646 OA
ENDBRANCH  18  25
ENDBRANCH   1  18
TORSDOF 9
ENDMDL
MODEL 3
REMARK VINA RESULT: -6.657442035      2.078      5.211
REMARK  9 active torsions:
REMARK  status: ('A' for Active; 'I' for Inactive)
REMARK    1  A    between atoms: N1_1  and  C1_5 
REMARK    2  A    between atoms: C1_5  and  C2_6 
REMARK    3  A    between atoms: C2_6  and  C3_7 
REMARK    4  A    between atoms: C3_7  and  N2_8 
REMARK    5  A    between atoms: C3_7  and  C13_25 
REMARK       I    between atoms: N2_8  and  C4_10 
REMARK    6  A    between atoms: C4_10  and  C5_12 
REMARK    7  A    between atoms: C5_12  and  C6_13 
REMARK    8  A    between atoms: C6_13  and  C7_14 
REMARK    9  A    between atoms: C7_14  and  C8_15 
ROOT
HETATM    1  N2  UNL     1      26.571  63.864   9.509  1.00  0.00    -0.346 N 
ATOM      2  H2  UNL     1      27.192  63.589   8.748  1.00  0.00     0.163 HD
HETATM    3  C4  UNL     1      26.908  65.044  10.259  1.00  0.00     0.228 C 
HETATM    4  O1  UNL     1      26.017  65.345  11.148  1.00  0.00    -0.273 OA
ENDROOT
BRANCH   3   5
HETATM    5  C5  UNL     1      28.080  65.845  10.111  1.00  0.00     0.065 C 
HETATM    6  C9  UNL     1      28.082  66.885  11.247  1.00  0.00     0.022 C 
HETATM    7  C10 UNL     1      29.108  66.627  12.283  1.00  0.00     0.029 C 
HETATM    8  C11 UNL     1      29.031  65.221  12.786  1.00  0.00     0.232 C 
HETATM    9  N4  UNL     1      29.061  64.273  11.676  1.00  0.00    -0.074 N 
HETATM   10  C12 UNL     1      29.303  64.926  10.431  1.00  0.00     0.251 C 
ATOM     11  H42 UNL     1      29.735  63.527  11.842  1.00  0.00     0.277 HD
ATOM     12  H41 UNL     1      28.209  63.713  11.642  1.00  0.00     0.277 HD
BRANCH   5  13
HETATM   13  C6  UNL     1      28.487  66.544   8.882  1.00  0.00     0.029 C 
BRANCH  13  14
HETATM   14  C7  UNL     1      29.928  66.793   8.656  1.00  0.00     0.101 C 
BRANCH  14  15
HETATM   15  C8  UNL     1      30.131  66.961   7.185  1.00  0.00     0.231 C 
HETATM   16  N3  UNL     1      29.186  66.314   6.332  1.00  0.00    -0.062 NA
HETATM   17  O2  UNL     1      31.062  67.618   6.703  1.00  0.00    -0.277 OA
ENDBRANCH  14  15
ENDBRANCH  13  14
ENDBRANCH   5  13
ENDBRANCH   3   5
BRANCH   1  18
HETATM   18  C3  UNL     1      25.421  63.051   9.760  1.00  0.00     0.187 C 
BRANCH  18  19
HETATM   19  C2  UNL     1      25.985  61.628   9.684  1.00  0.00     0.063 C 
BRANCH  19  20
HETATM   20  C1  UNL     1      27.387  61.298   9.774  1.00  0.00     0.232 C 
BRANCH  20  21
HETATM   21  N1  UNL     1      27.552  60.054   8.974  1.00  0.00    -0.079 N 
ATOM     22  H13 UNL     1      26.841  59.932   8.253  1.00  0.00     0.274 HD
ATOM     23  H12 UNL     1      28.356  60.072   8.347  1.00  0.00     0.274 HD
ATOM     24  H11 UNL     1      27.579  59.295   9.656  1.00  0.00     0.274 HD
ENDBRANCH  20  21
ENDBRANCH  19  20
ENDBRANCH  18  19
BRANCH  18  25
HETATM   25  C13 UNL     1      24.335  63.262   8.822  1.00  0.00     0.196 C 
HETATM   26  O3  UNL     1      23.618  64.321   8.782  1.00  0.00    -0.646 OA
HETATM   27  O4  UNL     1      23.987  62.303   7.904  1.00  0.00    -0.646 OA
ENDBRANCH  18  25
ENDBRANCH   1  18
TORSDOF 9
ENDMDL
MODEL 4
REMARK VINA RESULT: -6.620921651      1.511      3.365
REMARK  9 active torsions:
REMARK  status: ('A' for Active; 'I' for Inactive)
REMARK    1  A    between atoms: N1_1  and  C1_5 
REMARK    2  A    between atoms: C1_5  and  C2_6 
REMARK    3  A    between atoms: C2_6  and  C3_7 
REMARK    4  A    between atoms: C3_7  and  N2_8 
REMARK    5  A    between atoms: C3_7  and  C13_25 
REMARK       I    between atoms: N2_8  and  C4_10 
REMARK    6  A    between atoms: C4_10  and  C5_12 
REMARK    7  A    between atoms: C5_12  and  C6_13 
REMARK    8  A    between atoms: C6_13  and  C7_14 
REMARK    9  A    between atoms: C7_14  and  C8_15 
ROOT
HETATM    1  N2  UNL     1      28.887  66.439   9.081  1.00  0.00    -0.346 N 
ATOM      2  H2  UNL     1      28.489  67.378   9.053  1.00  0.00     0.163 HD
HETATM    3  C4  UNL     1      28.240  65.459   9.912  1.00  0.00     0.228 C 
HETATM    4  O1  UNL     1      28.778  64.286   9.816  1.00  0.00    -0.273 OA
ENDROOT
BRANCH   3   5
HETATM    5  C5  UNL     1      27.130  65.675  10.783  1.00  0.00     0.065 C 
HETATM    6  C9  UNL     1      26.527  67.050  10.442  1.00  0.00     0.022 C 
HETATM    7  C10 UNL     1      25.217  66.969   9.757  1.00  0.00     0.029 C 
HETATM    8  C11 UNL     1      25.277  66.054   8.576  1.00  0.00     0.232 C 
HETATM    9  N4  UNL     1      25.827  64.756   8.955  1.00  0.00    -0.074 N 
HETATM   10  C12 UNL     1      26.020  64.657  10.365  1.00  0.00     0.251 C 
ATOM     11  H42 UNL     1      25.252  63.991   8.604  1.00  0.00     0.277 HD
ATOM     12  H41 UNL     1      26.688  64.554   8.447  1.00  0.00     0.277 HD
BRANCH   5  13
HETATM   13  C6  UNL     1      27.161  65.567  12.250  1.00  0.00     0.029 C 
BRANCH  13  14
HETATM   14  C7  UNL     1      26.791  64.276  12.871  1.00  0.00     0.101 C 
BRANCH  14  15
HETATM   15  C8  UNL     1      28.055  63.526  13.139  1.00  0.00     0.231 C 
HETATM   16  N3  UNL     1      27.921  62.139  13.452  1.00  0.00    -0.062 NA
HETATM   17  O2  UNL     1      29.174  64.054  13.101  1.00  0.00    -0.277 OA
ENDBRANCH  14  15
ENDBRANCH  13  14
ENDBRANCH   5  13
ENDBRANCH   3   5
BRANCH   1  18
HETATM   18  C3  UNL     1      30.051  66.183   8.292  1.00  0.00     0.187 C 
BRANCH  18  19
HETATM   19  C2  UNL     1      31.173  66.816   9.122  1.00  0.00     0.063 C 
BRANCH  19  20
HETATM   20  C1  UNL     1      32.333  66.105   9.605  1.00  0.00     0.232 C 
BRANCH  20  21
HETATM   21  N1  UNL     1      31.816  64.802  10.107  1.00  0.00    -0.079 N 
ATOM     22  H13 UNL     1      32.536  64.088  10.211  1.00  0.00     0.274 HD
ATOM     23  H12 UNL     1      31.527  64.824  11.085  1.00  0.00     0.274 HD
ATOM     24  H11 UNL     1      31.069  64.542   9.463  1.00  0.00     0.274 HD
ENDBRANCH  20  21
ENDBRANCH  19  20
ENDBRANCH  18  19
BRANCH  18  25
HETATM   25  C13 UNL     1      29.985  66.731   6.950  1.00  0.00     0.196 C 
HETATM   26  O3  UNL     1      29.105  66.400   6.083  1.00  0.00    -0.646 OA
HETATM   27  O4  UNL     1      30.901  67.653   6.509  1.00  0.00    -0.646 OA
ENDBRANCH  18  25
ENDBRANCH   1  18
TORSDOF 9
ENDMDL
MODEL 5
REMARK VINA RESULT: -6.613149678      2.241      5.745
REMARK  9 active torsions:
REMARK  status: ('A' for Active; 'I' for Inactive)
REMARK    1  A    between atoms: N1_1  and  C1_5 
REMARK    2  A    between atoms: C1_5  and  C2_6 
REMARK    3  A    between atoms: C2_6  and  C3_7 
REMARK    4  A    between atoms: C3_7  and  N2_8 
REMARK    5  A    between atoms: C3_7  and  C13_25 
REMARK       I    between atoms: N2_8  and  C4_10 
REMARK    6  A    between atoms: C4_10  and  C5_12 
REMARK    7  A    between atoms: C5_12  and  C6_13 
REMARK    8  A    between atoms: C6_13  and  C7_14 
REMARK    9  A    between atoms: C7_14  and  C8_15 
ROOT
HETATM    1  N2  UNL     1      26.152  64.675  10.944  1.00  0.00    -0.346 N 
ATOM      2  H2  UNL     1      25.797  65.558  11.311  1.00  0.00     0.163 HD
HETATM    3  C4  UNL     1      27.470  64.667  10.368  1.00  0.00     0.228 C 
HETATM    4  O1  UNL     1      27.851  63.486  10.004  1.00  0.00    -0.273 OA
ENDROOT
BRANCH   3   5
HETATM    5  C5  UNL     1      28.324  65.793  10.172  1.00  0.00     0.065 C 
HETATM    6  C9  UNL     1      27.853  66.910  11.122  1.00  0.00     0.022 C 
HETATM    7  C10 UNL     1      28.775  67.153  12.254  1.00  0.00     0.029 C 
HETATM    8  C11 UNL     1      29.102  65.883  12.971  1.00  0.00     0.232 C 
HETATM    9  N4  UNL     1      29.571  64.866  12.034  1.00  0.00    -0.074 N 
HETATM   10  C12 UNL     1      29.733  65.395  10.719  1.00  0.00     0.251 C 
ATOM     11  H42 UNL     1      30.428  64.422  12.364  1.00  0.00     0.277 HD
ATOM     12  H41 UNL     1      28.959  64.050  12.033  1.00  0.00     0.277 HD
BRANCH   5  13
HETATM   13  C6  UNL     1      28.625  66.424   8.877  1.00  0.00     0.029 C 
BRANCH  13  14
HETATM   14  C7  UNL     1      30.018  66.833   8.597  1.00  0.00     0.101 C 
BRANCH  14  15
HETATM   15  C8  UNL     1      30.154  66.989   7.117  1.00  0.00     0.231 C 
HETATM   16  N3  UNL     1      29.166  66.342   6.314  1.00  0.00    -0.062 NA
HETATM   17  O2  UNL     1      31.065  67.637   6.588  1.00  0.00    -0.277 OA
ENDBRANCH  14  15
ENDBRANCH  13  14
ENDBRANCH   5  13
ENDBRANCH   3   5
BRANCH   1  18
HETATM   18  C3  UNL     1      25.307  63.525  11.037  1.00  0.00     0.187 C 
BRANCH  18  19
HETATM   19  C2  UNL     1      24.628  63.488   9.664  1.00  0.00     0.063 C 
BRANCH  19  20
HETATM   20  C1  UNL     1      24.405  62.287   8.895  1.00  0.00     0.232 C 
BRANCH  20  21
HETATM   21  N1  UNL     1      25.477  61.343   9.317  1.00  0.00    -0.079 N 
ATOM     22  H13 UNL     1      26.362  61.799   9.537  1.00  0.00     0.274 HD
ATOM     23  H12 UNL     1      25.323  60.931  10.237  1.00  0.00     0.274 HD
ATOM     24  H11 UNL     1      25.544  60.657   8.565  1.00  0.00     0.274 HD
ENDBRANCH  20  21
ENDBRANCH  19  20
ENDBRANCH  18  19
BRANCH  18  25
HETATM   25  C13 UNL     1      24.346  63.587  12.122  1.00  0.00     0.196 C 
HETATM   26  O3  UNL     1      24.430  62.893  13.194  1.00  0.00    -0.646 OA
HETATM   27  O4  UNL     1      23.246  64.405  12.057  1.00  0.00    -0.646 OA
ENDBRANCH  18  25
ENDBRANCH   1  18
TORSDOF 9
ENDMDL
