MODEL 1
REMARK VINA RESULT: -7.310150211      0.000      0.000
REMARK  4 active torsions:
REMARK  status: ('A' for Active; 'I' for Inactive)
REMARK       I    between atoms: C1_2  and  N3_6 
REMARK    1  A    between atoms: N3_6  and  O1_8 
REMARK    2  A    between atoms: O1_8  and  C2_9 
REMARK    3  A    between atoms: C2_9  and  C3_11 
REMARK    4  A    between atoms: C4_14  and  N5_15 
ROOT
HETATM    1  C3  UNL     1      29.326  65.670   8.967  1.00  0.00     0.202 A 
HETATM    2  N4  UNL     1      30.241  65.175   9.803  1.00  0.00    -0.170 N 
ATOM      3  H4  UNL     1      29.952  64.695  10.656  1.00  0.00     0.186 HD
HETATM    4  C4  UNL     1      31.542  65.317   9.513  1.00  0.00     0.681 A 
HETATM    5  N6  UNL     1      31.949  65.955   8.382  1.00  0.00    -0.141 N 
ATOM      6  H6  UNL     1      32.941  66.058   8.171  1.00  0.00     0.189 HD
HETATM    7  C5  UNL     1      31.020  66.446   7.554  1.00  0.00     0.340 A 
HETATM    8  O3  UNL     1      31.353  67.039   6.504  1.00  0.00    -0.246 OA
HETATM    9  N7  UNL     1      29.708  66.301   7.852  1.00  0.00    -0.288 N 
ATOM     10  H7  UNL     1      29.003  66.677   7.219  1.00  0.00     0.172 HD
ENDROOT
BRANCH   1  11
HETATM   11  C2  UNL     1      27.909  65.532   9.256  1.00  0.00     0.350 C 
HETATM   12  O2  UNL     1      27.467  65.766  10.407  1.00  0.00    -0.254 OA
BRANCH  11  13
HETATM   13  O1  UNL     1      26.998  65.143   8.289  1.00  0.00    -0.190 OA
BRANCH  13  14
HETATM   14  N3  UNL     1      25.676  65.129   8.597  1.00  0.00    -0.229 N 
HETATM   15  C1  UNL     1      24.890  63.958   8.708  1.00  0.00     0.206 C 
HETATM   16  N1  UNL     1      25.439  62.713   9.125  1.00  0.00    -0.062 NA
HETATM   17  N2  UNL     1      23.636  64.025   8.421  1.00  0.00    -0.372 N 
ATOM     18  H22 UNL     1      23.069  63.181   8.501  1.00  0.00     0.158 HD
ATOM     19  H21 UNL     1      23.242  64.918   8.121  1.00  0.00     0.158 HD
ATOM     20  H3  UNL     1      25.217  66.025   8.760  1.00  0.00     0.197 HD
ENDBRANCH  13  14
ENDBRANCH  11  13
ENDBRANCH   1  11
BRANCH   4  21
HETATM   21  N5  UNL     1      32.481  64.850  10.299  1.00  0.00    -0.234 N 
ATOM     22  H52 UNL     1      32.472  63.847  10.482  1.00  0.00     0.174 HD
ATOM     23  H51 UNL     1      33.189  65.458  10.711  1.00  0.00     0.174 HD
ENDBRANCH   4  21
TORSDOF 4
ENDMDL
MODEL 2
REMARK VINA RESULT: -7.144762068      1.811      2.503
REMARK  4 active torsions:
REMARK  status: ('A' for Active; 'I' for Inactive)
REMARK       I    between atoms: C1_2  and  N3_6 
REMARK    1  A    between atoms: N3_6  and  O1_8 
REMARK    2  A    between atoms: O1_8  and  C2_9 
REMARK    3  A    between atoms: C2_9  and  C3_11 
REMARK    4  A    between atoms: C4_14  and  N5_15 
ROOT
HETATM    1  C3  UNL     1      29.299  65.667   8.940  1.00  0.00     0.202 A 
HETATM    2  N4  UNL     1      30.235  65.192   9.764  1.00  0.00    -0.170 N 
ATOM      3  H4  UNL     1      29.969  64.716  10.626  1.00  0.00     0.186 HD
HETATM    4  C4  UNL     1      31.529  65.349   9.448  1.00  0.00     0.681 A 
HETATM    5  N6  UNL     1      31.906  65.982   8.305  1.00  0.00    -0.141 N 
ATOM      6  H6  UNL     1      32.893  66.096   8.074  1.00  0.00     0.189 HD
HETATM    7  C5  UNL     1      30.956  66.452   7.490  1.00  0.00     0.340 A 
HETATM    8  O3  UNL     1      31.262  67.041   6.429  1.00  0.00    -0.246 OA
HETATM    9  N7  UNL     1      29.652  66.292   7.813  1.00  0.00    -0.288 N 
ATOM     10  H7  UNL     1      28.930  66.654   7.190  1.00  0.00     0.172 HD
ENDROOT
BRANCH   1  11
HETATM   11  C2  UNL     1      27.890  65.512   9.257  1.00  0.00     0.350 C 
HETATM   12  O2  UNL     1      27.049  65.313   8.347  1.00  0.00    -0.254 OA
BRANCH  11  13
HETATM   13  O1  UNL     1      27.419  65.576  10.557  1.00  0.00    -0.190 OA
BRANCH  13  14
HETATM   14  N3  UNL     1      26.995  64.437  11.162  1.00  0.00    -0.229 N 
HETATM   15  C1  UNL     1      27.835  63.542  11.865  1.00  0.00     0.206 C 
HETATM   16  N1  UNL     1      29.006  63.977  12.546  1.00  0.00    -0.062 NA
HETATM   17  N2  UNL     1      27.525  62.291  11.886  1.00  0.00    -0.372 N 
ATOM     18  H22 UNL     1      28.131  61.646  12.393  1.00  0.00     0.158 HD
ATOM     19  H21 UNL     1      26.686  61.980  11.397  1.00  0.00     0.158 HD
ATOM     20  H3  UNL     1      26.002  64.211  11.105  1.00  0.00     0.197 HD
ENDBRANCH  13  14
ENDBRANCH  11  13
ENDBRANCH   1  11
BRANCH   4  21
HETATM   21  N5  UNL     1      32.488  64.902  10.222  1.00  0.00    -0.234 N 
ATOM     22  H52 UNL     1      32.390  65.075  11.223  1.00  0.00     0.174 HD
ATOM     23  H51 UNL     1      33.295  64.405   9.846  1.00  0.00     0.174 HD
ENDBRANCH   4  21
TORSDOF 4
ENDMDL
MODEL 3
REMARK VINA RESULT: -7.119508043      1.319      2.058
REMARK  4 active torsions:
REMARK  status: ('A' for Active; 'I' for Inactive)
REMARK       I    between atoms: C1_2  and  N3_6 
REMARK    1  A    between atoms: N3_6  and  O1_8 
REMARK    2  A    between atoms: O1_8  and  C2_9 
REMARK    3  A    between atoms: C2_9  and  C3_11 
REMARK    4  A    between atoms: C4_14  and  N5_15 
ROOT
HETATM    1  C3  UNL     1      29.208  65.814   8.674  1.00  0.00     0.202 A 
HETATM    2  N4  UNL     1      29.672  66.397   7.567  1.00  0.00    -0.170 N 
ATOM      3  H4  UNL     1      29.027  66.796   6.886  1.00  0.00     0.186 HD
HETATM    4  C4  UNL     1      30.995  66.452   7.360  1.00  0.00     0.681 A 
HETATM    5  N6  UNL     1      31.875  65.925   8.254  1.00  0.00    -0.141 N 
ATOM      6  H6  UNL     1      32.880  65.972   8.087  1.00  0.00     0.189 HD
HETATM    7  C5  UNL     1      31.393  65.344   9.359  1.00  0.00     0.340 A 
HETATM    8  O3  UNL     1      32.168  64.847  10.206  1.00  0.00    -0.246 OA
HETATM    9  N7  UNL     1      30.057  65.290   9.563  1.00  0.00    -0.288 N 
ATOM     10  H7  UNL     1      29.693  64.845  10.406  1.00  0.00     0.172 HD
ENDROOT
BRANCH   1  11
HETATM   11  C2  UNL     1      27.779  65.739   8.925  1.00  0.00     0.350 C 
HETATM   12  O2  UNL     1      27.291  66.209   9.981  1.00  0.00    -0.254 OA
BRANCH  11  13
HETATM   13  O1  UNL     1      26.905  65.156   8.023  1.00  0.00    -0.190 OA
BRANCH  13  14
HETATM   14  N3  UNL     1      25.585  65.090   8.333  1.00  0.00    -0.229 N 
HETATM   15  C1  UNL     1      24.882  63.893   8.600  1.00  0.00     0.206 C 
HETATM   16  N1  UNL     1      25.513  62.756   9.178  1.00  0.00    -0.062 NA
HETATM   17  N2  UNL     1      23.628  63.832   8.308  1.00  0.00    -0.372 N 
ATOM     18  H22 UNL     1      23.122  62.968   8.501  1.00  0.00     0.158 HD
ATOM     19  H21 UNL     1      23.176  64.647   7.893  1.00  0.00     0.158 HD
ATOM     20  H3  UNL     1      25.063  65.966   8.375  1.00  0.00     0.197 HD
ENDBRANCH  13  14
ENDBRANCH  11  13
ENDBRANCH   1  11
BRANCH   4  21
HETATM   21  N5  UNL     1      31.505  67.012   6.290  1.00  0.00    -0.234 N 
ATOM     22  H52 UNL     1      31.309  66.561   5.396  1.00  0.00     0.174 HD
ATOM     23  H51 UNL     1      32.070  67.860   6.343  1.00  0.00     0.174 HD
ENDBRANCH   4  21
TORSDOF 4
ENDMDL
MODEL 4
REMARK VINA RESULT: -7.077797410      2.957      3.551
REMARK  4 active torsions:
REMARK  status: ('A' for Active; 'I' for Inactive)
REMARK       I    between atoms: C1_2  and  N3_6 
REMARK    1  A    between atoms: N3_6  and  O1_8 
REMARK    2  A    between atoms: O1_8  and  C2_9 
REMARK    3  A    between atoms: C2_9  and  C3_11 
REMARK    4  A    between atoms: C4_14  and  N5_15 
ROOT
HETATM    1  C3  UNL     1      29.950  65.973   9.493  1.00  0.00     0.202 A 
HETATM    2  N4  UNL     1      31.257  66.000   9.224  1.00  0.00    -0.170 N 
ATOM      3  H4  UNL     1      31.938  65.825   9.962  1.00  0.00     0.186 HD
HETATM    4  C4  UNL     1      31.664  66.262   7.974  1.00  0.00     0.681 A 
HETATM    5  N6  UNL     1      30.773  66.500   6.974  1.00  0.00    -0.141 N 
ATOM      6  H6  UNL     1      31.094  66.699   6.026  1.00  0.00     0.189 HD
HETATM    7  C5  UNL     1      29.466  66.470   7.260  1.00  0.00     0.340 A 
HETATM    8  O3  UNL     1      28.615  66.684   6.369  1.00  0.00    -0.246 OA
HETATM    9  N7  UNL     1      29.060  66.206   8.523  1.00  0.00    -0.288 N 
ATOM     10  H7  UNL     1      28.063  66.184   8.738  1.00  0.00     0.172 HD
ENDROOT
BRANCH   1  11
HETATM   11  C2  UNL     1      29.479  65.693  10.838  1.00  0.00     0.350 C 
HETATM   12  O2  UNL     1      29.215  66.630  11.630  1.00  0.00    -0.254 OA
BRANCH  11  13
HETATM   13  O1  UNL     1      29.302  64.399  11.299  1.00  0.00    -0.190 OA
BRANCH  13  14
HETATM   14  N3  UNL     1      29.220  64.181  12.637  1.00  0.00    -0.229 N 
HETATM   15  C1  UNL     1      28.244  63.369  13.259  1.00  0.00     0.206 C 
HETATM   16  N1  UNL     1      27.666  62.244  12.607  1.00  0.00    -0.062 NA
HETATM   17  N2  UNL     1      27.869  63.660  14.457  1.00  0.00    -0.372 N 
ATOM     18  H22 UNL     1      27.164  63.075  14.905  1.00  0.00     0.158 HD
ATOM     19  H21 UNL     1      28.283  64.467  14.924  1.00  0.00     0.158 HD
ATOM     20  H3  UNL     1      29.911  64.635  13.234  1.00  0.00     0.197 HD
ENDBRANCH  13  14
ENDBRANCH  11  13
ENDBRANCH   1  11
BRANCH   4  21
HETATM   21  N5  UNL     1      32.935  66.301   7.655  1.00  0.00    -0.234 N 
ATOM     22  H52 UNL     1      33.604  66.260   8.424  1.00  0.00     0.174 HD
ATOM     23  H51 UNL     1      33.245  66.369   6.686  1.00  0.00     0.174 HD
ENDBRANCH   4  21
TORSDOF 4
ENDMDL
MODEL 5
REMARK VINA RESULT: -7.013581077      1.405      1.454
REMARK  4 active torsions:
REMARK  status: ('A' for Active; 'I' for Inactive)
REMARK       I    between atoms: C1_2  and  N3_6 
REMARK    1  A    between atoms: N3_6  and  O1_8 
REMARK    2  A    between atoms: O1_8  and  C2_9 
REMARK    3  A    between atoms: C2_9  and  C3_11 
REMARK    4  A    between atoms: C4_14  and  N5_15 
ROOT
HETATM    1  C3  UNL     1      29.263  65.669   9.278  1.00  0.00     0.202 A 
HETATM    2  N4  UNL     1      30.255  65.181  10.025  1.00  0.00    -0.170 N 
ATOM      3  H4  UNL     1      30.052  64.719  10.912  1.00  0.00     0.186 HD
HETATM    4  C4  UNL     1      31.520  65.305   9.599  1.00  0.00     0.681 A 
HETATM    5  N6  UNL     1      31.813  65.918   8.421  1.00  0.00    -0.141 N 
ATOM      6  H6  UNL     1      32.779  66.007   8.106  1.00  0.00     0.189 HD
HETATM    7  C5  UNL     1      30.807  66.402   7.684  1.00  0.00     0.340 A 
HETATM    8  O3  UNL     1      31.034  66.973   6.594  1.00  0.00    -0.246 OA
HETATM    9  N7  UNL     1      29.532  66.275   8.118  1.00  0.00    -0.288 N 
ATOM     10  H7  UNL     1      28.768  66.647   7.554  1.00  0.00     0.172 HD
ENDROOT
BRANCH   1  11
HETATM   11  C2  UNL     1      27.882  65.550   9.715  1.00  0.00     0.350 C 
HETATM   12  O2  UNL     1      27.299  66.519  10.260  1.00  0.00    -0.254 OA
BRANCH  11  13
HETATM   13  O1  UNL     1      27.159  64.381   9.551  1.00  0.00    -0.190 OA
BRANCH  13  14
HETATM   14  N3  UNL     1      26.643  63.765  10.646  1.00  0.00    -0.229 N 
HETATM   15  C1  UNL     1      25.779  62.647  10.605  1.00  0.00     0.206 C 
HETATM   16  N1  UNL     1      25.835  61.683   9.560  1.00  0.00    -0.062 NA
HETATM   17  N2  UNL     1      24.912  62.500  11.547  1.00  0.00    -0.372 N 
ATOM     18  H22 UNL     1      24.289  61.693  11.518  1.00  0.00     0.158 HD
ATOM     19  H21 UNL     1      24.872  63.191  12.297  1.00  0.00     0.158 HD
ATOM     20  H3  UNL     1      26.897  64.136  11.562  1.00  0.00     0.197 HD
ENDBRANCH  13  14
ENDBRANCH  11  13
ENDBRANCH   1  11
BRANCH   4  21
HETATM   21  N5  UNL     1      32.531  64.844  10.294  1.00  0.00    -0.234 N 
ATOM     22  H52 UNL     1      32.674  63.834  10.284  1.00  0.00     0.174 HD
ATOM     23  H51 UNL     1      33.149  65.463  10.819  1.00  0.00     0.174 HD
ENDBRANCH   4  21
TORSDOF 4
ENDMDL
