MODEL 1
REMARK VINA RESULT: -5.953437698      0.000      0.000
REMARK  7 active torsions:
REMARK  status: ('A' for Active; 'I' for Inactive)
REMARK    1  A    between atoms: C2_2  and  N1_3 
REMARK    2  A    between atoms: C2_2  and  C3_7 
REMARK       I    between atoms: C3_7  and  N2_9 
REMARK    3  A    between atoms: N2_9  and  C4_11 
REMARK    4  A    between atoms: C6_15  and  C7_16 
REMARK    5  A    between atoms: C8_21  and  N6_22 
REMARK       I    between atoms: N6_22  and  C9_24 
REMARK    6  A    between atoms: C9_24  and  C10_26 
REMARK       I    between atoms: C10_26  and  N7_28 
REMARK    7  A    between atoms: N7_28  and  O5_30 
ROOT
HETATM    1  C4  UNL     1      35.840  -1.990  12.543  1.00  0.00     0.095 A 
HETATM    2  C5  UNL     1      35.271  -2.448  11.376  1.00  0.00     0.123 A 
HETATM    3  N3  UNL     1      35.047  -3.782  11.190  1.00  0.00    -0.346 N 
ATOM      4  H3  UNL     1      34.624  -4.087  10.313  1.00  0.00     0.167 HD
HETATM    5  C6  UNL     1      35.356  -4.708  12.103  1.00  0.00     0.173 A 
HETATM    6  N5  UNL     1      35.909  -4.286  13.241  1.00  0.00    -0.322 N 
ATOM      7  H5  UNL     1      36.156  -4.970  13.955  1.00  0.00     0.169 HD
HETATM    8  C8  UNL     1      36.151  -2.986  13.474  1.00  0.00     0.138 A 
ENDROOT
BRANCH   1   9
HETATM    9  N2  UNL     1      36.112  -0.639  12.831  1.00  0.00    -0.321 N 
HETATM   10  C3  UNL     1      37.192   0.147  12.368  1.00  0.00     0.252 C 
HETATM   11  O1  UNL     1      38.105  -0.241  11.607  1.00  0.00    -0.271 OA
ATOM     12  H2  UNL     1      35.449  -0.170  13.449  1.00  0.00     0.169 HD
BRANCH  10  13
HETATM   13  C2  UNL     1      37.201   1.580  12.865  1.00  0.00     0.271 C 
HETATM   14  C1  UNL     1      38.631   2.056  13.023  1.00  0.00     0.050 C 
BRANCH  13  15
HETATM   15  N1  UNL     1      36.517   1.580  14.141  1.00  0.00    -0.067 N 
ATOM     16  H13 UNL     1      36.183   2.510  14.391  1.00  0.00     0.275 HD
ATOM     17  H12 UNL     1      35.618   1.103  14.087  1.00  0.00     0.275 HD
ATOM     18  H11 UNL     1      37.111   1.183  14.869  1.00  0.00     0.275 HD
ENDBRANCH  13  15
ENDBRANCH  10  13
ENDBRANCH   1   9
BRANCH   8  19
HETATM   19  N6  UNL     1      36.688  -2.605  14.585  1.00  0.00    -0.303 N 
HETATM   20  C9  UNL     1      37.980  -3.043  14.906  1.00  0.00     0.317 C 
HETATM   21  O3  UNL     1      38.145  -3.950  15.747  1.00  0.00    -0.262 OA
ATOM     22  H6  UNL     1      36.177  -1.994  15.222  1.00  0.00     0.171 HD
BRANCH  20  23
HETATM   23  C10 UNL     1      39.124  -2.431  14.247  1.00  0.00     0.334 C 
HETATM   24  O4  UNL     1      39.651  -3.016  13.267  1.00  0.00    -0.260 OA
HETATM   25  N7  UNL     1      39.667  -1.193  14.670  1.00  0.00    -0.225 N 
HETATM   26  C11 UNL     1      39.140  -0.435  15.787  1.00  0.00     0.189 C 
BRANCH  25  27
HETATM   27  O5  UNL     1      40.731  -0.692  14.002  1.00  0.00    -0.285 OA
ATOM     28  H5  UNL     1      41.604  -0.936  14.287  1.00  0.00     0.245 HD
ENDBRANCH  25  27
ENDBRANCH  20  23
ENDBRANCH   8  19
BRANCH   5  29
HETATM   29  C7  UNL     1      35.105  -6.128  11.875  1.00  0.00     0.298 C 
HETATM   30  N4  UNL     1      35.842  -7.141  12.538  1.00  0.00    -0.054 NA
HETATM   31  O2  UNL     1      34.215  -6.502  11.071  1.00  0.00    -0.268 OA
ENDBRANCH   5  29
TORSDOF 7
ENDMDL
MODEL 2
REMARK VINA RESULT: -5.918555540      0.817      1.271
REMARK  7 active torsions:
REMARK  status: ('A' for Active; 'I' for Inactive)
REMARK    1  A    between atoms: C2_2  and  N1_3 
REMARK    2  A    between atoms: C2_2  and  C3_7 
REMARK       I    between atoms: C3_7  and  N2_9 
REMARK    3  A    between atoms: N2_9  and  C4_11 
REMARK    4  A    between atoms: C6_15  and  C7_16 
REMARK    5  A    between atoms: C8_21  and  N6_22 
REMARK       I    between atoms: N6_22  and  C9_24 
REMARK    6  A    between atoms: C9_24  and  C10_26 
REMARK       I    between atoms: C10_26  and  N7_28 
REMARK    7  A    between atoms: N7_28  and  O5_30 
ROOT
HETATM    1  C4  UNL     1      35.849  -1.950  12.546  1.00  0.00     0.095 A 
HETATM    2  C5  UNL     1      35.308  -2.419  11.370  1.00  0.00     0.123 A 
HETATM    3  N3  UNL     1      35.085  -3.754  11.191  1.00  0.00    -0.346 N 
ATOM      4  H3  UNL     1      34.683  -4.066  10.307  1.00  0.00     0.167 HD
HETATM    5  C6  UNL     1      35.370  -4.671  12.121  1.00  0.00     0.173 A 
HETATM    6  N5  UNL     1      35.896  -4.239  13.268  1.00  0.00    -0.322 N 
ATOM      7  H5  UNL     1      36.123  -4.917  13.994  1.00  0.00     0.169 HD
HETATM    8  C8  UNL     1      36.134  -2.938  13.494  1.00  0.00     0.138 A 
ENDROOT
BRANCH   1   9
HETATM    9  N2  UNL     1      36.116  -0.597  12.828  1.00  0.00    -0.321 N 
HETATM   10  C3  UNL     1      37.178   0.198  12.339  1.00  0.00     0.252 C 
HETATM   11  O1  UNL     1      38.077  -0.183  11.557  1.00  0.00    -0.271 OA
ATOM     12  H2  UNL     1      35.465  -0.133  13.461  1.00  0.00     0.169 HD
BRANCH  10  13
HETATM   13  C2  UNL     1      37.188   1.631  12.836  1.00  0.00     0.271 C 
HETATM   14  C1  UNL     1      38.615   2.073  13.090  1.00  0.00     0.050 C 
BRANCH  13  15
HETATM   15  N1  UNL     1      36.420   1.649  14.063  1.00  0.00    -0.067 N 
ATOM     16  H13 UNL     1      36.569   0.803  14.614  1.00  0.00     0.275 HD
ATOM     17  H12 UNL     1      36.785   2.330  14.727  1.00  0.00     0.275 HD
ATOM     18  H11 UNL     1      35.431   1.804  13.868  1.00  0.00     0.275 HD
ENDBRANCH  13  15
ENDBRANCH  10  13
ENDBRANCH   1   9
BRANCH   8  19
HETATM   19  N6  UNL     1      36.645  -2.547  14.615  1.00  0.00    -0.303 N 
HETATM   20  C9  UNL     1      37.977  -2.868  14.908  1.00  0.00     0.317 C 
HETATM   21  O3  UNL     1      38.239  -3.784  15.713  1.00  0.00    -0.262 OA
ATOM     22  H6  UNL     1      36.084  -2.012  15.278  1.00  0.00     0.171 HD
BRANCH  20  23
HETATM   23  C10 UNL     1      39.048  -2.123  14.264  1.00  0.00     0.334 C 
HETATM   24  O4  UNL     1      39.399  -1.015  14.745  1.00  0.00    -0.260 OA
HETATM   25  N7  UNL     1      39.715  -2.602  13.110  1.00  0.00    -0.225 N 
HETATM   26  C11 UNL     1      39.392  -3.863  12.474  1.00  0.00     0.189 C 
BRANCH  25  27
HETATM   27  O5  UNL     1      40.702  -1.848  12.574  1.00  0.00    -0.285 OA
ATOM     28  H5  UNL     1      41.039  -2.083  11.718  1.00  0.00     0.245 HD
ENDBRANCH  25  27
ENDBRANCH  20  23
ENDBRANCH   8  19
BRANCH   5  29
HETATM   29  C7  UNL     1      35.121  -6.093  11.901  1.00  0.00     0.298 C 
HETATM   30  N4  UNL     1      35.730  -7.097  12.694  1.00  0.00    -0.054 NA
HETATM   31  O2  UNL     1      34.349  -6.476  10.986  1.00  0.00    -0.268 OA
ENDBRANCH   5  29
TORSDOF 7
ENDMDL
MODEL 3
REMARK VINA RESULT: -5.795641025      2.654      4.824
REMARK  7 active torsions:
REMARK  status: ('A' for Active; 'I' for Inactive)
REMARK    1  A    between atoms: C2_2  and  N1_3 
REMARK    2  A    between atoms: C2_2  and  C3_7 
REMARK       I    between atoms: C3_7  and  N2_9 
REMARK    3  A    between atoms: N2_9  and  C4_11 
REMARK    4  A    between atoms: C6_15  and  C7_16 
REMARK    5  A    between atoms: C8_21  and  N6_22 
REMARK       I    between atoms: N6_22  and  C9_24 
REMARK    6  A    between atoms: C9_24  and  C10_26 
REMARK       I    between atoms: C10_26  and  N7_28 
REMARK    7  A    between atoms: N7_28  and  O5_30 
ROOT
HETATM    1  C4  UNL     1      38.216  -0.829  14.027  1.00  0.00     0.095 A 
HETATM    2  C5  UNL     1      37.601  -2.055  14.136  1.00  0.00     0.123 A 
HETATM    3  N3  UNL     1      36.638  -2.432  13.244  1.00  0.00    -0.346 N 
ATOM      4  H3  UNL     1      36.203  -3.348  13.356  1.00  0.00     0.167 HD
HETATM    5  C6  UNL     1      36.239  -1.656  12.231  1.00  0.00     0.173 A 
HETATM    6  N5  UNL     1      36.822  -0.463  12.107  1.00  0.00    -0.322 N 
ATOM      7  H5  UNL     1      36.536   0.149  11.343  1.00  0.00     0.169 HD
HETATM    8  C8  UNL     1      37.773  -0.045  12.957  1.00  0.00     0.138 A 
ENDROOT
BRANCH   1   9
HETATM    9  N2  UNL     1      39.217  -0.348  14.893  1.00  0.00    -0.321 N 
HETATM   10  C3  UNL     1      39.094  -0.021  16.262  1.00  0.00     0.252 C 
HETATM   11  O1  UNL     1      38.050  -0.107  16.945  1.00  0.00    -0.271 OA
ATOM     12  H2  UNL     1      40.142  -0.221  14.482  1.00  0.00     0.169 HD
BRANCH  10  13
HETATM   13  C2  UNL     1      40.369   0.475  16.919  1.00  0.00     0.271 C 
HETATM   14  C1  UNL     1      41.105  -0.691  17.549  1.00  0.00     0.050 C 
BRANCH  13  15
HETATM   15  N1  UNL     1      39.969   1.434  17.927  1.00  0.00    -0.067 N 
ATOM     16  H13 UNL     1      40.738   1.662  18.557  1.00  0.00     0.275 HD
ATOM     17  H12 UNL     1      39.818   2.360  17.528  1.00  0.00     0.275 HD
ATOM     18  H11 UNL     1      39.149   1.103  18.435  1.00  0.00     0.275 HD
ENDBRANCH  13  15
ENDBRANCH  10  13
ENDBRANCH   1   9
BRANCH   8  19
HETATM   19  N6  UNL     1      38.320   1.116  12.812  1.00  0.00    -0.303 N 
HETATM   20  C9  UNL     1      37.583   2.265  13.131  1.00  0.00     0.317 C 
HETATM   21  O3  UNL     1      37.092   2.967  12.225  1.00  0.00    -0.262 OA
ATOM     22  H6  UNL     1      39.278   1.196  12.469  1.00  0.00     0.171 HD
BRANCH  20  23
HETATM   23  C10 UNL     1      37.396   2.626  14.528  1.00  0.00     0.334 C 
HETATM   24  O4  UNL     1      36.290   2.389  15.079  1.00  0.00    -0.260 OA
HETATM   25  N7  UNL     1      38.417   3.237  15.295  1.00  0.00    -0.225 N 
HETATM   26  C11 UNL     1      39.726   3.556  14.762  1.00  0.00     0.189 C 
BRANCH  25  27
HETATM   27  O5  UNL     1      38.162   3.539  16.589  1.00  0.00    -0.285 OA
ATOM     28  H5  UNL     1      38.840   3.968  17.098  1.00  0.00     0.245 HD
ENDBRANCH  25  27
ENDBRANCH  20  23
ENDBRANCH   8  19
BRANCH   5  29
HETATM   29  C7  UNL     1      35.207  -2.086  11.293  1.00  0.00     0.298 C 
HETATM   30  N4  UNL     1      35.164  -3.401  10.768  1.00  0.00    -0.054 NA
HETATM   31  O2  UNL     1      34.311  -1.290  10.915  1.00  0.00    -0.268 OA
ENDBRANCH   5  29
TORSDOF 7
ENDMDL
MODEL 4
REMARK VINA RESULT: -5.588399344      3.241      6.746
REMARK  7 active torsions:
REMARK  status: ('A' for Active; 'I' for Inactive)
REMARK    1  A    between atoms: C2_2  and  N1_3 
REMARK    2  A    between atoms: C2_2  and  C3_7 
REMARK       I    between atoms: C3_7  and  N2_9 
REMARK    3  A    between atoms: N2_9  and  C4_11 
REMARK    4  A    between atoms: C6_15  and  C7_16 
REMARK    5  A    between atoms: C8_21  and  N6_22 
REMARK       I    between atoms: N6_22  and  C9_24 
REMARK    6  A    between atoms: C9_24  and  C10_26 
REMARK       I    between atoms: C10_26  and  N7_28 
REMARK    7  A    between atoms: N7_28  and  O5_30 
ROOT
HETATM    1  C4  UNL     1      38.160  -0.557  15.337  1.00  0.00     0.095 A 
HETATM    2  C5  UNL     1      37.859  -1.163  16.536  1.00  0.00     0.123 A 
HETATM    3  N3  UNL     1      37.808  -0.435  17.689  1.00  0.00    -0.346 N 
ATOM      4  H3  UNL     1      37.582  -0.917  18.560  1.00  0.00     0.167 HD
HETATM    5  C6  UNL     1      38.040   0.881  17.731  1.00  0.00     0.173 A 
HETATM    6  N5  UNL     1      38.334   1.489  16.581  1.00  0.00    -0.322 N 
ATOM      7  H5  UNL     1      38.516   2.492  16.584  1.00  0.00     0.169 HD
HETATM    8  C8  UNL     1      38.397   0.818  15.420  1.00  0.00     0.138 A 
ENDROOT
BRANCH   1   9
HETATM    9  N2  UNL     1      38.238  -1.218  14.096  1.00  0.00    -0.321 N 
HETATM   10  C3  UNL     1      37.408  -2.255  13.612  1.00  0.00     0.252 C 
HETATM   11  O1  UNL     1      36.445  -2.767  14.223  1.00  0.00    -0.271 OA
ATOM     12  H2  UNL     1      38.984  -0.912  13.471  1.00  0.00     0.169 HD
BRANCH  10  13
HETATM   13  C2  UNL     1      37.756  -2.758  12.224  1.00  0.00     0.271 C 
HETATM   14  C1  UNL     1      39.260  -2.736  12.035  1.00  0.00     0.050 C 
BRANCH  13  15
HETATM   15  N1  UNL     1      37.109  -1.866  11.286  1.00  0.00    -0.067 N 
ATOM     16  H13 UNL     1      36.893  -2.335  10.406  1.00  0.00     0.275 HD
ATOM     17  H12 UNL     1      36.158  -1.639  11.575  1.00  0.00     0.275 HD
ATOM     18  H11 UNL     1      37.670  -1.027  11.139  1.00  0.00     0.275 HD
ENDBRANCH  13  15
ENDBRANCH  10  13
ENDBRANCH   1   9
BRANCH   8  19
HETATM   19  N6  UNL     1      38.685   1.433  14.320  1.00  0.00    -0.303 N 
HETATM   20  C9  UNL     1      37.663   1.704  13.400  1.00  0.00     0.317 C 
HETATM   21  O3  UNL     1      37.548   1.013  12.368  1.00  0.00    -0.262 OA
ATOM     22  H6  UNL     1      39.645   1.717  14.124  1.00  0.00     0.171 HD
BRANCH  20  23
HETATM   23  C10 UNL     1      36.738   2.796  13.664  1.00  0.00     0.334 C 
HETATM   24  O4  UNL     1      35.533   2.532  13.911  1.00  0.00    -0.260 OA
HETATM   25  N7  UNL     1      37.146   4.152  13.654  1.00  0.00    -0.225 N 
HETATM   26  C11 UNL     1      38.507   4.569  13.381  1.00  0.00     0.189 C 
BRANCH  25  27
HETATM   27  O5  UNL     1      36.223   5.107  13.911  1.00  0.00    -0.285 OA
ATOM     28  H5  UNL     1      36.465   6.017  13.788  1.00  0.00     0.245 HD
ENDBRANCH  25  27
ENDBRANCH  20  23
ENDBRANCH   8  19
BRANCH   5  29
HETATM   29  C7  UNL     1      37.978   1.634  18.981  1.00  0.00     0.298 C 
HETATM   30  N4  UNL     1      38.129   1.013  20.245  1.00  0.00    -0.054 NA
HETATM   31  O2  UNL     1      37.784   2.875  18.973  1.00  0.00    -0.268 OA
ENDBRANCH   5  29
TORSDOF 7
ENDMDL
MODEL 5
REMARK VINA RESULT: -5.557794482      1.735      5.461
REMARK  7 active torsions:
REMARK  status: ('A' for Active; 'I' for Inactive)
REMARK    1  A    between atoms: C2_2  and  N1_3 
REMARK    2  A    between atoms: C2_2  and  C3_7 
REMARK       I    between atoms: C3_7  and  N2_9 
REMARK    3  A    between atoms: N2_9  and  C4_11 
REMARK    4  A    between atoms: C6_15  and  C7_16 
REMARK    5  A    between atoms: C8_21  and  N6_22 
REMARK       I    between atoms: N6_22  and  C9_24 
REMARK    6  A    between atoms: C9_24  and  C10_26 
REMARK       I    between atoms: C10_26  and  N7_28 
REMARK    7  A    between atoms: N7_28  and  O5_30 
ROOT
HETATM    1  C4  UNL     1      35.696  -3.059  11.867  1.00  0.00     0.095 A 
HETATM    2  C5  UNL     1      34.987  -1.880  11.838  1.00  0.00     0.123 A 
HETATM    3  N3  UNL     1      35.614  -0.686  12.057  1.00  0.00    -0.346 N 
ATOM      4  H3  UNL     1      35.057   0.168  12.028  1.00  0.00     0.167 HD
HETATM    5  C6  UNL     1      36.923  -0.586  12.307  1.00  0.00     0.173 A 
HETATM    6  N5  UNL     1      37.629  -1.716  12.341  1.00  0.00    -0.322 N 
ATOM      7  H5  UNL     1      38.630  -1.669  12.530  1.00  0.00     0.169 HD
HETATM    8  C8  UNL     1      37.062  -2.915  12.133  1.00  0.00     0.138 A 
ENDROOT
BRANCH   1   9
HETATM    9  N2  UNL     1      35.145  -4.337  11.655  1.00  0.00    -0.321 N 
HETATM   10  C3  UNL     1      34.603  -5.219  12.618  1.00  0.00     0.252 C 
HETATM   11  O1  UNL     1      34.524  -5.001  13.847  1.00  0.00    -0.271 OA
ATOM     12  H2  UNL     1      35.136  -4.667  10.690  1.00  0.00     0.169 HD
BRANCH  10  13
HETATM   13  C2  UNL     1      34.086  -6.533  12.064  1.00  0.00     0.271 C 
HETATM   14  C1  UNL     1      34.868  -6.905  10.820  1.00  0.00     0.050 C 
BRANCH  13  15
HETATM   15  N1  UNL     1      32.688  -6.327  11.748  1.00  0.00    -0.067 N 
ATOM     16  H13 UNL     1      32.229  -5.730  12.436  1.00  0.00     0.275 HD
ATOM     17  H12 UNL     1      32.570  -5.734  10.928  1.00  0.00     0.275 HD
ATOM     18  H11 UNL     1      32.207  -7.220  11.642  1.00  0.00     0.275 HD
ENDBRANCH  13  15
ENDBRANCH  10  13
ENDBRANCH   1   9
BRANCH   8  19
HETATM   19  N6  UNL     1      37.770  -3.994  12.171  1.00  0.00    -0.303 N 
HETATM   20  C9  UNL     1      38.770  -4.122  13.146  1.00  0.00     0.317 C 
HETATM   21  O3  UNL     1      39.969  -3.973  12.838  1.00  0.00    -0.262 OA
ATOM     22  H6  UNL     1      37.605  -4.744  11.500  1.00  0.00     0.171 HD
BRANCH  20  23
HETATM   23  C10 UNL     1      38.393  -4.427  14.518  1.00  0.00     0.334 C 
HETATM   24  O4  UNL     1      37.974  -5.580  14.795  1.00  0.00    -0.260 OA
HETATM   25  N7  UNL     1      38.482  -3.471  15.558  1.00  0.00    -0.225 N 
HETATM   26  C11 UNL     1      38.950  -2.115  15.350  1.00  0.00     0.189 C 
BRANCH  25  27
HETATM   27  O5  UNL     1      38.113  -3.836  16.807  1.00  0.00    -0.285 OA
ATOM     28  H5  UNL     1      37.973  -3.158  17.456  1.00  0.00     0.245 HD
ENDBRANCH  25  27
ENDBRANCH  20  23
ENDBRANCH   8  19
BRANCH   5  29
HETATM   29  C7  UNL     1      37.565   0.705  12.538  1.00  0.00     0.298 C 
HETATM   30  N4  UNL     1      36.839   1.921  12.537  1.00  0.00    -0.054 NA
HETATM   31  O2  UNL     1      38.802   0.778  12.746  1.00  0.00    -0.268 OA
ENDBRANCH   5  29
TORSDOF 7
ENDMDL
