MODEL 1
REMARK VINA RESULT: -8.005295085      0.000      0.000
REMARK  17 active torsions:
REMARK  status: ('A' for Active; 'I' for Inactive)
REMARK    1  A    between atoms: O1_2  and  C2_3 
REMARK    2  A    between atoms: N1_5  and  C4_6 
REMARK    3  A    between atoms: C9_13  and  S1_14 
REMARK    4  A    between atoms: S1_14  and  C10_15 
REMARK    5  A    between atoms: C10_15  and  C11_16 
REMARK    6  A    between atoms: C11_16  and  C12_17 
REMARK    7  A    between atoms: C12_17  and  C13_18 
REMARK    8  A    between atoms: C13_18  and  C14_19 
REMARK    9  A    between atoms: C14_19  and  S2_20 
REMARK   10  A    between atoms: S2_20  and  N4_21 
REMARK   11  A    between atoms: S2_20  and  N5_24 
REMARK       I    between atoms: N5_24  and  C15_26 
REMARK   12  A    between atoms: N7_29  and  C16_30 
REMARK   13  A    between atoms: C17_32  and  S3_33 
REMARK   14  A    between atoms: C18_35  and  O4_36 
REMARK   15  A    between atoms: C19_38  and  O5_39 
REMARK   16  A    between atoms: C21_42  and  O6_43 
REMARK   17  A    between atoms: C23_46  and  N8_47 
ROOT
HETATM    1  C4  UNL     1     -35.771  22.154  13.719  1.00  0.00     0.068 A 
HETATM    2  C5  UNL     1     -36.931  22.628  14.307  1.00  0.00     0.059 A 
HETATM    3  C6  UNL     1     -37.989  22.971  13.519  1.00  0.00     0.063 A 
HETATM    4  N2  UNL     1     -39.167  23.453  14.145  1.00  0.00    -0.101 NA
HETATM    5  C7  UNL     1     -37.914  22.852  12.138  1.00  0.00     0.045 A 
HETATM    6  C8  UNL     1     -38.811  23.111  11.123  1.00  0.00     0.095 A 
HETATM    7  N3  UNL     1     -40.122  23.596  11.395  1.00  0.00    -0.098 NA
HETATM    8  C9  UNL     1     -38.222  22.806   9.912  1.00  0.00     0.104 A 
HETATM    9  N7  UNL     1     -36.943  22.353  10.175  1.00  0.00    -0.282 N 
HETATM   10  C20 UNL     1     -36.770  22.383  11.500  1.00  0.00     0.091 A 
HETATM   11  C21 UNL     1     -35.721  22.045  12.365  1.00  0.00     0.120 A 
ENDROOT
BRANCH   8  12
HETATM   12  S1  UNL     1     -39.003  22.951   8.361  1.00  0.00    -0.110 SA
BRANCH  12  13
HETATM   13  C10 UNL     1     -39.975  21.737   7.638  1.00  0.00     0.081 C 
BRANCH  13  14
HETATM   14  C11 UNL     1     -39.896  21.323   6.228  1.00  0.00     0.010 C 
BRANCH  14  15
HETATM   15  C12 UNL     1     -40.137  19.880   6.014  1.00  0.00     0.002 C 
BRANCH  15  16
HETATM   16  C13 UNL     1     -40.997  19.646   4.767  1.00  0.00     0.013 C 
BRANCH  16  17
HETATM   17  C14 UNL     1     -42.443  19.820   5.198  1.00  0.00     0.107 C 
BRANCH  17  18
HETATM   18  S2  UNL     1     -43.505  19.616   3.760  1.00  0.00    -0.033 SA
BRANCH  18  19
HETATM   19  N4  UNL     1     -43.286  18.207   3.136  1.00  0.00    -0.367 NA
ATOM     20  H42 UNL     1     -43.493  18.185   2.137  1.00  0.00     0.165 HD
ATOM     21  H41 UNL     1     -43.884  17.524   3.601  1.00  0.00     0.165 HD
ENDBRANCH  18  19
BRANCH  18  22
HETATM   22  N5  UNL     1     -45.152  19.876   4.258  1.00  0.00    -0.278 N 
HETATM   23  C15 UNL     1     -45.795  19.004   5.147  1.00  0.00     0.339 C 
HETATM   24  N6  UNL     1     -47.148  19.269   5.520  1.00  0.00    -0.039 NA
HETATM   25  O2  UNL     1     -45.174  18.014   5.597  1.00  0.00    -0.250 OA
ATOM     26  H5  UNL     1     -45.662  20.682   3.895  1.00  0.00     0.179 HD
ENDBRANCH  18  22
ENDBRANCH  17  18
ENDBRANCH  16  17
ENDBRANCH  15  16
ENDBRANCH  14  15
ENDBRANCH  13  14
ENDBRANCH  12  13
ENDBRANCH   8  12
BRANCH   9  27
HETATM   27  C16 UNL     1     -36.015  21.936   9.180  1.00  0.00     0.159 C 
HETATM   28  O3  UNL     1     -35.058  22.859   8.839  1.00  0.00    -0.317 OA
HETATM   29  C17 UNL     1     -34.362  22.283   7.796  1.00  0.00     0.235 C 
HETATM   30  C18 UNL     1     -35.139  21.125   7.243  1.00  0.00     0.195 C 
HETATM   31  C19 UNL     1     -36.495  21.242   7.974  1.00  0.00     0.225 C 
BRANCH  29  32
HETATM   32  S3  UNL     1     -32.721  21.818   8.416  1.00  0.00    -0.050 SA
HETATM   33  S4  UNL     1     -32.115  22.994  10.050  1.00  0.00    -0.011 SA
ENDBRANCH  29  32
BRANCH  30  34
HETATM   34  O4  UNL     1     -35.309  21.151   5.882  1.00  0.00    -0.389 OA
ATOM     35  H4  UNL     1     -35.239  20.303   5.460  1.00  0.00     0.210 HD
ENDBRANCH  30  34
BRANCH  31  36
HETATM   36  O5  UNL     1     -36.891  19.911   8.148  1.00  0.00    -0.385 OA
ATOM     37  H5  UNL     1     -37.743  19.778   8.547  1.00  0.00     0.210 HD
ENDBRANCH  31  36
ENDBRANCH   9  27
BRANCH  11  38
HETATM   38  O6  UNL     1     -34.586  21.569  11.775  1.00  0.00    -0.356 OA
ATOM     39  H6  UNL     1     -34.658  21.025  11.000  1.00  0.00     0.218 HD
ENDBRANCH  11  38
BRANCH   1  40
HETATM   40  N1  UNL     1     -34.640  21.829  14.521  1.00  0.00    -0.374 N 
HETATM   41  C3  UNL     1     -33.591  22.759  14.859  1.00  0.00     0.157 C 
HETATM   42  C2  UNL     1     -33.002  22.226  16.157  1.00  0.00     0.170 C 
HETATM   43  C23 UNL     1     -33.147  20.745  16.000  1.00  0.00     0.231 C 
HETATM   44  C22 UNL     1     -34.336  20.554  15.129  1.00  0.00     0.158 C 
BRANCH  42  45
HETATM   45  O1  UNL     1     -31.639  22.510  16.209  1.00  0.00    -0.387 OA
HETATM   46  C1  UNL     1     -31.417  23.883  16.257  1.00  0.00     0.202 C 
ENDBRANCH  42  45
BRANCH  43  47
HETATM   47  N8  UNL     1     -31.931  20.184  15.450  1.00  0.00    -0.071 N 
ATOM     48  H83 UNL     1     -31.820  19.199  15.694  1.00  0.00     0.274 HD
ATOM     49  H82 UNL     1     -31.981  20.082  14.437  1.00  0.00     0.274 HD
ATOM     50  H81 UNL     1     -31.128  20.742  15.739  1.00  0.00     0.274 HD
ENDBRANCH  43  47
ENDBRANCH   1  40
TORSDOF 17
ENDMDL
MODEL 2
REMARK VINA RESULT: -7.739376580      1.428      2.015
REMARK  17 active torsions:
REMARK  status: ('A' for Active; 'I' for Inactive)
REMARK    1  A    between atoms: O1_2  and  C2_3 
REMARK    2  A    between atoms: N1_5  and  C4_6 
REMARK    3  A    between atoms: C9_13  and  S1_14 
REMARK    4  A    between atoms: S1_14  and  C10_15 
REMARK    5  A    between atoms: C10_15  and  C11_16 
REMARK    6  A    between atoms: C11_16  and  C12_17 
REMARK    7  A    between atoms: C12_17  and  C13_18 
REMARK    8  A    between atoms: C13_18  and  C14_19 
REMARK    9  A    between atoms: C14_19  and  S2_20 
REMARK   10  A    between atoms: S2_20  and  N4_21 
REMARK   11  A    between atoms: S2_20  and  N5_24 
REMARK       I    between atoms: N5_24  and  C15_26 
REMARK   12  A    between atoms: N7_29  and  C16_30 
REMARK   13  A    between atoms: C17_32  and  S3_33 
REMARK   14  A    between atoms: C18_35  and  O4_36 
REMARK   15  A    between atoms: C19_38  and  O5_39 
REMARK   16  A    between atoms: C21_42  and  O6_43 
REMARK   17  A    between atoms: C23_46  and  N8_47 
ROOT
HETATM    1  C4  UNL     1     -35.782  22.255  13.726  1.00  0.00     0.068 A 
HETATM    2  C5  UNL     1     -37.004  22.467  14.341  1.00  0.00     0.059 A 
HETATM    3  C6  UNL     1     -38.076  22.845  13.589  1.00  0.00     0.063 A 
HETATM    4  N2  UNL     1     -39.317  23.056  14.242  1.00  0.00    -0.101 NA
HETATM    5  C7  UNL     1     -37.954  23.020  12.217  1.00  0.00     0.045 A 
HETATM    6  C8  UNL     1     -38.850  23.379  11.233  1.00  0.00     0.095 A 
HETATM    7  N3  UNL     1     -40.217  23.651  11.535  1.00  0.00    -0.098 NA
HETATM    8  C9  UNL     1     -38.201  23.396  10.015  1.00  0.00     0.104 A 
HETATM    9  N7  UNL     1     -36.885  23.042  10.242  1.00  0.00    -0.282 N 
HETATM   10  C20 UNL     1     -36.748  22.820  11.554  1.00  0.00     0.091 A 
HETATM   11  C21 UNL     1     -35.687  22.430  12.381  1.00  0.00     0.120 A 
ENDROOT
BRANCH   8  12
HETATM   12  S1  UNL     1     -38.956  23.767   8.489  1.00  0.00    -0.110 SA
BRANCH  12  13
HETATM   13  C10 UNL     1     -39.321  22.615   7.272  1.00  0.00     0.081 C 
BRANCH  13  14
HETATM   14  C11 UNL     1     -39.416  22.911   5.834  1.00  0.00     0.010 C 
BRANCH  14  15
HETATM   15  C12 UNL     1     -40.558  22.254   5.162  1.00  0.00     0.002 C 
BRANCH  15  16
HETATM   16  C13 UNL     1     -40.905  20.925   5.840  1.00  0.00     0.013 C 
BRANCH  16  17
HETATM   17  C14 UNL     1     -41.801  20.166   4.877  1.00  0.00     0.107 C 
BRANCH  17  18
HETATM   18  S2  UNL     1     -43.021  19.244   5.824  1.00  0.00    -0.033 SA
BRANCH  18  19
HETATM   19  N4  UNL     1     -42.954  19.661   7.322  1.00  0.00    -0.367 NA
ATOM     20  H42 UNL     1     -42.035  19.498   7.733  1.00  0.00     0.165 HD
ATOM     21  H41 UNL     1     -43.642  19.134   7.860  1.00  0.00     0.165 HD
ENDBRANCH  18  19
BRANCH  18  22
HETATM   22  N5  UNL     1     -44.587  19.531   5.120  1.00  0.00    -0.278 N 
HETATM   23  C15 UNL     1     -45.765  19.122   5.761  1.00  0.00     0.339 C 
HETATM   24  N6  UNL     1     -47.020  19.386   5.135  1.00  0.00    -0.039 NA
HETATM   25  O2  UNL     1     -45.694  18.537   6.866  1.00  0.00    -0.250 OA
ATOM     26  H5  UNL     1     -44.650  20.008   4.221  1.00  0.00     0.179 HD
ENDBRANCH  18  22
ENDBRANCH  17  18
ENDBRANCH  16  17
ENDBRANCH  15  16
ENDBRANCH  14  15
ENDBRANCH  13  14
ENDBRANCH  12  13
ENDBRANCH   8  12
BRANCH   9  27
HETATM   27  C16 UNL     1     -35.890  22.943   9.229  1.00  0.00     0.159 C 
HETATM   28  O3  UNL     1     -35.411  21.678   8.992  1.00  0.00    -0.317 OA
HETATM   29  C17 UNL     1     -34.396  21.847   8.073  1.00  0.00     0.235 C 
HETATM   30  C18 UNL     1     -34.001  23.293   8.011  1.00  0.00     0.195 C 
HETATM   31  C19 UNL     1     -34.785  23.914   9.189  1.00  0.00     0.225 C 
BRANCH  29  32
HETATM   32  S3  UNL     1     -34.974  21.191   6.483  1.00  0.00    -0.050 SA
HETATM   33  S4  UNL     1     -36.843  20.240   6.636  1.00  0.00    -0.011 SA
ENDBRANCH  29  32
BRANCH  30  34
HETATM   34  O4  UNL     1     -32.654  23.522   8.141  1.00  0.00    -0.389 OA
ATOM     35  H4  UNL     1     -32.373  23.727   9.024  1.00  0.00     0.210 HD
ENDBRANCH  30  34
BRANCH  31  36
HETATM   36  O5  UNL     1     -35.110  25.195   8.730  1.00  0.00    -0.385 OA
ATOM     37  H5  UNL     1     -34.376  25.769   8.541  1.00  0.00     0.210 HD
ENDBRANCH  31  36
ENDBRANCH   9  27
BRANCH  11  38
HETATM   38  O6  UNL     1     -34.490  22.214  11.763  1.00  0.00    -0.356 OA
ATOM     39  H6  UNL     1     -33.705  22.613  12.119  1.00  0.00     0.218 HD
ENDBRANCH  11  38
BRANCH   1  40
HETATM   40  N1  UNL     1     -34.641  21.900  14.500  1.00  0.00    -0.374 N 
HETATM   41  C3  UNL     1     -33.681  22.846  15.012  1.00  0.00     0.157 C 
HETATM   42  C2  UNL     1     -33.069  22.163  16.225  1.00  0.00     0.170 C 
HETATM   43  C23 UNL     1     -33.084  20.720  15.832  1.00  0.00     0.231 C 
HETATM   44  C22 UNL     1     -34.238  20.573  14.907  1.00  0.00     0.158 C 
BRANCH  42  45
HETATM   45  O1  UNL     1     -31.737  22.546  16.362  1.00  0.00    -0.387 OA
HETATM   46  C1  UNL     1     -31.607  23.930  16.296  1.00  0.00     0.202 C 
ENDBRANCH  42  45
BRANCH  43  47
HETATM   47  N8  UNL     1     -31.816  20.356  15.236  1.00  0.00    -0.071 N 
ATOM     48  H83 UNL     1     -31.716  20.727  14.291  1.00  0.00     0.274 HD
ATOM     49  H82 UNL     1     -31.034  20.846  15.671  1.00  0.00     0.274 HD
ATOM     50  H81 UNL     1     -31.695  19.344  15.265  1.00  0.00     0.274 HD
ENDBRANCH  43  47
ENDBRANCH   1  40
TORSDOF 17
ENDMDL
MODEL 3
REMARK VINA RESULT: -7.720876368      3.397      3.957
REMARK  17 active torsions:
REMARK  status: ('A' for Active; 'I' for Inactive)
REMARK    1  A    between atoms: O1_2  and  C2_3 
REMARK    2  A    between atoms: N1_5  and  C4_6 
REMARK    3  A    between atoms: C9_13  and  S1_14 
REMARK    4  A    between atoms: S1_14  and  C10_15 
REMARK    5  A    between atoms: C10_15  and  C11_16 
REMARK    6  A    between atoms: C11_16  and  C12_17 
REMARK    7  A    between atoms: C12_17  and  C13_18 
REMARK    8  A    between atoms: C13_18  and  C14_19 
REMARK    9  A    between atoms: C14_19  and  S2_20 
REMARK   10  A    between atoms: S2_20  and  N4_21 
REMARK   11  A    between atoms: S2_20  and  N5_24 
REMARK       I    between atoms: N5_24  and  C15_26 
REMARK   12  A    between atoms: N7_29  and  C16_30 
REMARK   13  A    between atoms: C17_32  and  S3_33 
REMARK   14  A    between atoms: C18_35  and  O4_36 
REMARK   15  A    between atoms: C19_38  and  O5_39 
REMARK   16  A    between atoms: C21_42  and  O6_43 
REMARK   17  A    between atoms: C23_46  and  N8_47 
ROOT
HETATM    1  C4  UNL     1     -35.904  22.146  13.635  1.00  0.00     0.068 A 
HETATM    2  C5  UNL     1     -37.106  22.552  14.189  1.00  0.00     0.059 A 
HETATM    3  C6  UNL     1     -38.122  22.945  13.371  1.00  0.00     0.063 A 
HETATM    4  N2  UNL     1     -39.343  23.357  13.963  1.00  0.00    -0.101 NA
HETATM    5  C7  UNL     1     -37.964  22.944  11.992  1.00  0.00     0.045 A 
HETATM    6  C8  UNL     1     -38.805  23.273  10.950  1.00  0.00     0.095 A 
HETATM    7  N3  UNL     1     -40.140  23.716  11.183  1.00  0.00    -0.098 NA
HETATM    8  C9  UNL     1     -38.141  23.079   9.756  1.00  0.00     0.104 A 
HETATM    9  N7  UNL     1     -36.872  22.624  10.056  1.00  0.00    -0.282 N 
HETATM   10  C20 UNL     1     -36.777  22.545  11.387  1.00  0.00     0.091 A 
HETATM   11  C21 UNL     1     -35.774  22.150  12.282  1.00  0.00     0.120 A 
ENDROOT
BRANCH   8  12
HETATM   12  S1  UNL     1     -38.832  23.343   8.178  1.00  0.00    -0.110 SA
BRANCH  12  13
HETATM   13  C10 UNL     1     -39.543  22.121   7.205  1.00  0.00     0.081 C 
BRANCH  13  14
HETATM   14  C11 UNL     1     -39.963  22.298   5.806  1.00  0.00     0.010 C 
BRANCH  14  15
HETATM   15  C12 UNL     1     -39.324  23.447   5.129  1.00  0.00     0.002 C 
BRANCH  15  16
HETATM   16  C13 UNL     1     -40.008  23.746   3.792  1.00  0.00     0.013 C 
BRANCH  16  17
HETATM   17  C14 UNL     1     -41.391  24.282   4.121  1.00  0.00     0.107 C 
BRANCH  17  18
HETATM   18  S2  UNL     1     -41.808  25.576   2.942  1.00  0.00    -0.033 SA
BRANCH  18  19
HETATM   19  N4  UNL     1     -43.271  26.053   3.175  1.00  0.00    -0.367 NA
ATOM     20  H42 UNL     1     -43.477  26.216   4.160  1.00  0.00     0.165 HD
ATOM     21  H41 UNL     1     -43.924  25.353   2.824  1.00  0.00     0.165 HD
ENDBRANCH  18  19
BRANCH  18  22
HETATM   22  N5  UNL     1     -40.650  26.865   3.117  1.00  0.00    -0.278 N 
HETATM   23  C15 UNL     1     -40.830  28.102   2.483  1.00  0.00     0.339 C 
HETATM   24  N6  UNL     1     -39.846  29.121   2.664  1.00  0.00    -0.039 NA
HETATM   25  O2  UNL     1     -41.845  28.290   1.775  1.00  0.00    -0.250 OA
ATOM     26  H5  UNL     1     -39.822  26.716   3.694  1.00  0.00     0.179 HD
ENDBRANCH  18  22
ENDBRANCH  17  18
ENDBRANCH  16  17
ENDBRANCH  15  16
ENDBRANCH  14  15
ENDBRANCH  13  14
ENDBRANCH  12  13
ENDBRANCH   8  12
BRANCH   9  27
HETATM   27  C16 UNL     1     -35.879  22.304   9.087  1.00  0.00     0.159 C 
HETATM   28  O3  UNL     1     -35.229  23.377   8.530  1.00  0.00    -0.317 OA
HETATM   29  C17 UNL     1     -34.415  22.835   7.557  1.00  0.00     0.235 C 
HETATM   30  C18 UNL     1     -34.840  21.426   7.264  1.00  0.00     0.195 C 
HETATM   31  C19 UNL     1     -36.162  21.297   8.053  1.00  0.00     0.225 C 
BRANCH  29  32
HETATM   32  S3  UNL     1     -32.700  22.962   8.136  1.00  0.00    -0.050 SA
HETATM   33  S4  UNL     1     -32.096  21.280   9.244  1.00  0.00    -0.011 SA
ENDBRANCH  29  32
BRANCH  30  34
HETATM   34  O4  UNL     1     -35.032  21.155   5.932  1.00  0.00    -0.389 OA
ATOM     35  H4  UNL     1     -34.906  21.900   5.356  1.00  0.00     0.210 HD
ENDBRANCH  30  34
BRANCH  31  36
HETATM   36  O5  UNL     1     -36.162  19.963   8.478  1.00  0.00    -0.385 OA
ATOM     37  H5  UNL     1     -35.581  19.376   8.008  1.00  0.00     0.210 HD
ENDBRANCH  31  36
ENDBRANCH   9  27
BRANCH  11  38
HETATM   38  O6  UNL     1     -34.597  21.742  11.724  1.00  0.00    -0.356 OA
ATOM     39  H6  UNL     1     -34.588  20.968  11.174  1.00  0.00     0.218 HD
ENDBRANCH  11  38
BRANCH   1  40
HETATM   40  N1  UNL     1     -34.816  21.771  14.473  1.00  0.00    -0.374 N 
HETATM   41  C3  UNL     1     -33.695  22.624  14.777  1.00  0.00     0.157 C 
HETATM   42  C2  UNL     1     -33.170  22.117  16.113  1.00  0.00     0.170 C 
HETATM   43  C23 UNL     1     -33.443  20.648  16.037  1.00  0.00     0.231 C 
HETATM   44  C22 UNL     1     -34.633  20.511  15.157  1.00  0.00     0.158 C 
BRANCH  42  45
HETATM   45  O1  UNL     1     -31.789  22.285  16.173  1.00  0.00    -0.387 OA
HETATM   46  C1  UNL     1     -31.354  23.195  15.214  1.00  0.00     0.202 C 
ENDBRANCH  42  45
BRANCH  43  47
HETATM   47  N8  UNL     1     -32.274  19.953  15.541  1.00  0.00    -0.071 N 
ATOM     48  H83 UNL     1     -32.507  19.034  15.162  1.00  0.00     0.274 HD
ATOM     49  H82 UNL     1     -31.909  20.377  14.688  1.00  0.00     0.274 HD
ATOM     50  H81 UNL     1     -31.566  19.896  16.272  1.00  0.00     0.274 HD
ENDBRANCH  43  47
ENDBRANCH   1  40
TORSDOF 17
ENDMDL
MODEL 4
REMARK VINA RESULT: -7.713679827      2.724      3.166
REMARK  17 active torsions:
REMARK  status: ('A' for Active; 'I' for Inactive)
REMARK    1  A    between atoms: O1_2  and  C2_3 
REMARK    2  A    between atoms: N1_5  and  C4_6 
REMARK    3  A    between atoms: C9_13  and  S1_14 
REMARK    4  A    between atoms: S1_14  and  C10_15 
REMARK    5  A    between atoms: C10_15  and  C11_16 
REMARK    6  A    between atoms: C11_16  and  C12_17 
REMARK    7  A    between atoms: C12_17  and  C13_18 
REMARK    8  A    between atoms: C13_18  and  C14_19 
REMARK    9  A    between atoms: C14_19  and  S2_20 
REMARK   10  A    between atoms: S2_20  and  N4_21 
REMARK   11  A    between atoms: S2_20  and  N5_24 
REMARK       I    between atoms: N5_24  and  C15_26 
REMARK   12  A    between atoms: N7_29  and  C16_30 
REMARK   13  A    between atoms: C17_32  and  S3_33 
REMARK   14  A    between atoms: C18_35  and  O4_36 
REMARK   15  A    between atoms: C19_38  and  O5_39 
REMARK   16  A    between atoms: C21_42  and  O6_43 
REMARK   17  A    between atoms: C23_46  and  N8_47 
ROOT
HETATM    1  C4  UNL     1     -35.870  22.133  13.812  1.00  0.00     0.068 A 
HETATM    2  C5  UNL     1     -37.063  22.583  14.352  1.00  0.00     0.059 A 
HETATM    3  C6  UNL     1     -38.073  22.963  13.519  1.00  0.00     0.063 A 
HETATM    4  N2  UNL     1     -39.285  23.420  14.095  1.00  0.00    -0.101 NA
HETATM    5  C7  UNL     1     -37.917  22.904  12.141  1.00  0.00     0.045 A 
HETATM    6  C8  UNL     1     -38.753  23.208  11.087  1.00  0.00     0.095 A 
HETATM    7  N3  UNL     1     -40.079  23.684  11.303  1.00  0.00    -0.098 NA
HETATM    8  C9  UNL     1     -38.094  22.955   9.901  1.00  0.00     0.104 A 
HETATM    9  N7  UNL     1     -36.833  22.488  10.218  1.00  0.00    -0.282 N 
HETATM   10  C20 UNL     1     -36.738  22.460  11.552  1.00  0.00     0.091 A 
HETATM   11  C21 UNL     1     -35.741  22.082  12.460  1.00  0.00     0.120 A 
ENDROOT
BRANCH   8  12
HETATM   12  S1  UNL     1     -38.783  23.169   8.315  1.00  0.00    -0.110 SA
BRANCH  12  13
HETATM   13  C10 UNL     1     -39.727  21.997   7.492  1.00  0.00     0.081 C 
BRANCH  13  14
HETATM   14  C11 UNL     1     -39.304  21.271   6.284  1.00  0.00     0.010 C 
BRANCH  14  15
HETATM   15  C12 UNL     1     -40.418  20.639   5.544  1.00  0.00     0.002 C 
BRANCH  15  16
HETATM   16  C13 UNL     1     -41.334  21.697   4.921  1.00  0.00     0.013 C 
BRANCH  16  17
HETATM   17  C14 UNL     1     -40.618  22.219   3.687  1.00  0.00     0.107 C 
BRANCH  17  18
HETATM   18  S2  UNL     1     -40.287  23.973   3.906  1.00  0.00    -0.033 SA
BRANCH  18  19
HETATM   19  N4  UNL     1     -39.066  24.395   3.038  1.00  0.00    -0.367 NA
ATOM     20  H42 UNL     1     -39.204  25.295   2.579  1.00  0.00     0.165 HD
ATOM     21  H41 UNL     1     -38.892  23.693   2.319  1.00  0.00     0.165 HD
ENDBRANCH  18  19
BRANCH  18  22
HETATM   22  N5  UNL     1     -41.732  24.855   3.498  1.00  0.00    -0.278 N 
HETATM   23  C15 UNL     1     -41.679  26.182   3.051  1.00  0.00     0.339 C 
HETATM   24  N6  UNL     1     -42.898  26.853   2.731  1.00  0.00    -0.039 NA
HETATM   25  O2  UNL     1     -40.570  26.751   2.941  1.00  0.00    -0.250 OA
ATOM     26  H5  UNL     1     -42.638  24.394   3.585  1.00  0.00     0.179 HD
ENDBRANCH  18  22
ENDBRANCH  17  18
ENDBRANCH  16  17
ENDBRANCH  15  16
ENDBRANCH  14  15
ENDBRANCH  13  14
ENDBRANCH  12  13
ENDBRANCH   8  12
BRANCH   9  27
HETATM   27  C16 UNL     1     -35.848  22.113   9.262  1.00  0.00     0.159 C 
HETATM   28  O3  UNL     1     -34.961  23.099   8.907  1.00  0.00    -0.317 OA
HETATM   29  C17 UNL     1     -34.193  22.544   7.904  1.00  0.00     0.235 C 
HETATM   30  C18 UNL     1     -34.858  21.305   7.380  1.00  0.00     0.195 C 
HETATM   31  C19 UNL     1     -36.238  21.337   8.074  1.00  0.00     0.225 C 
BRANCH  29  32
HETATM   32  S3  UNL     1     -32.537  22.241   8.579  1.00  0.00    -0.050 SA
HETATM   33  S4  UNL     1     -31.020  23.115   7.415  1.00  0.00    -0.011 SA
ENDBRANCH  29  32
BRANCH  30  34
HETATM   34  O4  UNL     1     -34.994  21.266   6.015  1.00  0.00    -0.389 OA
ATOM     35  H4  UNL     1     -35.892  21.296   5.707  1.00  0.00     0.210 HD
ENDBRANCH  30  34
BRANCH  31  36
HETATM   36  O5  UNL     1     -36.527  19.985   8.291  1.00  0.00    -0.385 OA
ATOM     37  H5  UNL     1     -36.014  19.363   7.790  1.00  0.00     0.210 HD
ENDBRANCH  31  36
ENDBRANCH   9  27
BRANCH  11  38
HETATM   38  O6  UNL     1     -34.573  21.631  11.918  1.00  0.00    -0.356 OA
ATOM     39  H6  UNL     1     -34.250  20.771  12.161  1.00  0.00     0.218 HD
ENDBRANCH  11  38
BRANCH   1  40
HETATM   40  N1  UNL     1     -34.788  21.771  14.664  1.00  0.00    -0.374 N 
HETATM   41  C3  UNL     1     -33.639  22.605  14.916  1.00  0.00     0.157 C 
HETATM   42  C2  UNL     1     -33.121  22.156  16.274  1.00  0.00     0.170 C 
HETATM   43  C23 UNL     1     -33.437  20.694  16.279  1.00  0.00     0.231 C 
HETATM   44  C22 UNL     1     -34.637  20.545  15.414  1.00  0.00     0.158 C 
BRANCH  42  45
HETATM   45  O1  UNL     1     -31.735  22.285  16.318  1.00  0.00    -0.387 OA
HETATM   46  C1  UNL     1     -31.338  23.551  15.901  1.00  0.00     0.202 C 
ENDBRANCH  42  45
BRANCH  43  47
HETATM   47  N8  UNL     1     -32.293  19.938  15.815  1.00  0.00    -0.071 N 
ATOM     48  H83 UNL     1     -31.653  20.511  15.265  1.00  0.00     0.274 HD
ATOM     49  H82 UNL     1     -31.659  19.697  16.577  1.00  0.00     0.274 HD
ATOM     50  H81 UNL     1     -32.604  19.113  15.303  1.00  0.00     0.274 HD
ENDBRANCH  43  47
ENDBRANCH   1  40
TORSDOF 17
ENDMDL
MODEL 5
REMARK VINA RESULT: -7.589454455      3.683      9.138
REMARK  17 active torsions:
REMARK  status: ('A' for Active; 'I' for Inactive)
REMARK    1  A    between atoms: O1_2  and  C2_3 
REMARK    2  A    between atoms: N1_5  and  C4_6 
REMARK    3  A    between atoms: C9_13  and  S1_14 
REMARK    4  A    between atoms: S1_14  and  C10_15 
REMARK    5  A    between atoms: C10_15  and  C11_16 
REMARK    6  A    between atoms: C11_16  and  C12_17 
REMARK    7  A    between atoms: C12_17  and  C13_18 
REMARK    8  A    between atoms: C13_18  and  C14_19 
REMARK    9  A    between atoms: C14_19  and  S2_20 
REMARK   10  A    between atoms: S2_20  and  N4_21 
REMARK   11  A    between atoms: S2_20  and  N5_24 
REMARK       I    between atoms: N5_24  and  C15_26 
REMARK   12  A    between atoms: N7_29  and  C16_30 
REMARK   13  A    between atoms: C17_32  and  S3_33 
REMARK   14  A    between atoms: C18_35  and  O4_36 
REMARK   15  A    between atoms: C19_38  and  O5_39 
REMARK   16  A    between atoms: C21_42  and  O6_43 
REMARK   17  A    between atoms: C23_46  and  N8_47 
ROOT
HETATM    1  C4  UNL     1     -38.627  21.366   8.817  1.00  0.00     0.068 A 
HETATM    2  C5  UNL     1     -39.514  22.048   9.632  1.00  0.00     0.059 A 
HETATM    3  C6  UNL     1     -39.034  22.913  10.568  1.00  0.00     0.063 A 
HETATM    4  N2  UNL     1     -39.963  23.600  11.391  1.00  0.00    -0.101 NA
HETATM    5  C7  UNL     1     -37.668  23.116  10.714  1.00  0.00     0.045 A 
HETATM    6  C8  UNL     1     -36.922  23.918  11.551  1.00  0.00     0.095 A 
HETATM    7  N3  UNL     1     -37.540  24.773  12.508  1.00  0.00    -0.098 NA
HETATM    8  C9  UNL     1     -35.582  23.742  11.268  1.00  0.00     0.104 A 
HETATM    9  N7  UNL     1     -35.492  22.819  10.244  1.00  0.00    -0.282 N 
HETATM   10  C20 UNL     1     -36.737  22.454   9.921  1.00  0.00     0.091 A 
HETATM   11  C21 UNL     1     -37.294  21.581   8.977  1.00  0.00     0.120 A 
ENDROOT
BRANCH   8  12
HETATM   12  S1  UNL     1     -34.278  24.580  12.064  1.00  0.00    -0.110 SA
BRANCH  12  13
HETATM   13  C10 UNL     1     -33.103  23.835  13.068  1.00  0.00     0.081 C 
BRANCH  13  14
HETATM   14  C11 UNL     1     -33.397  23.121  14.320  1.00  0.00     0.010 C 
BRANCH  14  15
HETATM   15  C12 UNL     1     -34.483  22.125  14.200  1.00  0.00     0.002 C 
BRANCH  15  16
HETATM   16  C13 UNL     1     -35.755  22.611  14.902  1.00  0.00     0.013 C 
BRANCH  16  17
HETATM   17  C14 UNL     1     -35.306  23.369  16.139  1.00  0.00     0.107 C 
BRANCH  17  18
HETATM   18  S2  UNL     1     -36.238  24.904  16.249  1.00  0.00    -0.033 SA
BRANCH  18  19
HETATM   19  N4  UNL     1     -35.917  25.808  15.023  1.00  0.00    -0.367 NA
ATOM     20  H42 UNL     1     -36.082  26.796  15.212  1.00  0.00     0.165 HD
ATOM     21  H41 UNL     1     -36.496  25.534  14.230  1.00  0.00     0.165 HD
ENDBRANCH  18  19
BRANCH  18  22
HETATM   22  N5  UNL     1     -37.929  24.507  16.362  1.00  0.00    -0.278 N 
HETATM   23  C15 UNL     1     -38.923  25.431  16.012  1.00  0.00     0.339 C 
HETATM   24  N6  UNL     1     -40.294  25.048  16.126  1.00  0.00    -0.039 NA
HETATM   25  O2  UNL     1     -38.593  26.568  15.607  1.00  0.00    -0.250 OA
ATOM     26  H5  UNL     1     -38.203  23.581  16.690  1.00  0.00     0.179 HD
ENDBRANCH  18  22
ENDBRANCH  17  18
ENDBRANCH  16  17
ENDBRANCH  15  16
ENDBRANCH  14  15
ENDBRANCH  13  14
ENDBRANCH  12  13
ENDBRANCH   8  12
BRANCH   9  27
HETATM   27  C16 UNL     1     -34.271  22.371   9.666  1.00  0.00     0.159 C 
HETATM   28  O3  UNL     1     -33.316  21.945  10.556  1.00  0.00    -0.317 OA
HETATM   29  C17 UNL     1     -32.204  21.677   9.785  1.00  0.00     0.235 C 
HETATM   30  C18 UNL     1     -32.364  22.295   8.427  1.00  0.00     0.195 C 
HETATM   31  C19 UNL     1     -33.640  23.151   8.590  1.00  0.00     0.225 C 
BRANCH  29  32
HETATM   32  S3  UNL     1     -31.987  19.876   9.734  1.00  0.00    -0.050 SA
HETATM   33  S4  UNL     1     -32.302  18.973  11.606  1.00  0.00    -0.011 SA
ENDBRANCH  29  32
BRANCH  30  34
HETATM   34  O4  UNL     1     -31.302  23.065   8.023  1.00  0.00    -0.389 OA
ATOM     35  H4  UNL     1     -31.297  23.273   7.097  1.00  0.00     0.210 HD
ENDBRANCH  30  34
BRANCH  31  36
HETATM   36  O5  UNL     1     -34.252  23.071   7.333  1.00  0.00    -0.385 OA
ATOM     37  H5  UNL     1     -34.216  23.857   6.801  1.00  0.00     0.210 HD
ENDBRANCH  31  36
ENDBRANCH   9  27
BRANCH  11  38
HETATM   38  O6  UNL     1     -36.410  20.922   8.172  1.00  0.00    -0.356 OA
ATOM     39  H6  UNL     1     -35.558  21.306   8.006  1.00  0.00     0.218 HD
ENDBRANCH  11  38
BRANCH   1  40
HETATM   40  N1  UNL     1     -39.106  20.426   7.861  1.00  0.00    -0.374 N 
HETATM   41  C3  UNL     1     -40.407  20.490   7.242  1.00  0.00     0.157 C 
HETATM   42  C2  UNL     1     -40.247  19.751   5.922  1.00  0.00     0.170 C 
HETATM   43  C23 UNL     1     -39.242  18.695   6.256  1.00  0.00     0.231 C 
HETATM   44  C22 UNL     1     -38.409  19.270   7.344  1.00  0.00     0.158 C 
BRANCH  42  45
HETATM   45  O1  UNL     1     -41.438  19.107   5.593  1.00  0.00    -0.387 OA
HETATM   46  C1  UNL     1     -42.115  19.794   4.591  1.00  0.00     0.202 C 
ENDBRANCH  42  45
BRANCH  43  47
HETATM   47  N8  UNL     1     -39.916  17.470   6.631  1.00  0.00    -0.071 N 
ATOM     48  H83 UNL     1     -39.525  17.062   7.480  1.00  0.00     0.274 HD
ATOM     49  H82 UNL     1     -40.862  17.643   6.971  1.00  0.00     0.274 HD
ATOM     50  H81 UNL     1     -39.905  16.813   5.851  1.00  0.00     0.274 HD
ENDBRANCH  43  47
ENDBRANCH   1  40
TORSDOF 17
ENDMDL
