MODEL 1
REMARK VINA RESULT: -8.736011051      0.000      0.000
REMARK  17 active torsions:
REMARK  status: ('A' for Active; 'I' for Inactive)
REMARK    1  A    between atoms: C2_2  and  C3_3 
REMARK    2  A    between atoms: C3_3  and  N1_5 
REMARK    3  A    between atoms: N1_5  and  N2_7 
REMARK       I    between atoms: N2_7  and  C6_9 
REMARK    4  A    between atoms: C6_9  and  C7_11 
REMARK    5  A    between atoms: C7_11  and  C8_12 
REMARK    6  A    between atoms: C7_11  and  N5_21 
REMARK    7  A    between atoms: C10_15  and  N3_16 
REMARK    8  A    between atoms: C12_23  and  N6_24 
REMARK       I    between atoms: N6_24  and  C13_26 
REMARK    9  A    between atoms: C13_26  and  C14_28 
REMARK   10  A    between atoms: C15_31  and  N7_32 
REMARK   11  A    between atoms: N7_32  and  C16_34 
REMARK   12  A    between atoms: C16_34  and  O5_35 
REMARK   13  A    between atoms: C16_34  and  C17_37 
REMARK   14  A    between atoms: C19_39  and  N8_40 
REMARK   15  A    between atoms: C21_44  and  N9_45 
REMARK   16  A    between atoms: C22_48  and  O10_49 
REMARK   17  A    between atoms: C23_51  and  O11_52 
ROOT
HETATM    1  N5  UNL     1     -36.535  21.082   8.718  1.00  0.00    -0.314 N 
HETATM    2  C11 UNL     1     -36.683  21.981   7.720  1.00  0.00     0.126 A 
HETATM    3  C12 UNL     1     -37.838  21.657   7.000  1.00  0.00     0.082 A 
HETATM    4  C15 UNL     1     -38.408  20.539   7.572  1.00  0.00     0.110 A 
HETATM    5  C23 UNL     1     -37.536  20.224   8.654  1.00  0.00     0.172 A 
ENDROOT
BRANCH   1   6
HETATM    6  C7  UNL     1     -35.472  21.049   9.698  1.00  0.00     0.235 C 
BRANCH   6   7
HETATM    7  C6  UNL     1     -34.154  20.871   9.099  1.00  0.00     0.261 C 
HETATM    8  N2  UNL     1     -33.062  20.389   9.844  1.00  0.00    -0.287 N 
ATOM      9  H2  UNL     1     -33.226  20.175  10.828  1.00  0.00     0.184 HD
HETATM   10  O1  UNL     1     -33.948  21.146   7.876  1.00  0.00    -0.269 OA
BRANCH   8  11
HETATM   11  N1  UNL     1     -31.770  20.178   9.348  1.00  0.00    -0.229 NA
HETATM   12  C5  UNL     1     -31.220  18.982   9.992  1.00  0.00     0.137 C 
BRANCH  11  13
HETATM   13  C3  UNL     1     -30.868  21.275   9.581  1.00  0.00     0.075 C 
HETATM   14  C4  UNL     1     -30.632  22.156   8.394  1.00  0.00     0.028 C 
BRANCH  13  15
HETATM   15  C2  UNL     1     -31.152  22.058  10.830  1.00  0.00     0.017 C 
HETATM   16  C1  UNL     1     -30.160  23.223  10.869  1.00  0.00     0.006 C 
ENDBRANCH  13  15
ENDBRANCH  11  13
ENDBRANCH   8  11
ENDBRANCH   6   7
BRANCH   6  17
HETATM   17  C8  UNL     1     -35.514  22.333  10.517  1.00  0.00     0.050 A 
HETATM   18  C9  UNL     1     -36.582  22.578  11.347  1.00  0.00     0.081 A 
HETATM   19  S1  UNL     1     -36.177  24.092  12.016  1.00  0.00    -0.064 SA
HETATM   20  C10 UNL     1     -34.696  24.333  11.220  1.00  0.00     0.142 A 
HETATM   21  N4  UNL     1     -34.571  23.239  10.470  1.00  0.00    -0.338 N 
ATOM     22  H4  UNL     1     -33.755  23.110   9.872  1.00  0.00     0.168 HD
BRANCH  20  23
HETATM   23  N3  UNL     1     -33.858  25.342  11.305  1.00  0.00    -0.380 N 
ATOM     24  H32 UNL     1     -33.945  26.258  10.865  1.00  0.00     0.158 HD
ATOM     25  H31 UNL     1     -32.977  25.411  11.814  1.00  0.00     0.158 HD
ENDBRANCH  20  23
ENDBRANCH   6  17
ENDBRANCH   1   6
BRANCH   5  26
HETATM   26  O11 UNL     1     -37.733  19.153   9.510  1.00  0.00    -0.344 OA
ATOM     27  H11 UNL     1     -38.406  18.487   9.416  1.00  0.00     0.219 HD
ENDBRANCH   5  26
BRANCH   3  28
HETATM   28  N6  UNL     1     -38.265  22.333   5.839  1.00  0.00    -0.315 N 
HETATM   29  C13 UNL     1     -39.552  22.838   5.630  1.00  0.00     0.322 C 
HETATM   30  O2  UNL     1     -40.458  22.710   6.483  1.00  0.00    -0.261 OA
ATOM     31  H6  UNL     1     -37.582  22.465   5.093  1.00  0.00     0.169 HD
BRANCH  29  32
HETATM   32  C14 UNL     1     -39.844  23.546   4.361  1.00  0.00     0.270 C 
HETATM   33  O3  UNL     1     -41.000  23.538   3.903  1.00  0.00    -0.640 OA
HETATM   34  O4  UNL     1     -38.822  24.206   3.708  1.00  0.00    -0.640 OA
ENDBRANCH  29  32
ENDBRANCH   3  28
BRANCH   4  35
HETATM   35  N7  UNL     1     -39.566  19.841   7.311  1.00  0.00    -0.355 N 
ATOM     36  H7  UNL     1     -40.293  19.951   8.018  1.00  0.00     0.162 HD
BRANCH  35  37
HETATM   37  C16 UNL     1     -39.920  19.002   6.236  1.00  0.00     0.255 C 
BRANCH  37  38
HETATM   38  O5  UNL     1     -39.944  17.619   6.663  1.00  0.00    -0.372 OA
ATOM     39  H5  UNL     1     -39.061  17.272   6.707  1.00  0.00     0.212 HD
ENDBRANCH  37  38
BRANCH  37  40
HETATM   40  C17 UNL     1     -41.310  19.239   5.748  1.00  0.00     0.028 A 
HETATM   41  C18 UNL     1     -42.415  18.862   6.480  1.00  0.00     0.050 A 
HETATM   42  C19 UNL     1     -43.696  19.125   6.013  1.00  0.00     0.106 A 
HETATM   43  C20 UNL     1     -43.889  19.765   4.818  1.00  0.00     0.075 A 
HETATM   44  C21 UNL     1     -42.784  20.149   4.072  1.00  0.00     0.139 A 
HETATM   45  C22 UNL     1     -41.522  19.887   4.534  1.00  0.00     0.109 A 
BRANCH  42  46
HETATM   46  N8  UNL     1     -44.827  18.723   6.789  1.00  0.00    -0.116 N 
HETATM   47  O6  UNL     1     -45.971  19.080   6.445  1.00  0.00    -0.532 OA
HETATM   48  O7  UNL     1     -44.643  17.952   7.896  1.00  0.00    -0.532 OA
ENDBRANCH  42  46
BRANCH  44  49
HETATM   49  N9  UNL     1     -43.038  20.803   2.847  1.00  0.00    -0.113 N 
HETATM   50  O8  UNL     1     -42.215  21.188   2.023  1.00  0.00    -0.532 OA
HETATM   51  O9  UNL     1     -44.380  21.057   2.543  1.00  0.00    -0.532 OA
ENDBRANCH  44  49
BRANCH  45  52
HETATM   52  O10 UNL     1     -40.410  20.244   3.825  1.00  0.00    -0.357 OA
ATOM     53  H10 UNL     1     -39.681  20.597   4.322  1.00  0.00     0.217 HD
ENDBRANCH  45  52
ENDBRANCH  37  40
ENDBRANCH  35  37
ENDBRANCH   4  35
TORSDOF 17
ENDMDL
MODEL 2
REMARK VINA RESULT: -8.694531079      0.952      2.574
REMARK  17 active torsions:
REMARK  status: ('A' for Active; 'I' for Inactive)
REMARK    1  A    between atoms: C2_2  and  C3_3 
REMARK    2  A    between atoms: C3_3  and  N1_5 
REMARK    3  A    between atoms: N1_5  and  N2_7 
REMARK       I    between atoms: N2_7  and  C6_9 
REMARK    4  A    between atoms: C6_9  and  C7_11 
REMARK    5  A    between atoms: C7_11  and  C8_12 
REMARK    6  A    between atoms: C7_11  and  N5_21 
REMARK    7  A    between atoms: C10_15  and  N3_16 
REMARK    8  A    between atoms: C12_23  and  N6_24 
REMARK       I    between atoms: N6_24  and  C13_26 
REMARK    9  A    between atoms: C13_26  and  C14_28 
REMARK   10  A    between atoms: C15_31  and  N7_32 
REMARK   11  A    between atoms: N7_32  and  C16_34 
REMARK   12  A    between atoms: C16_34  and  O5_35 
REMARK   13  A    between atoms: C16_34  and  C17_37 
REMARK   14  A    between atoms: C19_39  and  N8_40 
REMARK   15  A    between atoms: C21_44  and  N9_45 
REMARK   16  A    between atoms: C22_48  and  O10_49 
REMARK   17  A    between atoms: C23_51  and  O11_52 
ROOT
HETATM    1  N5  UNL     1     -36.639  21.056   8.370  1.00  0.00    -0.314 N 
HETATM    2  C11 UNL     1     -36.792  22.064   7.485  1.00  0.00     0.126 A 
HETATM    3  C12 UNL     1     -37.856  21.747   6.632  1.00  0.00     0.082 A 
HETATM    4  C15 UNL     1     -38.363  20.521   7.008  1.00  0.00     0.110 A 
HETATM    5  C23 UNL     1     -37.550  20.136   8.112  1.00  0.00     0.172 A 
ENDROOT
BRANCH   1   6
HETATM    6  C7  UNL     1     -35.653  20.978   9.425  1.00  0.00     0.235 C 
BRANCH   6   7
HETATM    7  C6  UNL     1     -34.302  20.756   8.924  1.00  0.00     0.261 C 
HETATM    8  N2  UNL     1     -33.243  20.409   9.783  1.00  0.00    -0.287 N 
ATOM      9  H2  UNL     1     -33.455  20.327  10.777  1.00  0.00     0.184 HD
HETATM   10  O1  UNL     1     -34.036  20.868   7.687  1.00  0.00    -0.269 OA
BRANCH   8  11
HETATM   11  N1  UNL     1     -31.921  20.168   9.387  1.00  0.00    -0.229 NA
HETATM   12  C5  UNL     1     -31.425  19.005  10.127  1.00  0.00     0.137 C 
BRANCH  11  13
HETATM   13  C3  UNL     1     -31.029  21.273   9.624  1.00  0.00     0.075 C 
HETATM   14  C4  UNL     1     -30.148  21.122  10.824  1.00  0.00     0.028 C 
BRANCH  13  15
HETATM   15  C2  UNL     1     -30.274  21.731   8.409  1.00  0.00     0.017 C 
HETATM   16  C1  UNL     1     -31.126  22.804   7.726  1.00  0.00     0.006 C 
ENDBRANCH  13  15
ENDBRANCH  11  13
ENDBRANCH   8  11
ENDBRANCH   6   7
BRANCH   6  17
HETATM   17  C8  UNL     1     -35.710  22.257  10.251  1.00  0.00     0.050 A 
HETATM   18  C9  UNL     1     -36.844  22.555  10.970  1.00  0.00     0.081 A 
HETATM   19  S1  UNL     1     -36.429  24.041  11.695  1.00  0.00    -0.064 SA
HETATM   20  C10 UNL     1     -34.863  24.206  11.057  1.00  0.00     0.142 A 
HETATM   21  N4  UNL     1     -34.720  23.111  10.312  1.00  0.00    -0.338 N 
ATOM     22  H4  UNL     1     -33.856  22.941   9.798  1.00  0.00     0.168 HD
BRANCH  20  23
HETATM   23  N3  UNL     1     -33.986  25.167  11.239  1.00  0.00    -0.380 N 
ATOM     24  H32 UNL     1     -34.157  26.097  11.620  1.00  0.00     0.158 HD
ATOM     25  H31 UNL     1     -32.986  25.176  11.042  1.00  0.00     0.158 HD
ENDBRANCH  20  23
ENDBRANCH   6  17
ENDBRANCH   1   6
BRANCH   5  26
HETATM   26  O11 UNL     1     -37.713  18.948   8.805  1.00  0.00    -0.344 OA
ATOM     27  H11 UNL     1     -38.398  18.308   8.651  1.00  0.00     0.219 HD
ENDBRANCH   5  26
BRANCH   3  28
HETATM   28  N6  UNL     1     -38.255  22.536   5.533  1.00  0.00    -0.315 N 
HETATM   29  C13 UNL     1     -39.511  23.130   5.384  1.00  0.00     0.322 C 
HETATM   30  O2  UNL     1     -40.414  22.988   6.238  1.00  0.00    -0.261 OA
ATOM     31  H6  UNL     1     -37.573  22.685   4.790  1.00  0.00     0.169 HD
BRANCH  29  32
HETATM   32  C14 UNL     1     -39.775  23.950   4.178  1.00  0.00     0.270 C 
HETATM   33  O3  UNL     1     -38.831  24.292   3.446  1.00  0.00    -0.640 OA
HETATM   34  O4  UNL     1     -41.074  24.321   3.888  1.00  0.00    -0.640 OA
ENDBRANCH  29  32
ENDBRANCH   3  28
BRANCH   4  35
HETATM   35  N7  UNL     1     -39.431  19.774   6.562  1.00  0.00    -0.355 N 
ATOM     36  H7  UNL     1     -39.254  19.256   5.702  1.00  0.00     0.162 HD
BRANCH  35  37
HETATM   37  C16 UNL     1     -40.726  19.601   7.090  1.00  0.00     0.255 C 
BRANCH  37  38
HETATM   38  O5  UNL     1     -41.008  20.624   8.075  1.00  0.00    -0.372 OA
ATOM     39  H5  UNL     1     -40.200  20.952   8.452  1.00  0.00     0.212 HD
ENDBRANCH  37  38
BRANCH  37  40
HETATM   40  C17 UNL     1     -41.799  19.795   6.071  1.00  0.00     0.028 A 
HETATM   41  C18 UNL     1     -41.529  20.282   4.811  1.00  0.00     0.050 A 
HETATM   42  C19 UNL     1     -42.546  20.420   3.874  1.00  0.00     0.106 A 
HETATM   43  C20 UNL     1     -43.834  20.074   4.182  1.00  0.00     0.075 A 
HETATM   44  C21 UNL     1     -44.118  19.582   5.447  1.00  0.00     0.139 A 
HETATM   45  C22 UNL     1     -43.114  19.449   6.369  1.00  0.00     0.109 A 
BRANCH  42  46
HETATM   46  N8  UNL     1     -42.243  20.930   2.574  1.00  0.00    -0.116 N 
HETATM   47  O6  UNL     1     -43.143  21.006   1.715  1.00  0.00    -0.532 OA
HETATM   48  O7  UNL     1     -40.973  21.328   2.287  1.00  0.00    -0.532 OA
ENDBRANCH  42  46
BRANCH  44  49
HETATM   49  N9  UNL     1     -45.461  19.242   5.713  1.00  0.00    -0.113 N 
HETATM   50  O8  UNL     1     -45.888  18.558   6.639  1.00  0.00    -0.532 OA
HETATM   51  O9  UNL     1     -46.417  19.725   4.812  1.00  0.00    -0.532 OA
ENDBRANCH  44  49
BRANCH  45  52
HETATM   52  O10 UNL     1     -43.355  18.974   7.628  1.00  0.00    -0.357 OA
ATOM     53  H10 UNL     1     -43.645  19.607   8.276  1.00  0.00     0.217 HD
ENDBRANCH  45  52
ENDBRANCH  37  40
ENDBRANCH  35  37
ENDBRANCH   4  35
TORSDOF 17
ENDMDL
MODEL 3
REMARK VINA RESULT: -8.283072545      1.320      1.854
REMARK  17 active torsions:
REMARK  status: ('A' for Active; 'I' for Inactive)
REMARK    1  A    between atoms: C2_2  and  C3_3 
REMARK    2  A    between atoms: C3_3  and  N1_5 
REMARK    3  A    between atoms: N1_5  and  N2_7 
REMARK       I    between atoms: N2_7  and  C6_9 
REMARK    4  A    between atoms: C6_9  and  C7_11 
REMARK    5  A    between atoms: C7_11  and  C8_12 
REMARK    6  A    between atoms: C7_11  and  N5_21 
REMARK    7  A    between atoms: C10_15  and  N3_16 
REMARK    8  A    between atoms: C12_23  and  N6_24 
REMARK       I    between atoms: N6_24  and  C13_26 
REMARK    9  A    between atoms: C13_26  and  C14_28 
REMARK   10  A    between atoms: C15_31  and  N7_32 
REMARK   11  A    between atoms: N7_32  and  C16_34 
REMARK   12  A    between atoms: C16_34  and  O5_35 
REMARK   13  A    between atoms: C16_34  and  C17_37 
REMARK   14  A    between atoms: C19_39  and  N8_40 
REMARK   15  A    between atoms: C21_44  and  N9_45 
REMARK   16  A    between atoms: C22_48  and  O10_49 
REMARK   17  A    between atoms: C23_51  and  O11_52 
ROOT
HETATM    1  N5  UNL     1     -36.556  21.548   8.751  1.00  0.00    -0.314 N 
HETATM    2  C11 UNL     1     -36.703  22.374   7.692  1.00  0.00     0.126 A 
HETATM    3  C12 UNL     1     -37.832  21.971   6.969  1.00  0.00     0.082 A 
HETATM    4  C15 UNL     1     -38.386  20.879   7.602  1.00  0.00     0.110 A 
HETATM    5  C23 UNL     1     -37.532  20.660   8.723  1.00  0.00     0.172 A 
ENDROOT
BRANCH   1   6
HETATM    6  C7  UNL     1     -35.516  21.610   9.754  1.00  0.00     0.235 C 
BRANCH   6   7
HETATM    7  C6  UNL     1     -34.452  22.545   9.411  1.00  0.00     0.261 C 
HETATM    8  N2  UNL     1     -33.148  22.105   9.114  1.00  0.00    -0.287 N 
ATOM      9  H2  UNL     1     -32.973  21.102   9.156  1.00  0.00     0.184 HD
HETATM   10  O1  UNL     1     -34.668  23.796   9.367  1.00  0.00    -0.269 OA
BRANCH   8  11
HETATM   11  N1  UNL     1     -32.072  22.930   8.765  1.00  0.00    -0.229 NA
HETATM   12  C5  UNL     1     -31.961  22.947   7.304  1.00  0.00     0.137 C 
BRANCH  11  13
HETATM   13  C3  UNL     1     -30.810  22.508   9.312  1.00  0.00     0.075 C 
HETATM   14  C4  UNL     1     -30.521  23.017  10.690  1.00  0.00     0.028 C 
BRANCH  13  15
HETATM   15  C2  UNL     1     -30.533  21.039   9.172  1.00  0.00     0.017 C 
HETATM   16  C1  UNL     1     -30.192  20.507  10.566  1.00  0.00     0.006 C 
ENDBRANCH  13  15
ENDBRANCH  11  13
ENDBRANCH   8  11
ENDBRANCH   6   7
BRANCH   6  17
HETATM   17  C8  UNL     1     -36.141  21.984  11.092  1.00  0.00     0.050 A 
HETATM   18  C9  UNL     1     -35.486  21.676  12.261  1.00  0.00     0.081 A 
HETATM   19  S1  UNL     1     -36.559  22.275  13.443  1.00  0.00    -0.064 SA
HETATM   20  C10 UNL     1     -37.766  22.875  12.408  1.00  0.00     0.142 A 
HETATM   21  N4  UNL     1     -37.296  22.592  11.194  1.00  0.00    -0.338 N 
ATOM     22  H4  UNL     1     -37.826  22.844  10.360  1.00  0.00     0.168 HD
BRANCH  20  23
HETATM   23  N3  UNL     1     -38.895  23.477  12.706  1.00  0.00    -0.380 N 
ATOM     24  H32 UNL     1     -39.016  24.336  13.243  1.00  0.00     0.158 HD
ATOM     25  H31 UNL     1     -39.851  23.214  12.469  1.00  0.00     0.158 HD
ENDBRANCH  20  23
ENDBRANCH   6  17
ENDBRANCH   1   6
BRANCH   5  26
HETATM   26  O11 UNL     1     -37.722  19.643   9.643  1.00  0.00    -0.344 OA
ATOM     27  H11 UNL     1     -37.064  19.013   9.913  1.00  0.00     0.219 HD
ENDBRANCH   5  26
BRANCH   3  28
HETATM   28  N6  UNL     1     -38.248  22.557   5.756  1.00  0.00    -0.315 N 
HETATM   29  C13 UNL     1     -39.539  23.019   5.488  1.00  0.00     0.322 C 
HETATM   30  O2  UNL     1     -40.460  22.930   6.330  1.00  0.00    -0.261 OA
ATOM     31  H6  UNL     1     -37.552  22.651   5.016  1.00  0.00     0.169 HD
BRANCH  29  32
HETATM   32  C14 UNL     1     -39.820  23.631   4.168  1.00  0.00     0.270 C 
HETATM   33  O3  UNL     1     -38.909  24.208   3.550  1.00  0.00    -0.640 OA
HETATM   34  O4  UNL     1     -41.096  23.547   3.645  1.00  0.00    -0.640 OA
ENDBRANCH  29  32
ENDBRANCH   3  28
BRANCH   4  35
HETATM   35  N7  UNL     1     -39.519  20.133   7.363  1.00  0.00    -0.355 N 
ATOM     36  H7  UNL     1     -40.265  20.268   8.045  1.00  0.00     0.162 HD
BRANCH  35  37
HETATM   37  C16 UNL     1     -39.825  19.217   6.338  1.00  0.00     0.255 C 
BRANCH  37  38
HETATM   38  O5  UNL     1     -39.787  17.862   6.846  1.00  0.00    -0.372 OA
ATOM     39  H5  UNL     1     -40.173  17.262   6.218  1.00  0.00     0.212 HD
ENDBRANCH  37  38
BRANCH  37  40
HETATM   40  C17 UNL     1     -41.221  19.358   5.830  1.00  0.00     0.028 A 
HETATM   41  C18 UNL     1     -42.311  18.950   6.569  1.00  0.00     0.050 A 
HETATM   42  C19 UNL     1     -43.600  19.125   6.082  1.00  0.00     0.106 A 
HETATM   43  C20 UNL     1     -43.816  19.706   4.861  1.00  0.00     0.075 A 
HETATM   44  C21 UNL     1     -42.727  20.121   4.109  1.00  0.00     0.139 A 
HETATM   45  C22 UNL     1     -41.457  19.946   4.591  1.00  0.00     0.109 A 
BRANCH  42  46
HETATM   46  N8  UNL     1     -44.715  18.692   6.865  1.00  0.00    -0.116 N 
HETATM   47  O6  UNL     1     -44.525  17.973   7.866  1.00  0.00    -0.532 OA
HETATM   48  O7  UNL     1     -45.973  19.070   6.510  1.00  0.00    -0.532 OA
ENDBRANCH  42  46
BRANCH  44  49
HETATM   49  N9  UNL     1     -43.004  20.713   2.858  1.00  0.00    -0.113 N 
HETATM   50  O8  UNL     1     -42.196  21.066   2.005  1.00  0.00    -0.532 OA
HETATM   51  O9  UNL     1     -44.353  20.937   2.560  1.00  0.00    -0.532 OA
ENDBRANCH  44  49
BRANCH  45  52
HETATM   52  O10 UNL     1     -40.359  20.335   3.876  1.00  0.00    -0.357 OA
ATOM     53  H10 UNL     1     -39.959  21.161   4.123  1.00  0.00     0.217 HD
ENDBRANCH  45  52
ENDBRANCH  37  40
ENDBRANCH  35  37
ENDBRANCH   4  35
TORSDOF 17
ENDMDL
MODEL 4
REMARK VINA RESULT: -8.203475231      3.085      5.378
REMARK  17 active torsions:
REMARK  status: ('A' for Active; 'I' for Inactive)
REMARK    1  A    between atoms: C2_2  and  C3_3 
REMARK    2  A    between atoms: C3_3  and  N1_5 
REMARK    3  A    between atoms: N1_5  and  N2_7 
REMARK       I    between atoms: N2_7  and  C6_9 
REMARK    4  A    between atoms: C6_9  and  C7_11 
REMARK    5  A    between atoms: C7_11  and  C8_12 
REMARK    6  A    between atoms: C7_11  and  N5_21 
REMARK    7  A    between atoms: C10_15  and  N3_16 
REMARK    8  A    between atoms: C12_23  and  N6_24 
REMARK       I    between atoms: N6_24  and  C13_26 
REMARK    9  A    between atoms: C13_26  and  C14_28 
REMARK   10  A    between atoms: C15_31  and  N7_32 
REMARK   11  A    between atoms: N7_32  and  C16_34 
REMARK   12  A    between atoms: C16_34  and  O5_35 
REMARK   13  A    between atoms: C16_34  and  C17_37 
REMARK   14  A    between atoms: C19_39  and  N8_40 
REMARK   15  A    between atoms: C21_44  and  N9_45 
REMARK   16  A    between atoms: C22_48  and  O10_49 
REMARK   17  A    between atoms: C23_51  and  O11_52 
ROOT
HETATM    1  N5  UNL     1     -36.146  23.072  10.140  1.00  0.00    -0.314 N 
HETATM    2  C11 UNL     1     -37.113  23.402  11.024  1.00  0.00     0.126 A 
HETATM    3  C12 UNL     1     -38.343  23.399  10.355  1.00  0.00     0.082 A 
HETATM    4  C15 UNL     1     -38.120  23.059   9.037  1.00  0.00     0.110 A 
HETATM    5  C23 UNL     1     -36.711  22.866   8.965  1.00  0.00     0.172 A 
ENDROOT
BRANCH   1   6
HETATM    6  C7  UNL     1     -34.730  22.961  10.414  1.00  0.00     0.235 C 
BRANCH   6   7
HETATM    7  C6  UNL     1     -34.326  23.686  11.613  1.00  0.00     0.261 C 
HETATM    8  N2  UNL     1     -34.430  23.112  12.894  1.00  0.00    -0.287 N 
ATOM      9  H2  UNL     1     -34.810  22.168  12.954  1.00  0.00     0.184 HD
HETATM   10  O1  UNL     1     -33.861  24.865  11.539  1.00  0.00    -0.269 OA
BRANCH   8  11
HETATM   11  N1  UNL     1     -34.057  23.730  14.094  1.00  0.00    -0.229 NA
HETATM   12  C5  UNL     1     -33.300  22.763  14.893  1.00  0.00     0.137 C 
BRANCH  11  13
HETATM   13  C3  UNL     1     -35.167  24.200  14.880  1.00  0.00     0.075 C 
HETATM   14  C4  UNL     1     -35.568  25.618  14.616  1.00  0.00     0.028 C 
BRANCH  13  15
HETATM   15  C2  UNL     1     -36.342  23.267  14.914  1.00  0.00     0.017 C 
HETATM   16  C1  UNL     1     -37.596  24.108  14.663  1.00  0.00     0.006 C 
ENDBRANCH  13  15
ENDBRANCH  11  13
ENDBRANCH   8  11
ENDBRANCH   6   7
BRANCH   6  17
HETATM   17  C8  UNL     1     -34.365  21.487  10.536  1.00  0.00     0.050 A 
HETATM   18  C9  UNL     1     -33.088  21.073  10.239  1.00  0.00     0.081 A 
HETATM   19  S1  UNL     1     -33.180  19.394  10.515  1.00  0.00    -0.064 SA
HETATM   20  C10 UNL     1     -34.810  19.304  10.986  1.00  0.00     0.142 A 
HETATM   21  N4  UNL     1     -35.220  20.569  10.912  1.00  0.00    -0.338 N 
ATOM     22  H4  UNL     1     -36.181  20.819  11.144  1.00  0.00     0.168 HD
BRANCH  20  23
HETATM   23  N3  UNL     1     -35.518  18.256  11.341  1.00  0.00    -0.380 N 
ATOM     24  H32 UNL     1     -35.460  17.737  12.217  1.00  0.00     0.158 HD
ATOM     25  H31 UNL     1     -36.248  17.763  10.826  1.00  0.00     0.158 HD
ENDBRANCH  20  23
ENDBRANCH   6  17
ENDBRANCH   1   6
BRANCH   5  26
HETATM   26  O11 UNL     1     -36.045  22.510   7.803  1.00  0.00    -0.344 OA
ATOM     27  H11 UNL     1     -35.853  21.621   7.527  1.00  0.00     0.219 HD
ENDBRANCH   5  26
BRANCH   3  28
HETATM   28  N6  UNL     1     -39.568  23.771  10.945  1.00  0.00    -0.315 N 
HETATM   29  C13 UNL     1     -40.708  22.966  11.007  1.00  0.00     0.322 C 
HETATM   30  O2  UNL     1     -40.732  21.817  10.513  1.00  0.00    -0.261 OA
ATOM     31  H6  UNL     1     -39.627  24.701  11.360  1.00  0.00     0.169 HD
BRANCH  29  32
HETATM   32  C14 UNL     1     -41.919  23.491  11.681  1.00  0.00     0.270 C 
HETATM   33  O3  UNL     1     -42.887  23.874  11.001  1.00  0.00    -0.640 OA
HETATM   34  O4  UNL     1     -41.951  23.546  13.061  1.00  0.00    -0.640 OA
ENDBRANCH  29  32
ENDBRANCH   3  28
BRANCH   4  35
HETATM   35  N7  UNL     1     -38.964  22.851   7.969  1.00  0.00    -0.355 N 
ATOM     36  H7  UNL     1     -39.390  23.699   7.595  1.00  0.00     0.162 HD
BRANCH  35  37
HETATM   37  C16 UNL     1     -39.342  21.668   7.304  1.00  0.00     0.255 C 
BRANCH  37  38
HETATM   38  O5  UNL     1     -40.344  20.957   8.070  1.00  0.00    -0.372 OA
ATOM     39  H5  UNL     1     -40.969  20.539   7.489  1.00  0.00     0.212 HD
ENDBRANCH  37  38
BRANCH  37  40
HETATM   40  C17 UNL     1     -40.021  21.925   6.000  1.00  0.00     0.028 A 
HETATM   41  C18 UNL     1     -39.755  23.049   5.249  1.00  0.00     0.050 A 
HETATM   42  C19 UNL     1     -40.380  23.244   4.024  1.00  0.00     0.106 A 
HETATM   43  C20 UNL     1     -41.269  22.325   3.536  1.00  0.00     0.075 A 
HETATM   44  C21 UNL     1     -41.544  21.189   4.283  1.00  0.00     0.139 A 
HETATM   45  C22 UNL     1     -40.929  21.000   5.491  1.00  0.00     0.109 A 
BRANCH  42  46
HETATM   46  N8  UNL     1     -40.090  24.419   3.263  1.00  0.00    -0.116 N 
HETATM   47  O6  UNL     1     -38.905  24.761   3.081  1.00  0.00    -0.532 OA
HETATM   48  O7  UNL     1     -41.112  25.152   2.743  1.00  0.00    -0.532 OA
ENDBRANCH  42  46
BRANCH  44  49
HETATM   49  N9  UNL     1     -42.469  20.274   3.736  1.00  0.00    -0.113 N 
HETATM   50  O8  UNL     1     -42.538  19.067   3.946  1.00  0.00    -0.532 OA
HETATM   51  O9  UNL     1     -43.407  20.798   2.838  1.00  0.00    -0.532 OA
ENDBRANCH  44  49
BRANCH  45  52
HETATM   52  O10 UNL     1     -41.179  19.897   6.259  1.00  0.00    -0.357 OA
ATOM     53  H10 UNL     1     -41.857  19.307   5.952  1.00  0.00     0.217 HD
ENDBRANCH  45  52
ENDBRANCH  37  40
ENDBRANCH  35  37
ENDBRANCH   4  35
TORSDOF 17
ENDMDL
MODEL 5
REMARK VINA RESULT: -8.144012302      3.002      4.874
REMARK  17 active torsions:
REMARK  status: ('A' for Active; 'I' for Inactive)
REMARK    1  A    between atoms: C2_2  and  C3_3 
REMARK    2  A    between atoms: C3_3  and  N1_5 
REMARK    3  A    between atoms: N1_5  and  N2_7 
REMARK       I    between atoms: N2_7  and  C6_9 
REMARK    4  A    between atoms: C6_9  and  C7_11 
REMARK    5  A    between atoms: C7_11  and  C8_12 
REMARK    6  A    between atoms: C7_11  and  N5_21 
REMARK    7  A    between atoms: C10_15  and  N3_16 
REMARK    8  A    between atoms: C12_23  and  N6_24 
REMARK       I    between atoms: N6_24  and  C13_26 
REMARK    9  A    between atoms: C13_26  and  C14_28 
REMARK   10  A    between atoms: C15_31  and  N7_32 
REMARK   11  A    between atoms: N7_32  and  C16_34 
REMARK   12  A    between atoms: C16_34  and  O5_35 
REMARK   13  A    between atoms: C16_34  and  C17_37 
REMARK   14  A    between atoms: C19_39  and  N8_40 
REMARK   15  A    between atoms: C21_44  and  N9_45 
REMARK   16  A    between atoms: C22_48  and  O10_49 
REMARK   17  A    between atoms: C23_51  and  O11_52 
ROOT
HETATM    1  N5  UNL     1     -36.456  22.912   9.616  1.00  0.00    -0.314 N 
HETATM    2  C11 UNL     1     -37.308  23.312  10.585  1.00  0.00     0.126 A 
HETATM    3  C12 UNL     1     -38.615  23.212  10.094  1.00  0.00     0.082 A 
HETATM    4  C15 UNL     1     -38.558  22.738   8.800  1.00  0.00     0.110 A 
HETATM    5  C23 UNL     1     -37.165  22.569   8.556  1.00  0.00     0.172 A 
ENDROOT
BRANCH   1   6
HETATM    6  C7  UNL     1     -35.014  22.862   9.704  1.00  0.00     0.235 C 
BRANCH   6   7
HETATM    7  C6  UNL     1     -34.486  23.642  10.817  1.00  0.00     0.261 C 
HETATM    8  N2  UNL     1     -34.347  23.092  12.105  1.00  0.00    -0.287 N 
ATOM      9  H2  UNL     1     -34.640  22.124  12.234  1.00  0.00     0.184 HD
HETATM   10  O1  UNL     1     -34.129  24.850  10.659  1.00  0.00    -0.269 OA
BRANCH   8  11
HETATM   11  N1  UNL     1     -33.841  23.763  13.225  1.00  0.00    -0.229 NA
HETATM   12  C5  UNL     1     -32.839  22.905  13.862  1.00  0.00     0.137 C 
BRANCH  11  13
HETATM   13  C3  UNL     1     -34.840  24.100  14.206  1.00  0.00     0.075 C 
HETATM   14  C4  UNL     1     -35.425  25.470  14.060  1.00  0.00     0.028 C 
BRANCH  13  15
HETATM   15  C2  UNL     1     -35.889  23.045  14.411  1.00  0.00     0.017 C 
HETATM   16  C1  UNL     1     -37.166  23.759  14.862  1.00  0.00     0.006 C 
ENDBRANCH  13  15
ENDBRANCH  11  13
ENDBRANCH   8  11
ENDBRANCH   6   7
BRANCH   6  17
HETATM   17  C8  UNL     1     -34.576  21.407   9.820  1.00  0.00     0.050 A 
HETATM   18  C9  UNL     1     -33.390  21.004   9.253  1.00  0.00     0.081 A 
HETATM   19  S1  UNL     1     -33.353  19.344   9.640  1.00  0.00    -0.064 SA
HETATM   20  C10 UNL     1     -34.822  19.248  10.487  1.00  0.00     0.142 A 
HETATM   21  N4  UNL     1     -35.284  20.497  10.440  1.00  0.00    -0.338 N 
ATOM     22  H4  UNL     1     -36.172  20.740  10.879  1.00  0.00     0.168 HD
BRANCH  20  23
HETATM   23  N3  UNL     1     -35.388  18.210  11.060  1.00  0.00    -0.380 N 
ATOM     24  H32 UNL     1     -36.234  17.723  10.763  1.00  0.00     0.158 HD
ATOM     25  H31 UNL     1     -35.104  17.696  11.893  1.00  0.00     0.158 HD
ENDBRANCH  20  23
ENDBRANCH   6  17
ENDBRANCH   1   6
BRANCH   5  26
HETATM   26  O11 UNL     1     -36.648  22.106   7.358  1.00  0.00    -0.344 OA
ATOM     27  H11 UNL     1     -36.005  22.557   6.822  1.00  0.00     0.219 HD
ENDBRANCH   5  26
BRANCH   3  28
HETATM   28  N6  UNL     1     -39.764  23.618  10.805  1.00  0.00    -0.315 N 
HETATM   29  C13 UNL     1     -40.954  22.891  10.892  1.00  0.00     0.322 C 
HETATM   30  O2  UNL     1     -41.100  21.792  10.313  1.00  0.00    -0.261 OA
ATOM     31  H6  UNL     1     -39.722  24.512  11.293  1.00  0.00     0.169 HD
BRANCH  29  32
HETATM   32  C14 UNL     1     -42.070  23.442  11.697  1.00  0.00     0.270 C 
HETATM   33  O3  UNL     1     -43.101  23.841  11.129  1.00  0.00    -0.640 OA
HETATM   34  O4  UNL     1     -41.944  23.500  13.071  1.00  0.00    -0.640 OA
ENDBRANCH  29  32
ENDBRANCH   3  28
BRANCH   4  35
HETATM   35  N7  UNL     1     -39.529  22.398   7.885  1.00  0.00    -0.355 N 
ATOM     36  H7  UNL     1     -40.287  23.076   7.801  1.00  0.00     0.162 HD
BRANCH  35  37
HETATM   37  C16 UNL     1     -39.657  21.275   7.043  1.00  0.00     0.255 C 
BRANCH  37  38
HETATM   38  O5  UNL     1     -40.530  20.290   7.646  1.00  0.00    -0.372 OA
ATOM     39  H5  UNL     1     -41.372  20.282   7.207  1.00  0.00     0.212 HD
ENDBRANCH  37  38
BRANCH  37  40
HETATM   40  C17 UNL     1     -40.332  21.591   5.750  1.00  0.00     0.028 A 
HETATM   41  C18 UNL     1     -41.334  20.797   5.237  1.00  0.00     0.050 A 
HETATM   42  C19 UNL     1     -41.965  21.136   4.047  1.00  0.00     0.106 A 
HETATM   43  C20 UNL     1     -41.607  22.265   3.361  1.00  0.00     0.075 A 
HETATM   44  C21 UNL     1     -40.600  23.073   3.868  1.00  0.00     0.139 A 
HETATM   45  C22 UNL     1     -39.978  22.735   5.040  1.00  0.00     0.109 A 
BRANCH  42  46
HETATM   46  N8  UNL     1     -43.000  20.296   3.533  1.00  0.00    -0.116 N 
HETATM   47  O6  UNL     1     -43.929  20.796   2.868  1.00  0.00    -0.532 OA
HETATM   48  O7  UNL     1     -42.961  18.957   3.773  1.00  0.00    -0.532 OA
ENDBRANCH  42  46
BRANCH  44  49
HETATM   49  N9  UNL     1     -40.269  24.224   3.121  1.00  0.00    -0.113 N 
HETATM   50  O8  UNL     1     -41.038  24.978   2.534  1.00  0.00    -0.532 OA
HETATM   51  O9  UNL     1     -38.908  24.534   3.024  1.00  0.00    -0.532 OA
ENDBRANCH  44  49
BRANCH  45  52
HETATM   52  O10 UNL     1     -38.977  23.502   5.568  1.00  0.00    -0.357 OA
ATOM     53  H10 UNL     1     -38.749  24.294   5.094  1.00  0.00     0.217 HD
ENDBRANCH  45  52
ENDBRANCH  37  40
ENDBRANCH  35  37
ENDBRANCH   4  35
TORSDOF 17
ENDMDL
