MODEL 1
REMARK VINA RESULT: -8.769638732      0.000      0.000
REMARK  6 active torsions:
REMARK  status: ('A' for Active; 'I' for Inactive)
REMARK       I    between atoms: C1_2  and  N1_3 
REMARK       I    between atoms: C1_2  and  N3_15 
REMARK    1  A    between atoms: N1_3  and  C2_5 
REMARK    2  A    between atoms: C2_5  and  C3_6 
REMARK    3  A    between atoms: N2_10  and  C7_11 
REMARK    4  A    between atoms: C7_11  and  C8_12 
REMARK    5  A    between atoms: N3_15  and  C11_17 
REMARK    6  A    between atoms: C11_17  and  C12_18 
ROOT
HETATM    1  O1  UNL     1      41.795  32.088  31.149  1.00  0.00    -0.247 OA
HETATM    2  C1  UNL     1      42.670  31.204  31.018  1.00  0.00     0.319 C 
HETATM    3  N1  UNL     1      42.214  29.876  31.342  1.00  0.00    -0.341 N 
ATOM      4  H1  UNL     1      42.884  29.112  31.249  1.00  0.00     0.164 HD
HETATM    5  N3  UNL     1      43.975  31.467  30.596  1.00  0.00    -0.322 N 
ATOM      6  H3  UNL     1      44.568  30.637  30.584  1.00  0.00     0.169 HD
ENDROOT
BRANCH   3   7
HETATM    7  C2  UNL     1      40.903  29.551  31.781  1.00  0.00     0.160 C 
BRANCH   7   8
HETATM    8  C3  UNL     1      40.750  29.193  33.218  1.00  0.00     0.240 C 
HETATM    9  C4  UNL     1      40.991  30.370  34.136  1.00  0.00     0.039 C 
HETATM   10  C5  UNL     1      39.662  31.060  34.213  1.00  0.00     0.032 C 
HETATM   11  C6  UNL     1      38.662  30.026  33.787  1.00  0.00     0.273 C 
HETATM   12  N2  UNL     1      39.375  28.805  33.548  1.00  0.00     0.095 N 
BRANCH  12  13
HETATM   13  C7  UNL     1      39.473  27.958  34.723  1.00  0.00     0.277 C 
BRANCH  13  14
HETATM   14  C8  UNL     1      38.197  27.849  35.477  1.00  0.00     0.014 A 
HETATM   15  C9  UNL     1      37.774  26.629  36.168  1.00  0.00     0.007 A 
HETATM   16  C10 UNL     1      38.360  27.766  37.001  1.00  0.00     0.007 A 
ENDBRANCH  13  14
ENDBRANCH  12  13
ENDBRANCH   7   8
ENDBRANCH   3   7
BRANCH   5  17
HETATM   17  C11 UNL     1      44.643  32.626  30.186  1.00  0.00     0.075 C 
BRANCH  17  18
HETATM   18  C12 UNL     1      45.736  33.243  30.967  1.00  0.00    -0.007 C 
HETATM   19  C13 UNL     1      45.367  34.477  31.677  1.00  0.00     0.019 C 
HETATM   20  C14 UNL     1      46.515  34.950  32.599  1.00  0.00    -0.013 C 
HETATM   21  C15 UNL     1      47.673  35.218  31.658  1.00  0.00     0.009 C 
HETATM   22  C19 UNL     1      46.809  33.912  33.614  1.00  0.00     0.009 C 
HETATM   23  C16 UNL     1      48.095  33.906  31.063  1.00  0.00    -0.013 C 
HETATM   24  C17 UNL     1      48.447  32.887  32.128  1.00  0.00     0.009 C 
HETATM   25  C21 UNL     1      47.017  33.398  30.151  1.00  0.00     0.019 C 
HETATM   26  C18 UNL     1      47.200  32.609  32.914  1.00  0.00    -0.013 C 
HETATM   27  C20 UNL     1      46.084  32.168  32.035  1.00  0.00     0.019 C 
ENDBRANCH  17  18
ENDBRANCH   5  17
TORSDOF 6
ENDMDL
MODEL 2
REMARK VINA RESULT: -8.763217419      0.144      1.508
REMARK  6 active torsions:
REMARK  status: ('A' for Active; 'I' for Inactive)
REMARK       I    between atoms: C1_2  and  N1_3 
REMARK       I    between atoms: C1_2  and  N3_15 
REMARK    1  A    between atoms: N1_3  and  C2_5 
REMARK    2  A    between atoms: C2_5  and  C3_6 
REMARK    3  A    between atoms: N2_10  and  C7_11 
REMARK    4  A    between atoms: C7_11  and  C8_12 
REMARK    5  A    between atoms: N3_15  and  C11_17 
REMARK    6  A    between atoms: C11_17  and  C12_18 
ROOT
HETATM    1  O1  UNL     1      41.854  32.099  31.262  1.00  0.00    -0.247 OA
HETATM    2  C1  UNL     1      42.658  31.177  31.002  1.00  0.00     0.319 C 
HETATM    3  N1  UNL     1      42.132  29.857  31.235  1.00  0.00    -0.341 N 
ATOM      4  H1  UNL     1      42.742  29.064  31.037  1.00  0.00     0.164 HD
HETATM    5  N3  UNL     1      43.954  31.395  30.528  1.00  0.00    -0.322 N 
ATOM      6  H3  UNL     1      44.487  30.534  30.409  1.00  0.00     0.169 HD
ENDROOT
BRANCH   3   7
HETATM    7  C2  UNL     1      40.827  29.576  31.722  1.00  0.00     0.160 C 
BRANCH   7   8
HETATM    8  C3  UNL     1      40.719  29.176  33.152  1.00  0.00     0.240 C 
HETATM    9  C4  UNL     1      41.026  30.317  34.096  1.00  0.00     0.039 C 
HETATM   10  C5  UNL     1      39.720  31.037  34.246  1.00  0.00     0.032 C 
HETATM   11  C6  UNL     1      38.677  30.044  33.828  1.00  0.00     0.273 C 
HETATM   12  N2  UNL     1      39.348  28.813  33.523  1.00  0.00     0.095 N 
BRANCH  12  13
HETATM   13  C7  UNL     1      39.468  27.927  34.666  1.00  0.00     0.277 C 
BRANCH  13  14
HETATM   14  C8  UNL     1      38.217  27.818  35.461  1.00  0.00     0.014 A 
HETATM   15  C9  UNL     1      37.860  26.631  36.240  1.00  0.00     0.007 A 
HETATM   16  C10 UNL     1      38.420  27.841  36.981  1.00  0.00     0.007 A 
ENDBRANCH  13  14
ENDBRANCH  12  13
ENDBRANCH   7   8
ENDBRANCH   3   7
BRANCH   5  17
HETATM   17  C11 UNL     1      44.676  32.542  30.181  1.00  0.00     0.075 C 
BRANCH  17  18
HETATM   18  C12 UNL     1      45.865  33.001  30.930  1.00  0.00    -0.007 C 
HETATM   19  C13 UNL     1      47.064  33.225  30.110  1.00  0.00     0.019 C 
HETATM   20  C14 UNL     1      48.197  33.866  30.946  1.00  0.00    -0.013 C 
HETATM   21  C15 UNL     1      48.491  32.848  32.029  1.00  0.00     0.009 C 
HETATM   22  C19 UNL     1      47.755  35.177  31.475  1.00  0.00     0.009 C 
HETATM   23  C16 UNL     1      47.284  32.756  32.916  1.00  0.00    -0.013 C 
HETATM   24  C17 UNL     1      46.897  34.105  33.489  1.00  0.00     0.009 C 
HETATM   25  C21 UNL     1      46.148  32.136  32.156  1.00  0.00     0.019 C 
HETATM   26  C18 UNL     1      46.507  34.987  32.339  1.00  0.00    -0.013 C 
HETATM   27  C20 UNL     1      45.429  34.373  31.518  1.00  0.00     0.019 C 
ENDBRANCH  17  18
ENDBRANCH   5  17
TORSDOF 6
ENDMDL
MODEL 3
REMARK VINA RESULT: -8.748694343      0.179      1.451
REMARK  6 active torsions:
REMARK  status: ('A' for Active; 'I' for Inactive)
REMARK       I    between atoms: C1_2  and  N1_3 
REMARK       I    between atoms: C1_2  and  N3_15 
REMARK    1  A    between atoms: N1_3  and  C2_5 
REMARK    2  A    between atoms: C2_5  and  C3_6 
REMARK    3  A    between atoms: N2_10  and  C7_11 
REMARK    4  A    between atoms: C7_11  and  C8_12 
REMARK    5  A    between atoms: N3_15  and  C11_17 
REMARK    6  A    between atoms: C11_17  and  C12_18 
ROOT
HETATM    1  O1  UNL     1      41.889  32.104  31.298  1.00  0.00    -0.247 OA
HETATM    2  C1  UNL     1      42.663  31.170  30.993  1.00  0.00     0.319 C 
HETATM    3  N1  UNL     1      42.105  29.858  31.192  1.00  0.00    -0.341 N 
ATOM      4  H1  UNL     1      42.689  29.056  30.955  1.00  0.00     0.164 HD
HETATM    5  N3  UNL     1      43.955  31.370  30.502  1.00  0.00    -0.322 N 
ATOM      6  H3  UNL     1      44.463  30.499  30.344  1.00  0.00     0.169 HD
ENDROOT
BRANCH   3   7
HETATM    7  C2  UNL     1      40.801  29.595  31.693  1.00  0.00     0.160 C 
BRANCH   7   8
HETATM    8  C3  UNL     1      40.708  29.159  33.113  1.00  0.00     0.240 C 
HETATM    9  C4  UNL     1      41.113  30.249  34.081  1.00  0.00     0.039 C 
HETATM   10  C5  UNL     1      39.861  31.045  34.290  1.00  0.00     0.032 C 
HETATM   11  C6  UNL     1      38.745  30.134  33.874  1.00  0.00     0.273 C 
HETATM   12  N2  UNL     1      39.326  28.873  33.514  1.00  0.00     0.095 N 
BRANCH  12  13
HETATM   13  C7  UNL     1      39.421  27.946  34.627  1.00  0.00     0.277 C 
BRANCH  13  14
HETATM   14  C8  UNL     1      38.180  27.879  35.443  1.00  0.00     0.014 A 
HETATM   15  C9  UNL     1      37.754  26.674  36.159  1.00  0.00     0.007 A 
HETATM   16  C10 UNL     1      38.414  27.795  36.957  1.00  0.00     0.007 A 
ENDBRANCH  13  14
ENDBRANCH  12  13
ENDBRANCH   7   8
ENDBRANCH   3   7
BRANCH   5  17
HETATM   17  C11 UNL     1      44.702  32.508  30.180  1.00  0.00     0.075 C 
BRANCH  17  18
HETATM   18  C12 UNL     1      45.757  33.053  31.061  1.00  0.00    -0.007 C 
HETATM   19  C13 UNL     1      46.159  32.169  32.165  1.00  0.00     0.019 C 
HETATM   20  C14 UNL     1      47.379  32.744  32.921  1.00  0.00    -0.013 C 
HETATM   21  C15 UNL     1      46.895  34.072  33.468  1.00  0.00     0.009 C 
HETATM   22  C19 UNL     1      48.531  32.873  31.999  1.00  0.00     0.009 C 
HETATM   23  C16 UNL     1      46.627  34.980  32.303  1.00  0.00    -0.013 C 
HETATM   24  C17 UNL     1      47.845  35.138  31.415  1.00  0.00     0.009 C 
HETATM   25  C21 UNL     1      45.445  34.471  31.531  1.00  0.00     0.019 C 
HETATM   26  C18 UNL     1      48.154  33.790  30.833  1.00  0.00    -0.013 C 
HETATM   27  C20 UNL     1      46.982  33.219  30.117  1.00  0.00     0.019 C 
ENDBRANCH  17  18
ENDBRANCH   5  17
TORSDOF 6
ENDMDL
MODEL 4
REMARK VINA RESULT: -8.716617199      3.113      9.701
REMARK  6 active torsions:
REMARK  status: ('A' for Active; 'I' for Inactive)
REMARK       I    between atoms: C1_2  and  N1_3 
REMARK       I    between atoms: C1_2  and  N3_15 
REMARK    1  A    between atoms: N1_3  and  C2_5 
REMARK    2  A    between atoms: C2_5  and  C3_6 
REMARK    3  A    between atoms: N2_10  and  C7_11 
REMARK    4  A    between atoms: C7_11  and  C8_12 
REMARK    5  A    between atoms: N3_15  and  C11_17 
REMARK    6  A    between atoms: C11_17  and  C12_18 
ROOT
HETATM    1  O1  UNL     1      46.567  32.608  31.589  1.00  0.00    -0.247 OA
HETATM    2  C1  UNL     1      45.832  33.027  30.669  1.00  0.00     0.319 C 
HETATM    3  N1  UNL     1      46.516  33.232  29.418  1.00  0.00    -0.341 N 
ATOM      4  H1  UNL     1      45.965  33.569  28.629  1.00  0.00     0.164 HD
HETATM    5  N3  UNL     1      44.467  33.278  30.827  1.00  0.00    -0.322 N 
ATOM      6  H3  UNL     1      44.028  33.656  29.987  1.00  0.00     0.169 HD
ENDROOT
BRANCH   3   7
HETATM    7  C2  UNL     1      47.900  32.999  29.201  1.00  0.00     0.160 C 
BRANCH   7   8
HETATM    8  C3  UNL     1      48.812  34.158  29.408  1.00  0.00     0.240 C 
HETATM    9  C4  UNL     1      49.766  33.944  30.563  1.00  0.00     0.039 C 
HETATM   10  C5  UNL     1      50.919  33.201  29.960  1.00  0.00     0.032 C 
HETATM   11  C6  UNL     1      50.825  33.463  28.486  1.00  0.00     0.273 C 
HETATM   12  N2  UNL     1      49.721  34.355  28.275  1.00  0.00     0.095 N 
BRANCH  12  13
HETATM   13  C7  UNL     1      50.101  35.756  28.312  1.00  0.00     0.277 C 
BRANCH  13  14
HETATM   14  C8  UNL     1      48.938  36.680  28.357  1.00  0.00     0.014 A 
HETATM   15  C9  UNL     1      49.023  38.056  28.851  1.00  0.00     0.007 A 
HETATM   16  C10 UNL     1      48.994  37.829  27.342  1.00  0.00     0.007 A 
ENDBRANCH  13  14
ENDBRANCH  12  13
ENDBRANCH   7   8
ENDBRANCH   3   7
BRANCH   5  17
HETATM   17  C11 UNL     1      43.573  33.124  31.892  1.00  0.00     0.075 C 
BRANCH  17  18
HETATM   18  C12 UNL     1      42.743  31.913  32.077  1.00  0.00    -0.007 C 
HETATM   19  C13 UNL     1      43.491  30.703  32.448  1.00  0.00     0.019 C 
HETATM   20  C14 UNL     1      42.529  29.540  32.788  1.00  0.00    -0.013 C 
HETATM   21  C15 UNL     1      41.755  29.301  31.506  1.00  0.00     0.009 C 
HETATM   22  C19 UNL     1      41.669  29.913  33.934  1.00  0.00     0.009 C 
HETATM   23  C16 UNL     1      40.908  30.513  31.247  1.00  0.00    -0.013 C 
HETATM   24  C17 UNL     1      39.997  30.831  32.415  1.00  0.00     0.009 C 
HETATM   25  C21 UNL     1      41.792  31.678  30.906  1.00  0.00     0.019 C 
HETATM   26  C18 UNL     1      40.870  31.172  33.587  1.00  0.00    -0.013 C 
HETATM   27  C20 UNL     1      41.811  32.278  33.267  1.00  0.00     0.019 C 
ENDBRANCH  17  18
ENDBRANCH   5  17
TORSDOF 6
ENDMDL
MODEL 5
REMARK VINA RESULT: -8.709966801      2.987      9.605
REMARK  6 active torsions:
REMARK  status: ('A' for Active; 'I' for Inactive)
REMARK       I    between atoms: C1_2  and  N1_3 
REMARK       I    between atoms: C1_2  and  N3_15 
REMARK    1  A    between atoms: N1_3  and  C2_5 
REMARK    2  A    between atoms: C2_5  and  C3_6 
REMARK    3  A    between atoms: N2_10  and  C7_11 
REMARK    4  A    between atoms: C7_11  and  C8_12 
REMARK    5  A    between atoms: N3_15  and  C11_17 
REMARK    6  A    between atoms: C11_17  and  C12_18 
ROOT
HETATM    1  O1  UNL     1      45.733  35.173  32.334  1.00  0.00    -0.247 OA
HETATM    2  C1  UNL     1      45.855  33.929  32.324  1.00  0.00     0.319 C 
HETATM    3  N1  UNL     1      47.221  33.474  32.260  1.00  0.00    -0.341 N 
ATOM      4  H1  UNL     1      47.383  32.467  32.253  1.00  0.00     0.164 HD
HETATM    5  N3  UNL     1      44.773  33.047  32.369  1.00  0.00    -0.322 N 
ATOM      6  H3  UNL     1      45.050  32.067  32.310  1.00  0.00     0.169 HD
ENDROOT
BRANCH   3   7
HETATM    7  C2  UNL     1      48.358  34.323  32.206  1.00  0.00     0.160 C 
BRANCH   7   8
HETATM    8  C3  UNL     1      49.325  34.073  31.102  1.00  0.00     0.240 C 
HETATM    9  C4  UNL     1      48.670  33.448  29.890  1.00  0.00     0.039 C 
HETATM   10  C5  UNL     1      48.145  34.613  29.108  1.00  0.00     0.032 C 
HETATM   11  C6  UNL     1      48.924  35.796  29.601  1.00  0.00     0.273 C 
HETATM   12  N2  UNL     1      49.878  35.318  30.559  1.00  0.00     0.095 N 
BRANCH  12  13
HETATM   13  C7  UNL     1      51.154  34.960  29.968  1.00  0.00     0.277 C 
BRANCH  13  14
HETATM   14  C8  UNL     1      51.996  34.113  30.853  1.00  0.00     0.014 A 
HETATM   15  C9  UNL     1      52.956  33.129  30.349  1.00  0.00     0.007 A 
HETATM   16  C10 UNL     1      53.489  34.469  30.848  1.00  0.00     0.007 A 
ENDBRANCH  13  14
ENDBRANCH  12  13
ENDBRANCH   7   8
ENDBRANCH   3   7
BRANCH   5  17
HETATM   17  C11 UNL     1      43.389  33.221  32.478  1.00  0.00     0.075 C 
BRANCH  17  18
HETATM   18  C12 UNL     1      42.427  32.103  32.369  1.00  0.00    -0.007 C 
HETATM   19  C13 UNL     1      41.789  31.964  31.051  1.00  0.00     0.019 C 
HETATM   20  C14 UNL     1      40.939  30.673  30.980  1.00  0.00    -0.013 C 
HETATM   21  C15 UNL     1      39.883  30.855  32.053  1.00  0.00     0.009 C 
HETATM   22  C19 UNL     1      41.800  29.488  31.197  1.00  0.00     0.009 C 
HETATM   23  C16 UNL     1      40.575  30.857  33.385  1.00  0.00    -0.013 C 
HETATM   24  C17 UNL     1      41.397  29.602  33.599  1.00  0.00     0.009 C 
HETATM   25  C21 UNL     1      41.415  32.094  33.512  1.00  0.00     0.019 C 
HETATM   26  C18 UNL     1      42.482  29.594  32.563  1.00  0.00    -0.013 C 
HETATM   27  C20 UNL     1      43.297  30.837  32.611  1.00  0.00     0.019 C 
ENDBRANCH  17  18
ENDBRANCH   5  17
TORSDOF 6
ENDMDL
