MODEL 1
REMARK VINA RESULT: -6.868115536      0.000      0.000
REMARK  9 active torsions:
REMARK  status: ('A' for Active; 'I' for Inactive)
REMARK    1  A    between atoms: C2_2  and  C3_3 
REMARK    2  A    between atoms: C5_5  and  C6_6 
REMARK    3  A    between atoms: N2_11  and  C8_12 
REMARK    4  A    between atoms: C8_12  and  C9_13 
REMARK    5  A    between atoms: C9_13  and  C10_14 
REMARK    6  A    between atoms: C10_14  and  C11_15 
REMARK    7  A    between atoms: C11_15  and  C12_16 
REMARK    8  A    between atoms: C16_20  and  C17_21 
REMARK    9  A    between atoms: N3_25  and  C19_26 
ROOT
HETATM    1  C6  UNL     1      16.059 -13.368  21.354  1.00  0.00     0.161 A 
HETATM    2  N1  UNL     1      16.505 -14.384  22.261  1.00  0.00    -0.354 N 
ATOM      3  H1  UNL     1      15.805 -14.933  22.761  1.00  0.00     0.163 HD
HETATM    4  C7  UNL     1      17.863 -14.658  22.492  1.00  0.00     0.175 A 
HETATM    5  S1  UNL     1      18.216 -15.869  23.529  1.00  0.00    -0.041 SA
HETATM    6  N2  UNL     1      18.860 -13.891  21.807  1.00  0.00    -0.327 N 
HETATM    7  C14 UNL     1      18.406 -12.869  20.903  1.00  0.00     0.025 A 
HETATM    8  C15 UNL     1      19.481 -12.050  20.241  1.00  0.00     0.069 C 
HETATM    9  C16 UNL     1      17.131 -12.621  20.686  1.00  0.00     0.068 A 
ENDROOT
BRANCH   1  10
HETATM   10  C5  UNL     1      15.087 -14.004  20.426  1.00  0.00    -0.013 A 
HETATM   11  C4  UNL     1      13.779 -13.981  20.634  1.00  0.00     0.040 A 
HETATM   12  C3  UNL     1      13.162 -14.692  19.538  1.00  0.00     0.030 A 
HETATM   13  N3  UNL     1      14.202 -15.132  18.675  1.00  0.00    -0.357 N 
HETATM   14  C18 UNL     1      15.294 -14.730  19.198  1.00  0.00     0.100 A 
BRANCH  12  15
HETATM   15  C2  UNL     1      11.863 -14.922  19.318  1.00  0.00    -0.002 C 
HETATM   16  C1  UNL     1      11.279 -16.205  19.836  1.00  0.00     0.038 C 
ENDBRANCH  12  15
BRANCH  13  17
HETATM   17  C19 UNL     1      13.984 -15.889  17.457  1.00  0.00     0.124 C 
HETATM   18  C20 UNL     1      15.008 -15.626  16.402  1.00  0.00     0.027 C 
ENDBRANCH  13  17
ENDBRANCH   1  10
BRANCH   9  19
HETATM   19  C17 UNL     1      16.720 -11.604  19.745  1.00  0.00     0.209 C 
HETATM   20  O1  UNL     1      16.118 -10.547  20.158  1.00  0.00    -0.644 OA
HETATM   21  O2  UNL     1      16.919 -11.666  18.392  1.00  0.00    -0.644 OA
ENDBRANCH   9  19
BRANCH   6  22
HETATM   22  C8  UNL     1      20.227 -14.199  22.104  1.00  0.00     0.131 C 
BRANCH  22  23
HETATM   23  C9  UNL     1      20.856 -13.229  23.064  1.00  0.00     0.020 C 
BRANCH  23  24
HETATM   24  C10 UNL     1      21.378 -13.868  24.324  1.00  0.00     0.002 C 
BRANCH  24  25
HETATM   25  C11 UNL     1      21.896 -12.823  25.293  1.00  0.00    -0.000 C 
BRANCH  25  26
HETATM   26  C12 UNL     1      20.784 -12.467  26.259  1.00  0.00    -0.005 C 
HETATM   27  C13 UNL     1      19.687 -13.512  26.220  1.00  0.00     0.005 C 
ENDBRANCH  25  26
ENDBRANCH  24  25
ENDBRANCH  23  24
ENDBRANCH  22  23
ENDBRANCH   6  22
TORSDOF 9
ENDMDL
MODEL 2
REMARK VINA RESULT: -6.861380416      0.554      1.879
REMARK  9 active torsions:
REMARK  status: ('A' for Active; 'I' for Inactive)
REMARK    1  A    between atoms: C2_2  and  C3_3 
REMARK    2  A    between atoms: C5_5  and  C6_6 
REMARK    3  A    between atoms: N2_11  and  C8_12 
REMARK    4  A    between atoms: C8_12  and  C9_13 
REMARK    5  A    between atoms: C9_13  and  C10_14 
REMARK    6  A    between atoms: C10_14  and  C11_15 
REMARK    7  A    between atoms: C11_15  and  C12_16 
REMARK    8  A    between atoms: C16_20  and  C17_21 
REMARK    9  A    between atoms: N3_25  and  C19_26 
ROOT
HETATM    1  C6  UNL     1      15.844 -13.463  21.319  1.00  0.00     0.161 A 
HETATM    2  N1  UNL     1      16.299 -14.448  22.256  1.00  0.00    -0.354 N 
ATOM      3  H1  UNL     1      15.605 -15.001  22.758  1.00  0.00     0.163 HD
HETATM    4  C7  UNL     1      17.661 -14.683  22.514  1.00  0.00     0.175 A 
HETATM    5  S1  UNL     1      18.025 -15.862  23.584  1.00  0.00    -0.041 SA
HETATM    6  N2  UNL     1      18.650 -13.909  21.826  1.00  0.00    -0.327 N 
HETATM    7  C14 UNL     1      18.186 -12.920  20.892  1.00  0.00     0.025 A 
HETATM    8  C15 UNL     1      19.252 -12.090  20.227  1.00  0.00     0.069 C 
HETATM    9  C16 UNL     1      16.909 -12.707  20.650  1.00  0.00     0.068 A 
ENDROOT
BRANCH   1  10
HETATM   10  C5  UNL     1      14.902 -14.143  20.391  1.00  0.00    -0.013 A 
HETATM   11  C4  UNL     1      15.309 -14.862  19.356  1.00  0.00     0.040 A 
HETATM   12  C3  UNL     1      14.127 -15.360  18.693  1.00  0.00     0.030 A 
HETATM   13  N3  UNL     1      12.999 -14.883  19.414  1.00  0.00    -0.357 N 
HETATM   14  C18 UNL     1      13.461 -14.189  20.381  1.00  0.00     0.100 A 
BRANCH  12  15
HETATM   15  C2  UNL     1      14.043 -16.135  17.605  1.00  0.00    -0.002 C 
HETATM   16  C1  UNL     1      14.954 -15.826  16.451  1.00  0.00     0.038 C 
ENDBRANCH  12  15
BRANCH  13  17
HETATM   17  C19 UNL     1      11.623 -15.167  19.056  1.00  0.00     0.124 C 
HETATM   18  C20 UNL     1      11.104 -16.434  19.650  1.00  0.00     0.027 C 
ENDBRANCH  13  17
ENDBRANCH   1  10
BRANCH   9  19
HETATM   19  C17 UNL     1      16.489 -11.721  19.679  1.00  0.00     0.209 C 
HETATM   20  O1  UNL     1      16.058 -10.576  20.067  1.00  0.00    -0.644 OA
HETATM   21  O2  UNL     1      16.506 -11.905  18.323  1.00  0.00    -0.644 OA
ENDBRANCH   9  19
BRANCH   6  22
HETATM   22  C8  UNL     1      20.018 -14.178  22.151  1.00  0.00     0.131 C 
BRANCH  22  23
HETATM   23  C9  UNL     1      20.581 -13.228  23.171  1.00  0.00     0.020 C 
BRANCH  23  24
HETATM   24  C10 UNL     1      21.643 -13.835  24.050  1.00  0.00     0.002 C 
BRANCH  24  25
HETATM   25  C11 UNL     1      21.043 -14.392  25.326  1.00  0.00    -0.000 C 
BRANCH  25  26
HETATM   26  C12 UNL     1      20.058 -13.380  25.877  1.00  0.00    -0.005 C 
HETATM   27  C13 UNL     1      20.770 -12.351  26.732  1.00  0.00     0.005 C 
ENDBRANCH  25  26
ENDBRANCH  24  25
ENDBRANCH  23  24
ENDBRANCH  22  23
ENDBRANCH   6  22
TORSDOF 9
ENDMDL
MODEL 3
REMARK VINA RESULT: -6.786104323      2.389      7.069
REMARK  9 active torsions:
REMARK  status: ('A' for Active; 'I' for Inactive)
REMARK    1  A    between atoms: C2_2  and  C3_3 
REMARK    2  A    between atoms: C5_5  and  C6_6 
REMARK    3  A    between atoms: N2_11  and  C8_12 
REMARK    4  A    between atoms: C8_12  and  C9_13 
REMARK    5  A    between atoms: C9_13  and  C10_14 
REMARK    6  A    between atoms: C10_14  and  C11_15 
REMARK    7  A    between atoms: C11_15  and  C12_16 
REMARK    8  A    between atoms: C16_20  and  C17_21 
REMARK    9  A    between atoms: N3_25  and  C19_26 
ROOT
HETATM    1  C6  UNL     1      18.062 -14.295  21.373  1.00  0.00     0.161 A 
HETATM    2  N1  UNL     1      17.012 -15.196  21.750  1.00  0.00    -0.354 N 
ATOM      3  H1  UNL     1      17.265 -16.109  22.128  1.00  0.00     0.163 HD
HETATM    4  C7  UNL     1      15.650 -14.876  21.622  1.00  0.00     0.175 A 
HETATM    5  S1  UNL     1      14.569 -15.991  22.126  1.00  0.00    -0.041 SA
HETATM    6  N2  UNL     1      15.276 -13.602  21.084  1.00  0.00    -0.327 N 
HETATM    7  C14 UNL     1      16.333 -12.706  20.703  1.00  0.00     0.025 A 
HETATM    8  C15 UNL     1      15.903 -11.399  20.094  1.00  0.00     0.069 C 
HETATM    9  C16 UNL     1      17.609 -13.010  20.830  1.00  0.00     0.068 A 
ENDROOT
BRANCH   1  10
HETATM   10  C5  UNL     1      18.979 -14.179  22.537  1.00  0.00    -0.013 A 
HETATM   11  C4  UNL     1      18.584 -13.728  23.718  1.00  0.00     0.040 A 
HETATM   12  C3  UNL     1      19.735 -13.756  24.590  1.00  0.00     0.030 A 
HETATM   13  N3  UNL     1      20.831 -14.255  23.836  1.00  0.00    -0.357 N 
HETATM   14  C18 UNL     1      20.381 -14.491  22.665  1.00  0.00     0.100 A 
BRANCH  12  15
HETATM   15  C2  UNL     1      19.817 -13.398  25.877  1.00  0.00    -0.002 C 
HETATM   16  C1  UNL     1      20.604 -12.163  26.213  1.00  0.00     0.038 C 
ENDBRANCH  12  15
BRANCH  13  17
HETATM   17  C19 UNL     1      22.171 -14.428  24.363  1.00  0.00     0.124 C 
HETATM   18  C20 UNL     1      23.100 -13.317  24.002  1.00  0.00     0.027 C 
ENDBRANCH  13  17
ENDBRANCH   1  10
BRANCH   9  19
HETATM   19  C17 UNL     1      18.640 -12.065  20.461  1.00  0.00     0.209 C 
HETATM   20  O1  UNL     1      18.647 -10.887  20.970  1.00  0.00    -0.644 OA
HETATM   21  O2  UNL     1      19.653 -12.322  19.577  1.00  0.00    -0.644 OA
ENDBRANCH   9  19
BRANCH   6  22
HETATM   22  C8  UNL     1      13.873 -13.345  20.955  1.00  0.00     0.131 C 
BRANCH  22  23
HETATM   23  C9  UNL     1      13.308 -12.557  22.103  1.00  0.00     0.020 C 
BRANCH  23  24
HETATM   24  C10 UNL     1      12.001 -11.876  21.792  1.00  0.00     0.002 C 
BRANCH  24  25
HETATM   25  C11 UNL     1      12.227 -10.460  21.301  1.00  0.00    -0.000 C 
BRANCH  25  26
HETATM   26  C12 UNL     1      12.619  -9.596  22.483  1.00  0.00    -0.005 C 
HETATM   27  C13 UNL     1      11.573  -9.679  23.576  1.00  0.00     0.005 C 
ENDBRANCH  25  26
ENDBRANCH  24  25
ENDBRANCH  23  24
ENDBRANCH  22  23
ENDBRANCH   6  22
TORSDOF 9
ENDMDL
MODEL 4
REMARK VINA RESULT: -6.723087363      3.028      6.744
REMARK  9 active torsions:
REMARK  status: ('A' for Active; 'I' for Inactive)
REMARK    1  A    between atoms: C2_2  and  C3_3 
REMARK    2  A    between atoms: C5_5  and  C6_6 
REMARK    3  A    between atoms: N2_11  and  C8_12 
REMARK    4  A    between atoms: C8_12  and  C9_13 
REMARK    5  A    between atoms: C9_13  and  C10_14 
REMARK    6  A    between atoms: C10_14  and  C11_15 
REMARK    7  A    between atoms: C11_15  and  C12_16 
REMARK    8  A    between atoms: C16_20  and  C17_21 
REMARK    9  A    between atoms: N3_25  and  C19_26 
ROOT
HETATM    1  C6  UNL     1      16.641 -14.052  20.852  1.00  0.00     0.161 A 
HETATM    2  N1  UNL     1      15.545 -14.885  21.251  1.00  0.00    -0.354 N 
ATOM      3  H1  UNL     1      15.735 -15.856  21.498  1.00  0.00     0.163 HD
HETATM    4  C7  UNL     1      14.220 -14.422  21.317  1.00  0.00     0.175 A 
HETATM    5  S1  UNL     1      13.083 -15.480  21.822  1.00  0.00    -0.041 SA
HETATM    6  N2  UNL     1      13.932 -13.064  20.964  1.00  0.00    -0.327 N 
HETATM    7  C14 UNL     1      15.035 -12.236  20.559  1.00  0.00     0.025 A 
HETATM    8  C15 UNL     1      14.688 -10.831  20.146  1.00  0.00     0.069 C 
HETATM    9  C16 UNL     1      16.276 -12.674  20.505  1.00  0.00     0.068 A 
ENDROOT
BRANCH   1  10
HETATM   10  C5  UNL     1      17.683 -14.162  21.907  1.00  0.00    -0.013 A 
HETATM   11  C4  UNL     1      17.483 -13.763  23.155  1.00  0.00     0.040 A 
HETATM   12  C3  UNL     1      18.703 -14.022  23.884  1.00  0.00     0.030 A 
HETATM   13  N3  UNL     1      19.630 -14.601  22.974  1.00  0.00    -0.357 N 
HETATM   14  C18 UNL     1      19.029 -14.673  21.851  1.00  0.00     0.100 A 
BRANCH  12  15
HETATM   15  C2  UNL     1      18.970 -13.790  25.174  1.00  0.00    -0.002 C 
HETATM   16  C1  UNL     1      18.539 -14.822  26.177  1.00  0.00     0.038 C 
ENDBRANCH  12  15
BRANCH  13  17
HETATM   17  C19 UNL     1      20.978 -15.001  23.329  1.00  0.00     0.124 C 
HETATM   18  C20 UNL     1      21.118 -16.467  23.574  1.00  0.00     0.027 C 
ENDBRANCH  13  17
ENDBRANCH   1  10
BRANCH   9  19
HETATM   19  C17 UNL     1      17.360 -11.797  20.120  1.00  0.00     0.209 C 
HETATM   20  O1  UNL     1      17.715 -11.711  18.889  1.00  0.00    -0.644 OA
HETATM   21  O2  UNL     1      18.077 -11.016  20.986  1.00  0.00    -0.644 OA
ENDBRANCH   9  19
BRANCH   6  22
HETATM   22  C8  UNL     1      12.561 -12.659  21.026  1.00  0.00     0.131 C 
BRANCH  22  23
HETATM   23  C9  UNL     1      12.222 -11.908  22.283  1.00  0.00     0.020 C 
BRANCH  23  24
HETATM   24  C10 UNL     1      11.712 -10.511  22.041  1.00  0.00     0.002 C 
BRANCH  24  25
HETATM   25  C11 UNL     1      12.442  -9.505  22.909  1.00  0.00    -0.000 C 
BRANCH  25  26
HETATM   26  C12 UNL     1      11.545  -9.131  24.072  1.00  0.00    -0.005 C 
HETATM   27  C13 UNL     1      11.826  -7.715  24.532  1.00  0.00     0.005 C 
ENDBRANCH  25  26
ENDBRANCH  24  25
ENDBRANCH  23  24
ENDBRANCH  22  23
ENDBRANCH   6  22
TORSDOF 9
ENDMDL
MODEL 5
REMARK VINA RESULT: -6.603264272      1.712      2.358
REMARK  9 active torsions:
REMARK  status: ('A' for Active; 'I' for Inactive)
REMARK    1  A    between atoms: C2_2  and  C3_3 
REMARK    2  A    between atoms: C5_5  and  C6_6 
REMARK    3  A    between atoms: N2_11  and  C8_12 
REMARK    4  A    between atoms: C8_12  and  C9_13 
REMARK    5  A    between atoms: C9_13  and  C10_14 
REMARK    6  A    between atoms: C10_14  and  C11_15 
REMARK    7  A    between atoms: C11_15  and  C12_16 
REMARK    8  A    between atoms: C16_20  and  C17_21 
REMARK    9  A    between atoms: N3_25  and  C19_26 
ROOT
HETATM    1  C6  UNL     1      16.769 -12.890  22.344  1.00  0.00     0.161 A 
HETATM    2  N1  UNL     1      16.708 -14.021  23.222  1.00  0.00    -0.354 N 
ATOM      3  H1  UNL     1      15.927 -14.090  23.874  1.00  0.00     0.163 HD
HETATM    4  C7  UNL     1      17.676 -15.039  23.222  1.00  0.00     0.175 A 
HETATM    5  S1  UNL     1      17.453 -16.283  24.257  1.00  0.00    -0.041 SA
HETATM    6  N2  UNL     1      18.785 -14.954  22.320  1.00  0.00    -0.327 N 
HETATM    7  C14 UNL     1      18.844 -13.813  21.447  1.00  0.00     0.025 A 
HETATM    8  C15 UNL     1      20.049 -13.731  20.549  1.00  0.00     0.069 C 
HETATM    9  C16 UNL     1      17.930 -12.865  21.447  1.00  0.00     0.068 A 
ENDROOT
BRANCH   1  10
HETATM   10  C5  UNL     1      15.457 -12.800  21.651  1.00  0.00    -0.013 A 
HETATM   11  C4  UNL     1      14.745 -11.684  21.606  1.00  0.00     0.040 A 
HETATM   12  C3  UNL     1      13.545 -11.975  20.857  1.00  0.00     0.030 A 
HETATM   13  N3  UNL     1      13.606 -13.341  20.467  1.00  0.00    -0.357 N 
HETATM   14  C18 UNL     1      14.705 -13.796  20.929  1.00  0.00     0.100 A 
BRANCH  12  15
HETATM   15  C2  UNL     1      12.533 -11.156  20.550  1.00  0.00    -0.002 C 
HETATM   16  C1  UNL     1      12.049 -10.209  21.612  1.00  0.00     0.038 C 
ENDBRANCH  12  15
BRANCH  13  17
HETATM   17  C19 UNL     1      12.577 -14.015  19.698  1.00  0.00     0.124 C 
HETATM   18  C20 UNL     1      13.119 -14.997  18.713  1.00  0.00     0.027 C 
ENDBRANCH  13  17
ENDBRANCH   1  10
BRANCH   9  19
HETATM   19  C17 UNL     1      18.013 -11.750  20.530  1.00  0.00     0.209 C 
HETATM   20  O1  UNL     1      18.558 -10.648  20.901  1.00  0.00    -0.644 OA
HETATM   21  O2  UNL     1      17.541 -11.759  19.245  1.00  0.00    -0.644 OA
ENDBRANCH   9  19
BRANCH   6  22
HETATM   22  C8  UNL     1      19.752 -16.008  22.386  1.00  0.00     0.131 C 
BRANCH  22  23
HETATM   23  C9  UNL     1      21.048 -15.583  23.018  1.00  0.00     0.020 C 
BRANCH  23  24
HETATM   24  C10 UNL     1      20.885 -14.931  24.366  1.00  0.00     0.002 C 
BRANCH  24  25
HETATM   25  C11 UNL     1      21.286 -13.469  24.318  1.00  0.00    -0.000 C 
BRANCH  25  26
HETATM   26  C12 UNL     1      20.279 -12.668  25.119  1.00  0.00    -0.005 C 
HETATM   27  C13 UNL     1      20.778 -12.439  26.531  1.00  0.00     0.005 C 
ENDBRANCH  25  26
ENDBRANCH  24  25
ENDBRANCH  23  24
ENDBRANCH  22  23
ENDBRANCH   6  22
TORSDOF 9
ENDMDL
