MODEL 1
REMARK VINA RESULT: -6.327208817      0.000      0.000
REMARK  8 active torsions:
REMARK  status: ('A' for Active; 'I' for Inactive)
REMARK    1  A    between atoms: O1_2  and  C2_3 
REMARK    2  A    between atoms: C2_3  and  C3_5 
REMARK    3  A    between atoms: C5_8  and  O4_9 
REMARK    4  A    between atoms: C8_13  and  O5_14 
REMARK    5  A    between atoms: O5_14  and  C9_15 
REMARK    6  A    between atoms: C11_18  and  C12_19 
REMARK    7  A    between atoms: C12_19  and  C13_20 
REMARK    8  A    between atoms: C13_20  and  O7_22 
ROOT
HETATM    1  C3  UNL     1      -5.981   3.088  15.381  1.00  0.00     0.119 C 
HETATM    2  C4  UNL     1      -6.585   2.024  16.311  1.00  0.00     0.186 C 
HETATM    3  O3  UNL     1      -5.526   1.352  16.876  1.00  0.00    -0.354 OA
HETATM    4  C5  UNL     1      -4.476   1.405  15.960  1.00  0.00     0.166 C 
HETATM    5  C6  UNL     1      -4.787   0.485  14.836  1.00  0.00     0.071 C 
HETATM    6  C7  UNL     1      -4.015   0.696  13.585  1.00  0.00     0.038 C 
HETATM    7  C8  UNL     1      -3.914   2.175  13.192  1.00  0.00     0.136 C 
HETATM    8  C11 UNL     1      -3.642   3.032  14.371  1.00  0.00     0.028 C 
HETATM    9  C15 UNL     1      -4.538   2.865  15.546  1.00  0.00     0.070 C 
ENDROOT
BRANCH   8  10
HETATM   10  C12 UNL     1      -3.349   4.435  13.969  1.00  0.00     0.039 C 
BRANCH  10  11
HETATM   11  C13 UNL     1      -1.920   4.854  14.064  1.00  0.00     0.114 C 
HETATM   12  C14 UNL     1      -1.169   4.675  12.761  1.00  0.00     0.039 C 
BRANCH  11  13
HETATM   13  O7  UNL     1      -1.244   4.074  15.012  1.00  0.00    -0.396 OA
ATOM     14  H7  UNL     1      -1.139   4.556  15.823  1.00  0.00     0.210 HD
ENDBRANCH  11  13
ENDBRANCH  10  11
ENDBRANCH   8  10
BRANCH   7  15
HETATM   15  O5  UNL     1      -5.049   2.499  12.436  1.00  0.00    -0.316 OA
BRANCH  15  16
HETATM   16  C9  UNL     1      -4.983   2.612  11.066  1.00  0.00     0.255 C 
HETATM   17  C10 UNL     1      -4.145   3.658  10.403  1.00  0.00     0.126 C 
HETATM   18  O6  UNL     1      -5.612   1.858  10.279  1.00  0.00    -0.266 OA
ENDBRANCH  15  16
ENDBRANCH   7  15
BRANCH   1  19
HETATM   19  C2  UNL     1      -6.493   4.387  15.895  1.00  0.00     0.265 C 
HETATM   20  O2  UNL     1      -7.154   4.406  16.948  1.00  0.00    -0.265 OA
BRANCH  19  21
HETATM   21  O1  UNL     1      -6.237   5.541  15.215  1.00  0.00    -0.326 OA
HETATM   22  C1  UNL     1      -6.704   5.801  13.896  1.00  0.00     0.213 C 
ENDBRANCH  19  21
ENDBRANCH   1  19
BRANCH   4  23
HETATM   23  O4  UNL     1      -3.260   1.139  16.569  1.00  0.00    -0.365 OA
ATOM     24  H4  UNL     1      -2.740   0.534  16.053  1.00  0.00     0.213 HD
ENDBRANCH   4  23
TORSDOF 8
ENDMDL
MODEL 2
REMARK VINA RESULT: -6.102583187      1.836      4.961
REMARK  8 active torsions:
REMARK  status: ('A' for Active; 'I' for Inactive)
REMARK    1  A    between atoms: O1_2  and  C2_3 
REMARK    2  A    between atoms: C2_3  and  C3_5 
REMARK    3  A    between atoms: C5_8  and  O4_9 
REMARK    4  A    between atoms: C8_13  and  O5_14 
REMARK    5  A    between atoms: O5_14  and  C9_15 
REMARK    6  A    between atoms: C11_18  and  C12_19 
REMARK    7  A    between atoms: C12_19  and  C13_20 
REMARK    8  A    between atoms: C13_20  and  O7_22 
ROOT
HETATM    1  C3  UNL     1      -2.523   4.117  12.769  1.00  0.00     0.119 C 
HETATM    2  C4  UNL     1      -1.945   4.273  11.354  1.00  0.00     0.186 C 
HETATM    3  O3  UNL     1      -2.970   4.733  10.561  1.00  0.00    -0.354 OA
HETATM    4  C5  UNL     1      -4.157   4.253  11.111  1.00  0.00     0.166 C 
HETATM    5  C6  UNL     1      -4.252   2.799  10.826  1.00  0.00     0.071 C 
HETATM    6  C7  UNL     1      -5.212   2.030  11.659  1.00  0.00     0.038 C 
HETATM    7  C8  UNL     1      -5.122   2.385  13.148  1.00  0.00     0.136 C 
HETATM    8  C11 UNL     1      -4.991   3.848  13.350  1.00  0.00     0.028 C 
HETATM    9  C15 UNL     1      -3.919   4.538  12.584  1.00  0.00     0.070 C 
ENDROOT
BRANCH   8  10
HETATM   10  C12 UNL     1      -5.102   4.212  14.789  1.00  0.00     0.039 C 
BRANCH  10  11
HETATM   11  C13 UNL     1      -5.776   5.511  15.080  1.00  0.00     0.114 C 
HETATM   12  C14 UNL     1      -6.695   5.958  13.962  1.00  0.00     0.039 C 
BRANCH  11  13
HETATM   13  O7  UNL     1      -4.829   6.530  15.235  1.00  0.00    -0.396 OA
ATOM     14  H7  UNL     1      -4.762   7.045  14.440  1.00  0.00     0.210 HD
ENDBRANCH  11  13
ENDBRANCH  10  11
ENDBRANCH   8  10
BRANCH   7  15
HETATM   15  O5  UNL     1      -4.126   1.585  13.724  1.00  0.00    -0.316 OA
BRANCH  15  16
HETATM   16  C9  UNL     1      -4.431   0.653  14.689  1.00  0.00     0.255 C 
HETATM   17  C10 UNL     1      -4.382   0.986  16.146  1.00  0.00     0.126 C 
HETATM   18  O6  UNL     1      -4.768  -0.531  14.427  1.00  0.00    -0.266 OA
ENDBRANCH  15  16
ENDBRANCH   7  15
BRANCH   1  19
HETATM   19  C2  UNL     1      -1.693   5.003  13.627  1.00  0.00     0.265 C 
HETATM   20  O2  UNL     1      -1.440   4.655  14.794  1.00  0.00    -0.265 OA
BRANCH  19  21
HETATM   21  O1  UNL     1      -1.217   6.182  13.136  1.00  0.00    -0.326 OA
HETATM   22  C1  UNL     1      -1.611   7.459  13.628  1.00  0.00     0.213 C 
ENDBRANCH  19  21
ENDBRANCH   1  19
BRANCH   4  23
HETATM   23  O4  UNL     1      -5.252   4.975  10.663  1.00  0.00    -0.365 OA
ATOM     24  H4  UNL     1      -5.755   5.326  11.387  1.00  0.00     0.213 HD
ENDBRANCH   4  23
TORSDOF 8
ENDMDL
MODEL 3
REMARK VINA RESULT: -5.877006827      2.303      5.731
REMARK  8 active torsions:
REMARK  status: ('A' for Active; 'I' for Inactive)
REMARK    1  A    between atoms: O1_2  and  C2_3 
REMARK    2  A    between atoms: C2_3  and  C3_5 
REMARK    3  A    between atoms: C5_8  and  O4_9 
REMARK    4  A    between atoms: C8_13  and  O5_14 
REMARK    5  A    between atoms: O5_14  and  C9_15 
REMARK    6  A    between atoms: C11_18  and  C12_19 
REMARK    7  A    between atoms: C12_19  and  C13_20 
REMARK    8  A    between atoms: C13_20  and  O7_22 
ROOT
HETATM    1  C3  UNL     1      -2.789   5.024  10.826  1.00  0.00     0.119 C 
HETATM    2  C4  UNL     1      -1.437   5.492  10.265  1.00  0.00     0.186 C 
HETATM    3  O3  UNL     1      -0.494   4.604  10.725  1.00  0.00    -0.354 OA
HETATM    4  C5  UNL     1      -0.958   4.114  11.945  1.00  0.00     0.166 C 
HETATM    5  C6  UNL     1      -0.816   5.183  12.965  1.00  0.00     0.071 C 
HETATM    6  C7  UNL     1      -1.614   5.013  14.207  1.00  0.00     0.038 C 
HETATM    7  C8  UNL     1      -3.059   4.584  13.929  1.00  0.00     0.136 C 
HETATM    8  C11 UNL     1      -3.122   3.544  12.874  1.00  0.00     0.028 C 
HETATM    9  C15 UNL     1      -2.411   3.834  11.600  1.00  0.00     0.070 C 
ENDROOT
BRANCH   8  10
HETATM   10  C12 UNL     1      -4.495   2.985  12.740  1.00  0.00     0.039 C 
BRANCH  10  11
HETATM   11  C13 UNL     1      -4.776   1.754  13.536  1.00  0.00     0.114 C 
HETATM   12  C14 UNL     1      -4.946   2.037  15.014  1.00  0.00     0.039 C 
BRANCH  11  13
HETATM   13  O7  UNL     1      -3.708   0.852  13.435  1.00  0.00    -0.396 OA
ATOM     14  H7  UNL     1      -3.997  -0.029  13.641  1.00  0.00     0.210 HD
ENDBRANCH  11  13
ENDBRANCH  10  11
ENDBRANCH   8  10
BRANCH   7  15
HETATM   15  O5  UNL     1      -3.820   5.740  13.709  1.00  0.00    -0.316 OA
BRANCH  15  16
HETATM   16  C9  UNL     1      -4.566   6.303  14.719  1.00  0.00     0.255 C 
HETATM   17  C10 UNL     1      -5.950   5.831  15.030  1.00  0.00     0.126 C 
HETATM   18  O6  UNL     1      -4.149   7.243  15.445  1.00  0.00    -0.266 OA
ENDBRANCH  15  16
ENDBRANCH   7  15
BRANCH   1  19
HETATM   19  C2  UNL     1      -3.637   4.769   9.631  1.00  0.00     0.265 C 
HETATM   20  O2  UNL     1      -3.548   3.677   9.044  1.00  0.00    -0.265 OA
BRANCH  19  21
HETATM   21  O1  UNL     1      -4.500   5.727   9.187  1.00  0.00    -0.326 OA
HETATM   22  C1  UNL     1      -5.401   6.432  10.034  1.00  0.00     0.213 C 
ENDBRANCH  19  21
ENDBRANCH   1  19
BRANCH   4  23
HETATM   23  O4  UNL     1      -0.321   2.933  12.292  1.00  0.00    -0.365 OA
ATOM     24  H4  UNL     1       0.624   3.033  12.278  1.00  0.00     0.213 HD
ENDBRANCH   4  23
TORSDOF 8
ENDMDL
MODEL 4
REMARK VINA RESULT: -5.808352895      1.563      4.650
REMARK  8 active torsions:
REMARK  status: ('A' for Active; 'I' for Inactive)
REMARK    1  A    between atoms: O1_2  and  C2_3 
REMARK    2  A    between atoms: C2_3  and  C3_5 
REMARK    3  A    between atoms: C5_8  and  O4_9 
REMARK    4  A    between atoms: C8_13  and  O5_14 
REMARK    5  A    between atoms: O5_14  and  C9_15 
REMARK    6  A    between atoms: C11_18  and  C12_19 
REMARK    7  A    between atoms: C12_19  and  C13_20 
REMARK    8  A    between atoms: C13_20  and  O7_22 
ROOT
HETATM    1  C3  UNL     1      -3.112   5.228  13.749  1.00  0.00     0.119 C 
HETATM    2  C4  UNL     1      -3.377   6.710  13.439  1.00  0.00     0.186 C 
HETATM    3  O3  UNL     1      -4.321   7.136  14.343  1.00  0.00    -0.354 OA
HETATM    4  C5  UNL     1      -5.097   6.026  14.675  1.00  0.00     0.166 C 
HETATM    5  C6  UNL     1      -5.978   5.709  13.523  1.00  0.00     0.071 C 
HETATM    6  C7  UNL     1      -6.573   4.348  13.510  1.00  0.00     0.038 C 
HETATM    7  C8  UNL     1      -5.558   3.253  13.859  1.00  0.00     0.136 C 
HETATM    8  C11 UNL     1      -4.690   3.659  14.991  1.00  0.00     0.028 C 
HETATM    9  C15 UNL     1      -4.016   4.980  14.881  1.00  0.00     0.070 C 
ENDROOT
BRANCH   8  10
HETATM   10  C12 UNL     1      -3.841   2.530  15.459  1.00  0.00     0.039 C 
BRANCH  10  11
HETATM   11  C13 UNL     1      -4.573   1.325  15.949  1.00  0.00     0.114 C 
HETATM   12  C14 UNL     1      -5.361   1.592  17.214  1.00  0.00     0.039 C 
BRANCH  11  13
HETATM   13  O7  UNL     1      -3.671   0.300  16.262  1.00  0.00    -0.396 OA
ATOM     14  H7  UNL     1      -3.356  -0.119  15.470  1.00  0.00     0.210 HD
ENDBRANCH  11  13
ENDBRANCH  10  11
ENDBRANCH   8  10
BRANCH   7  15
HETATM   15  O5  UNL     1      -4.904   2.877  12.677  1.00  0.00    -0.316 OA
BRANCH  15  16
HETATM   16  C9  UNL     1      -5.070   1.620  12.142  1.00  0.00     0.255 C 
HETATM   17  C10 UNL     1      -5.621   1.418  10.767  1.00  0.00     0.126 C 
HETATM   18  O6  UNL     1      -4.777   0.562  12.758  1.00  0.00    -0.266 OA
ENDBRANCH  15  16
ENDBRANCH   7  15
BRANCH   1  19
HETATM   19  C2  UNL     1      -1.659   5.151  14.059  1.00  0.00     0.265 C 
HETATM   20  O2  UNL     1      -1.279   4.466  15.024  1.00  0.00    -0.265 OA
BRANCH  19  21
HETATM   21  O1  UNL     1      -0.758   5.827  13.290  1.00  0.00    -0.326 OA
HETATM   22  C1  UNL     1      -0.260   5.343  12.048  1.00  0.00     0.213 C 
ENDBRANCH  19  21
ENDBRANCH   1  19
BRANCH   4  23
HETATM   23  O4  UNL     1      -5.789   6.228  15.858  1.00  0.00    -0.365 OA
ATOM     24  H4  UNL     1      -6.008   5.403  16.276  1.00  0.00     0.213 HD
ENDBRANCH   4  23
TORSDOF 8
ENDMDL
MODEL 5
REMARK VINA RESULT: -5.808127122      2.988      5.869
REMARK  8 active torsions:
REMARK  status: ('A' for Active; 'I' for Inactive)
REMARK    1  A    between atoms: O1_2  and  C2_3 
REMARK    2  A    between atoms: C2_3  and  C3_5 
REMARK    3  A    between atoms: C5_8  and  O4_9 
REMARK    4  A    between atoms: C8_13  and  O5_14 
REMARK    5  A    between atoms: O5_14  and  C9_15 
REMARK    6  A    between atoms: C11_18  and  C12_19 
REMARK    7  A    between atoms: C12_19  and  C13_20 
REMARK    8  A    between atoms: C13_20  and  O7_22 
ROOT
HETATM    1  C3  UNL     1      -3.494   4.310  11.988  1.00  0.00     0.119 C 
HETATM    2  C4  UNL     1      -3.552   2.976  12.747  1.00  0.00     0.186 C 
HETATM    3  O3  UNL     1      -4.804   2.901  13.311  1.00  0.00    -0.354 OA
HETATM    4  C5  UNL     1      -5.222   4.209  13.550  1.00  0.00     0.166 C 
HETATM    5  C6  UNL     1      -4.457   4.743  14.705  1.00  0.00     0.071 C 
HETATM    6  C7  UNL     1      -4.452   6.220  14.860  1.00  0.00     0.038 C 
HETATM    7  C8  UNL     1      -4.206   6.955  13.537  1.00  0.00     0.136 C 
HETATM    8  C11 UNL     1      -4.972   6.341  12.426  1.00  0.00     0.028 C 
HETATM    9  C15 UNL     1      -4.828   4.872  12.241  1.00  0.00     0.070 C 
ENDROOT
BRANCH   8  10
HETATM   10  C12 UNL     1      -4.892   7.164  11.188  1.00  0.00     0.039 C 
BRANCH  10  11
HETATM   11  C13 UNL     1      -6.192   7.460  10.519  1.00  0.00     0.114 C 
HETATM   12  C14 UNL     1      -7.319   7.694  11.504  1.00  0.00     0.039 C 
BRANCH  11  13
HETATM   13  O7  UNL     1      -6.591   6.376   9.725  1.00  0.00    -0.396 OA
ATOM     14  H7  UNL     1      -7.492   6.484   9.445  1.00  0.00     0.210 HD
ENDBRANCH  11  13
ENDBRANCH  10  11
ENDBRANCH   8  10
BRANCH   7  15
HETATM   15  O5  UNL     1      -2.820   7.062  13.354  1.00  0.00    -0.316 OA
BRANCH  15  16
HETATM   16  C9  UNL     1      -2.160   8.244  13.598  1.00  0.00     0.255 C 
HETATM   17  C10 UNL     1      -1.592   8.564  14.944  1.00  0.00     0.126 C 
HETATM   18  O6  UNL     1      -1.988   9.134  12.724  1.00  0.00    -0.266 OA
ENDBRANCH  15  16
ENDBRANCH   7  15
BRANCH   1  19
HETATM   19  C2  UNL     1      -3.211   3.941  10.576  1.00  0.00     0.265 C 
HETATM   20  O2  UNL     1      -4.117   3.446   9.883  1.00  0.00    -0.265 OA
BRANCH  19  21
HETATM   21  O1  UNL     1      -1.969   4.144  10.051  1.00  0.00    -0.326 OA
HETATM   22  C1  UNL     1      -0.948   4.891  10.703  1.00  0.00     0.213 C 
ENDBRANCH  19  21
ENDBRANCH   1  19
BRANCH   4  23
HETATM   23  O4  UNL     1      -6.596   4.279  13.719  1.00  0.00    -0.365 OA
ATOM     24  H4  UNL     1      -6.822   4.657  14.560  1.00  0.00     0.213 HD
ENDBRANCH   4  23
TORSDOF 8
ENDMDL
