MODEL 1
REMARK VINA RESULT: -6.722034592      0.000      0.000
REMARK  7 active torsions:
REMARK  status: ('A' for Active; 'I' for Inactive)
REMARK    1  A    between atoms: O1_2  and  C2_3 
REMARK    2  A    between atoms: C2_3  and  C3_4 
REMARK    3  A    between atoms: C7_10  and  C8_11 
REMARK    4  A    between atoms: C8_11  and  O2_13 
REMARK    5  A    between atoms: C8_11  and  C10_15 
REMARK    6  A    between atoms: C10_15  and  O3_16 
REMARK    7  A    between atoms: C11_19  and  O5_20 
ROOT
HETATM    1  C3  UNL     1      -5.138   5.943  13.038  1.00  0.00     0.152 C 
HETATM    2  C4  UNL     1      -4.089   6.835  13.680  1.00  0.00     0.073 C 
HETATM    3  N1  UNL     1      -5.965   5.303  14.040  1.00  0.00    -0.361 N 
ATOM      4  H1  UNL     1      -6.740   5.832  14.441  1.00  0.00     0.162 HD
HETATM    5  C5  UNL     1      -5.776   4.133  14.437  1.00  0.00     0.029 C 
HETATM    6  C6  UNL     1      -6.595   3.406  15.473  1.00  0.00     0.091 C 
HETATM    7  C7  UNL     1      -5.659   2.434  16.121  1.00  0.00     0.166 C 
HETATM    8  O4  UNL     1      -5.246   1.466  15.214  1.00  0.00    -0.349 OA
HETATM    9  C11 UNL     1      -4.973   1.903  13.944  1.00  0.00     0.302 C 
HETATM   10  C13 UNL     1      -4.645   3.358  13.855  1.00  0.00     0.176 C 
HETATM   11  O6  UNL     1      -3.417   3.607  14.444  1.00  0.00    -0.364 OA
HETATM   12  C14 UNL     1      -2.851   3.776  13.191  1.00  0.00     0.205 C 
HETATM   13  C15 UNL     1      -4.187   3.860  12.557  1.00  0.00     0.194 C 
HETATM   14  O7  UNL     1      -4.629   5.078  12.127  1.00  0.00    -0.348 OA
ENDROOT
BRANCH   7  15
HETATM   15  C8  UNL     1      -6.207   1.682  17.303  1.00  0.00     0.102 C 
HETATM   16  C9  UNL     1      -6.520   2.559  18.481  1.00  0.00     0.051 C 
BRANCH  15  17
HETATM   17  O2  UNL     1      -7.465   1.177  16.838  1.00  0.00    -0.385 OA
ATOM     18  H2  UNL     1      -7.235   0.648  16.083  1.00  0.00     0.210 HD
ENDBRANCH  15  17
BRANCH  15  19
HETATM   19  C10 UNL     1      -5.450   0.487  17.741  1.00  0.00     0.204 C 
BRANCH  19  20
HETATM   20  O3  UNL     1      -5.854  -0.676  17.134  1.00  0.00    -0.398 OA
ATOM     21  H3  UNL     1      -5.176  -1.340  17.091  1.00  0.00     0.209 HD
ENDBRANCH  19  20
ENDBRANCH  15  19
ENDBRANCH   7  15
BRANCH   9  22
HETATM   22  O5  UNL     1      -3.889   1.166  13.481  1.00  0.00    -0.362 OA
HETATM   23  C12 UNL     1      -4.192  -0.147  13.191  1.00  0.00     0.205 C 
ENDBRANCH   9  22
BRANCH   1  24
HETATM   24  C2  UNL     1      -6.083   6.896  12.291  1.00  0.00     0.227 C 
BRANCH  24  25
HETATM   25  O1  UNL     1      -5.671   6.889  10.968  1.00  0.00    -0.391 OA
HETATM   26  C1  UNL     1      -6.701   7.285  10.104  1.00  0.00     0.201 C 
ENDBRANCH  24  25
ENDBRANCH   1  24
TORSDOF 7
ENDMDL
MODEL 2
REMARK VINA RESULT: -6.336092556      2.223      3.231
REMARK  7 active torsions:
REMARK  status: ('A' for Active; 'I' for Inactive)
REMARK    1  A    between atoms: O1_2  and  C2_3 
REMARK    2  A    between atoms: C2_3  and  C3_4 
REMARK    3  A    between atoms: C7_10  and  C8_11 
REMARK    4  A    between atoms: C8_11  and  O2_13 
REMARK    5  A    between atoms: C8_11  and  C10_15 
REMARK    6  A    between atoms: C10_15  and  O3_16 
REMARK    7  A    between atoms: C11_19  and  O5_20 
ROOT
HETATM    1  C3  UNL     1      -2.507   6.556  13.304  1.00  0.00     0.152 C 
HETATM    2  C4  UNL     1      -0.997   6.400  13.240  1.00  0.00     0.073 C 
HETATM    3  N1  UNL     1      -3.077   5.714  14.336  1.00  0.00    -0.361 N 
ATOM      4  H1  UNL     1      -3.058   6.047  15.300  1.00  0.00     0.162 HD
HETATM    5  C5  UNL     1      -3.593   4.600  14.101  1.00  0.00     0.029 C 
HETATM    6  C6  UNL     1      -4.204   3.674  15.122  1.00  0.00     0.091 C 
HETATM    7  C7  UNL     1      -4.017   2.291  14.579  1.00  0.00     0.166 C 
HETATM    8  O4  UNL     1      -4.755   2.114  13.415  1.00  0.00    -0.349 OA
HETATM    9  C11 UNL     1      -4.775   3.172  12.543  1.00  0.00     0.302 C 
HETATM   10  C13 UNL     1      -3.622   4.110  12.694  1.00  0.00     0.176 C 
HETATM   11  O6  UNL     1      -2.452   3.500  12.276  1.00  0.00    -0.364 OA
HETATM   12  C14 UNL     1      -2.461   4.274  11.126  1.00  0.00     0.205 C 
HETATM   13  C15 UNL     1      -3.492   5.173  11.693  1.00  0.00     0.194 C 
HETATM   14  O7  UNL     1      -3.117   6.421  12.101  1.00  0.00    -0.348 OA
ENDROOT
BRANCH   7  15
HETATM   15  C8  UNL     1      -4.417   1.166  15.493  1.00  0.00     0.102 C 
HETATM   16  C9  UNL     1      -4.378  -0.185  14.838  1.00  0.00     0.051 C 
BRANCH  15  17
HETATM   17  O2  UNL     1      -3.390   1.152  16.493  1.00  0.00    -0.385 OA
ATOM     18  H2  UNL     1      -3.506   0.316  16.928  1.00  0.00     0.210 HD
ENDBRANCH  15  17
BRANCH  15  19
HETATM   19  C10 UNL     1      -5.682   1.334  16.243  1.00  0.00     0.204 C 
BRANCH  19  20
HETATM   20  O3  UNL     1      -6.258   0.150  16.630  1.00  0.00    -0.398 OA
ATOM     21  H3  UNL     1      -6.472   0.112  17.554  1.00  0.00     0.209 HD
ENDBRANCH  19  20
ENDBRANCH  15  19
ENDBRANCH   7  15
BRANCH   9  22
HETATM   22  O5  UNL     1      -4.763   2.644  11.258  1.00  0.00    -0.362 OA
HETATM   23  C12 UNL     1      -5.501   1.488  11.124  1.00  0.00     0.205 C 
ENDBRANCH   9  22
BRANCH   1  24
HETATM   24  C2  UNL     1      -2.750   7.994  13.785  1.00  0.00     0.227 C 
BRANCH  24  25
HETATM   25  O1  UNL     1      -2.447   8.006  15.137  1.00  0.00    -0.391 OA
HETATM   26  C1  UNL     1      -1.755   9.169  15.501  1.00  0.00     0.201 C 
ENDBRANCH  24  25
ENDBRANCH   1  24
TORSDOF 7
ENDMDL
MODEL 3
REMARK VINA RESULT: -6.134026259      1.633      6.262
REMARK  7 active torsions:
REMARK  status: ('A' for Active; 'I' for Inactive)
REMARK    1  A    between atoms: O1_2  and  C2_3 
REMARK    2  A    between atoms: C2_3  and  C3_4 
REMARK    3  A    between atoms: C7_10  and  C8_11 
REMARK    4  A    between atoms: C8_11  and  O2_13 
REMARK    5  A    between atoms: C8_11  and  C10_15 
REMARK    6  A    between atoms: C10_15  and  O3_16 
REMARK    7  A    between atoms: C11_19  and  O5_20 
ROOT
HETATM    1  C3  UNL     1      -4.543   2.931  14.807  1.00  0.00     0.152 C 
HETATM    2  C4  UNL     1      -4.383   1.791  13.817  1.00  0.00     0.073 C 
HETATM    3  N1  UNL     1      -5.559   3.867  14.370  1.00  0.00    -0.361 N 
ATOM      4  H1  UNL     1      -6.536   3.643  14.555  1.00  0.00     0.162 HD
HETATM    5  C5  UNL     1      -5.294   4.935  13.778  1.00  0.00     0.029 C 
HETATM    6  C6  UNL     1      -6.297   5.953  13.297  1.00  0.00     0.091 C 
HETATM    7  C7  UNL     1      -5.670   6.608  12.105  1.00  0.00     0.166 C 
HETATM    8  O4  UNL     1      -4.543   7.331  12.476  1.00  0.00    -0.349 OA
HETATM    9  C11 UNL     1      -3.733   6.750  13.417  1.00  0.00     0.302 C 
HETATM   10  C13 UNL     1      -3.867   5.264  13.505  1.00  0.00     0.176 C 
HETATM   11  O6  UNL     1      -3.349   4.669  12.368  1.00  0.00    -0.364 OA
HETATM   12  C14 UNL     1      -2.246   4.248  13.092  1.00  0.00     0.205 C 
HETATM   13  C15 UNL     1      -2.919   4.560  14.373  1.00  0.00     0.194 C 
HETATM   14  O7  UNL     1      -3.371   3.526  15.142  1.00  0.00    -0.348 OA
ENDROOT
BRANCH   7  15
HETATM   15  C8  UNL     1      -6.544   7.570  11.349  1.00  0.00     0.102 C 
HETATM   16  C9  UNL     1      -7.819   7.916  12.065  1.00  0.00     0.051 C 
BRANCH  15  17
HETATM   17  O2  UNL     1      -5.773   8.778  11.306  1.00  0.00    -0.385 OA
ATOM     18  H2  UNL     1      -6.116   9.242  10.552  1.00  0.00     0.210 HD
ENDBRANCH  15  17
BRANCH  15  19
HETATM   19  C10 UNL     1      -6.826   7.242   9.933  1.00  0.00     0.204 C 
BRANCH  19  20
HETATM   20  O3  UNL     1      -6.176   6.119   9.485  1.00  0.00    -0.398 OA
ATOM     21  H3  UNL     1      -5.623   6.273   8.729  1.00  0.00     0.209 HD
ENDBRANCH  19  20
ENDBRANCH  15  19
ENDBRANCH   7  15
BRANCH   9  22
HETATM   22  O5  UNL     1      -2.422   7.066  13.080  1.00  0.00    -0.362 OA
HETATM   23  C12 UNL     1      -2.289   8.278  12.438  1.00  0.00     0.205 C 
ENDBRANCH   9  22
BRANCH   1  24
HETATM   24  C2  UNL     1      -5.114   2.290  16.081  1.00  0.00     0.227 C 
BRANCH  24  25
HETATM   25  O1  UNL     1      -6.471   2.569  16.079  1.00  0.00    -0.391 OA
HETATM   26  C1  UNL     1      -7.165   1.767  16.994  1.00  0.00     0.201 C 
ENDBRANCH  24  25
ENDBRANCH   1  24
TORSDOF 7
ENDMDL
MODEL 4
REMARK VINA RESULT: -5.795325098      2.401      3.325
REMARK  7 active torsions:
REMARK  status: ('A' for Active; 'I' for Inactive)
REMARK    1  A    between atoms: O1_2  and  C2_3 
REMARK    2  A    between atoms: C2_3  and  C3_4 
REMARK    3  A    between atoms: C7_10  and  C8_11 
REMARK    4  A    between atoms: C8_11  and  O2_13 
REMARK    5  A    between atoms: C8_11  and  C10_15 
REMARK    6  A    between atoms: C10_15  and  O3_16 
REMARK    7  A    between atoms: C11_19  and  O5_20 
ROOT
HETATM    1  C3  UNL     1      -2.168   7.072  12.688  1.00  0.00     0.152 C 
HETATM    2  C4  UNL     1      -0.686   6.754  12.785  1.00  0.00     0.073 C 
HETATM    3  N1  UNL     1      -2.913   6.429  13.751  1.00  0.00    -0.361 N 
ATOM      4  H1  UNL     1      -2.934   6.875  14.668  1.00  0.00     0.162 HD
HETATM    5  C5  UNL     1      -3.532   5.353  13.598  1.00  0.00     0.029 C 
HETATM    6  C6  UNL     1      -4.326   4.630  14.656  1.00  0.00     0.091 C 
HETATM    7  C7  UNL     1      -4.254   3.178  14.295  1.00  0.00     0.166 C 
HETATM    8  O4  UNL     1      -4.910   2.935  13.094  1.00  0.00    -0.349 OA
HETATM    9  C11 UNL     1      -4.738   3.873  12.109  1.00  0.00     0.302 C 
HETATM   10  C13 UNL     1      -3.502   4.698  12.260  1.00  0.00     0.176 C 
HETATM   11  O6  UNL     1      -2.379   3.923  12.027  1.00  0.00    -0.364 OA
HETATM   12  C14 UNL     1      -2.206   4.544  10.801  1.00  0.00     0.205 C 
HETATM   13  C15 UNL     1      -3.170   5.608  11.161  1.00  0.00     0.194 C 
HETATM   14  O7  UNL     1      -2.689   6.852  11.456  1.00  0.00    -0.348 OA
ENDROOT
BRANCH   7  15
HETATM   15  C8  UNL     1      -4.853   2.223  15.290  1.00  0.00     0.102 C 
HETATM   16  C9  UNL     1      -6.195   2.658  15.810  1.00  0.00     0.051 C 
BRANCH  15  17
HETATM   17  O2  UNL     1      -5.089   1.032  14.528  1.00  0.00    -0.385 OA
ATOM     18  H2  UNL     1      -5.105   0.342  15.181  1.00  0.00     0.210 HD
ENDBRANCH  15  17
BRANCH  15  19
HETATM   19  C10 UNL     1      -3.985   1.798  16.411  1.00  0.00     0.204 C 
BRANCH  19  20
HETATM   20  O3  UNL     1      -3.536   0.505  16.303  1.00  0.00    -0.398 OA
ATOM     21  H3  UNL     1      -3.705   0.111  15.456  1.00  0.00     0.209 HD
ENDBRANCH  19  20
ENDBRANCH  15  19
ENDBRANCH   7  15
BRANCH   9  22
HETATM   22  O5  UNL     1      -4.682   3.191  10.900  1.00  0.00    -0.362 OA
HETATM   23  C12 UNL     1      -5.215   1.921  10.952  1.00  0.00     0.205 C 
ENDBRANCH   9  22
BRANCH   1  24
HETATM   24  C2  UNL     1      -2.284   8.576  12.975  1.00  0.00     0.227 C 
BRANCH  24  25
HETATM   25  O1  UNL     1      -2.590   8.690  14.322  1.00  0.00    -0.391 OA
HETATM   26  C1  UNL     1      -1.846   9.705  14.938  1.00  0.00     0.201 C 
ENDBRANCH  24  25
ENDBRANCH   1  24
TORSDOF 7
ENDMDL
MODEL 5
REMARK VINA RESULT: -5.754939974      1.673      2.206
REMARK  7 active torsions:
REMARK  status: ('A' for Active; 'I' for Inactive)
REMARK    1  A    between atoms: O1_2  and  C2_3 
REMARK    2  A    between atoms: C2_3  and  C3_4 
REMARK    3  A    between atoms: C7_10  and  C8_11 
REMARK    4  A    between atoms: C8_11  and  O2_13 
REMARK    5  A    between atoms: C8_11  and  C10_15 
REMARK    6  A    between atoms: C10_15  and  O3_16 
REMARK    7  A    between atoms: C11_19  and  O5_20 
ROOT
HETATM    1  C3  UNL     1      -4.530   6.335  12.156  1.00  0.00     0.152 C 
HETATM    2  C4  UNL     1      -3.097   6.830  12.250  1.00  0.00     0.073 C 
HETATM    3  N1  UNL     1      -4.908   5.595  13.343  1.00  0.00    -0.361 N 
ATOM      4  H1  UNL     1      -5.201   6.118  14.168  1.00  0.00     0.162 HD
HETATM    5  C5  UNL     1      -4.893   4.347  13.404  1.00  0.00     0.029 C 
HETATM    6  C6  UNL     1      -5.272   3.514  14.602  1.00  0.00     0.091 C 
HETATM    7  C7  UNL     1      -4.461   2.260  14.498  1.00  0.00     0.166 C 
HETATM    8  O4  UNL     1      -4.838   1.519  13.384  1.00  0.00    -0.349 OA
HETATM    9  C11 UNL     1      -5.107   2.232  12.245  1.00  0.00     0.302 C 
HETATM   10  C13 UNL     1      -4.463   3.580  12.201  1.00  0.00     0.176 C 
HETATM   11  O6  UNL     1      -3.092   3.451  12.064  1.00  0.00    -0.364 OA
HETATM   12  C14 UNL     1      -3.187   3.855  10.742  1.00  0.00     0.205 C 
HETATM   13  C15 UNL     1      -4.574   4.331  10.948  1.00  0.00     0.194 C 
HETATM   14  O7  UNL     1      -4.801   5.677  11.002  1.00  0.00    -0.348 OA
ENDROOT
BRANCH   7  15
HETATM   15  C8  UNL     1      -4.552   1.319  15.667  1.00  0.00     0.102 C 
HETATM   16  C9  UNL     1      -4.401  -0.127  15.289  1.00  0.00     0.051 C 
BRANCH  15  17
HETATM   17  O2  UNL     1      -3.404   1.644  16.463  1.00  0.00    -0.385 OA
ATOM     18  H2  UNL     1      -3.111   0.804  16.795  1.00  0.00     0.210 HD
ENDBRANCH  15  17
BRANCH  15  19
HETATM   19  C10 UNL     1      -5.710   1.492  16.573  1.00  0.00     0.204 C 
BRANCH  19  20
HETATM   20  O3  UNL     1      -6.521   0.388  16.651  1.00  0.00    -0.398 OA
ATOM     21  H3  UNL     1      -6.215  -0.270  17.264  1.00  0.00     0.209 HD
ENDBRANCH  19  20
ENDBRANCH  15  19
ENDBRANCH   7  15
BRANCH   9  22
HETATM   22  O5  UNL     1      -4.648   1.477  11.172  1.00  0.00    -0.362 OA
HETATM   23  C12 UNL     1      -5.654   0.913  10.418  1.00  0.00     0.205 C 
ENDBRANCH   9  22
BRANCH   1  24
HETATM   24  C2  UNL     1      -5.402   7.599  12.180  1.00  0.00     0.227 C 
BRANCH  24  25
HETATM   25  O1  UNL     1      -6.713   7.166  12.067  1.00  0.00    -0.391 OA
HETATM   26  C1  UNL     1      -7.493   8.064  11.327  1.00  0.00     0.201 C 
ENDBRANCH  24  25
ENDBRANCH   1  24
TORSDOF 7
ENDMDL
