MODEL 1
REMARK VINA RESULT: -7.207837598      0.000      0.000
REMARK  4 active torsions:
REMARK  status: ('A' for Active; 'I' for Inactive)
REMARK    1  A    between atoms: C4_5  and  O2_6 
REMARK    2  A    between atoms: O2_6  and  C5_7 
REMARK    3  A    between atoms: C8_11  and  O4_12 
REMARK    4  A    between atoms: C9_14  and  O5_15 
ROOT
HETATM    1  C5  UNL     1      -4.325   2.131  13.386  1.00  0.00     0.302 C 
HETATM    2  O3  UNL     1      -3.107   2.311  12.688  1.00  0.00    -0.330 OA
HETATM    3  C6  UNL     1      -3.129   3.116  11.561  1.00  0.00     0.137 C 
HETATM    4  C7  UNL     1      -4.108   2.881  10.678  1.00  0.00     0.031 C 
HETATM    5  C8  UNL     1      -5.049   1.786  11.015  1.00  0.00     0.176 C 
HETATM    6  C9  UNL     1      -5.497   1.959  12.452  1.00  0.00     0.206 C 
ENDROOT
BRANCH   1   7
HETATM    7  O2  UNL     1      -4.287   1.020  14.220  1.00  0.00    -0.305 OA
BRANCH   7   8
HETATM    8  C4  UNL     1      -4.687   1.300  15.527  1.00  0.00     0.415 C 
HETATM    9  O1  UNL     1      -5.427   0.213  15.956  1.00  0.00    -0.335 OA
HETATM   10  C3  UNL     1      -5.843   0.319  17.275  1.00  0.00     0.209 C 
HETATM   11  C2  UNL     1      -6.300   1.727  17.486  1.00  0.00    -0.042 C 
HETATM   12  C1  UNL     1      -6.471   2.260  18.669  1.00  0.00     0.019 C 
HETATM   13  C10 UNL     1      -6.554   2.495  16.217  1.00  0.00     0.209 C 
HETATM   14  O6  UNL     1      -5.393   2.484  15.495  1.00  0.00    -0.335 OA
ENDBRANCH   7   8
ENDBRANCH   1   7
BRANCH   6  15
HETATM   15  O5  UNL     1      -6.318   3.106  12.557  1.00  0.00    -0.388 OA
ATOM     16  H5  UNL     1      -7.095   2.963  12.029  1.00  0.00     0.210 HD
ENDBRANCH   6  15
BRANCH   5  17
HETATM   17  O4  UNL     1      -6.189   1.863  10.215  1.00  0.00    -0.389 OA
ATOM     18  H4  UNL     1      -6.439   0.997   9.912  1.00  0.00     0.210 HD
ENDBRANCH   5  17
TORSDOF 4
ENDMDL
MODEL 2
REMARK VINA RESULT: -7.137922125      1.340      2.301
REMARK  4 active torsions:
REMARK  status: ('A' for Active; 'I' for Inactive)
REMARK    1  A    between atoms: C4_5  and  O2_6 
REMARK    2  A    between atoms: O2_6  and  C5_7 
REMARK    3  A    between atoms: C8_11  and  O4_12 
REMARK    4  A    between atoms: C9_14  and  O5_15 
ROOT
HETATM    1  C5  UNL     1      -3.392   2.128  12.150  1.00  0.00     0.302 C 
HETATM    2  O3  UNL     1      -3.331   0.732  12.378  1.00  0.00    -0.330 OA
HETATM    3  C6  UNL     1      -3.618  -0.103  11.311  1.00  0.00     0.137 C 
HETATM    4  C7  UNL     1      -4.727   0.178  10.615  1.00  0.00     0.031 C 
HETATM    5  C8  UNL     1      -5.513   1.349  11.072  1.00  0.00     0.176 C 
HETATM    6  C9  UNL     1      -4.566   2.513  11.284  1.00  0.00     0.206 C 
ENDROOT
BRANCH   1   7
HETATM    7  O2  UNL     1      -3.493   2.844  13.337  1.00  0.00    -0.305 OA
BRANCH   7   8
HETATM    8  C4  UNL     1      -4.551   2.425  14.143  1.00  0.00     0.415 C 
HETATM    9  O1  UNL     1      -5.151   3.571  14.636  1.00  0.00    -0.335 OA
HETATM   10  C3  UNL     1      -6.272   3.312  15.410  1.00  0.00     0.209 C 
HETATM   11  C2  UNL     1      -5.950   2.142  16.284  1.00  0.00    -0.042 C 
HETATM   12  C1  UNL     1      -6.858   1.442  16.916  1.00  0.00     0.019 C 
HETATM   13  C10 UNL     1      -4.482   1.827  16.384  1.00  0.00     0.209 C 
HETATM   14  O6  UNL     1      -4.026   1.602  15.116  1.00  0.00    -0.335 OA
ENDBRANCH   7   8
ENDBRANCH   1   7
BRANCH   6  15
HETATM   15  O5  UNL     1      -4.068   2.952  10.035  1.00  0.00    -0.388 OA
ATOM     16  H5  UNL     1      -4.630   3.650   9.721  1.00  0.00     0.210 HD
ENDBRANCH   6  15
BRANCH   5  17
HETATM   17  O4  UNL     1      -6.426   1.734  10.091  1.00  0.00    -0.389 OA
ATOM     18  H4  UNL     1      -6.642   2.655  10.183  1.00  0.00     0.210 HD
ENDBRANCH   5  17
TORSDOF 4
ENDMDL
MODEL 3
REMARK VINA RESULT: -7.059076985      1.682      5.892
REMARK  4 active torsions:
REMARK  status: ('A' for Active; 'I' for Inactive)
REMARK    1  A    between atoms: C4_5  and  O2_6 
REMARK    2  A    between atoms: O2_6  and  C5_7 
REMARK    3  A    between atoms: C8_11  and  O4_12 
REMARK    4  A    between atoms: C9_14  and  O5_15 
ROOT
HETATM    1  C5  UNL     1      -4.789   1.727  14.589  1.00  0.00     0.302 C 
HETATM    2  O3  UNL     1      -5.964   2.507  14.719  1.00  0.00    -0.330 OA
HETATM    3  C6  UNL     1      -6.264   3.006  15.975  1.00  0.00     0.137 C 
HETATM    4  C7  UNL     1      -6.202   2.138  16.993  1.00  0.00     0.031 C 
HETATM    5  C8  UNL     1      -5.818   0.748  16.650  1.00  0.00     0.176 C 
HETATM    6  C9  UNL     1      -4.596   0.791  15.756  1.00  0.00     0.206 C 
ENDROOT
BRANCH   1   7
HETATM    7  O2  UNL     1      -4.800   0.959  13.431  1.00  0.00    -0.305 OA
BRANCH   7   8
HETATM    8  C4  UNL     1      -3.731   1.236  12.579  1.00  0.00     0.415 C 
HETATM    9  O1  UNL     1      -4.194   2.149  11.647  1.00  0.00    -0.335 OA
HETATM   10  C3  UNL     1      -3.214   2.573  10.763  1.00  0.00     0.209 C 
HETATM   11  C2  UNL     1      -2.416   1.370  10.371  1.00  0.00    -0.042 C 
HETATM   12  C1  UNL     1      -1.241   1.440   9.797  1.00  0.00     0.019 C 
HETATM   13  C10 UNL     1      -3.075   0.057  10.690  1.00  0.00     0.209 C 
HETATM   14  O6  UNL     1      -3.318   0.038  12.035  1.00  0.00    -0.335 OA
ENDBRANCH   7   8
ENDBRANCH   1   7
BRANCH   6  15
HETATM   15  O5  UNL     1      -3.479   1.237  16.501  1.00  0.00    -0.388 OA
ATOM     16  H5  UNL     1      -3.790   1.547  17.343  1.00  0.00     0.210 HD
ENDBRANCH   6  15
BRANCH   5  17
HETATM   17  O4  UNL     1      -5.463   0.044  17.801  1.00  0.00    -0.389 OA
ATOM     18  H4  UNL     1      -5.937  -0.778  17.846  1.00  0.00     0.210 HD
ENDBRANCH   5  17
TORSDOF 4
ENDMDL
MODEL 4
REMARK VINA RESULT: -6.984101730      1.514      5.736
REMARK  4 active torsions:
REMARK  status: ('A' for Active; 'I' for Inactive)
REMARK    1  A    between atoms: C4_5  and  O2_6 
REMARK    2  A    between atoms: O2_6  and  C5_7 
REMARK    3  A    between atoms: C8_11  and  O4_12 
REMARK    4  A    between atoms: C9_14  and  O5_15 
ROOT
HETATM    1  C5  UNL     1      -5.386   2.174  15.388  1.00  0.00     0.302 C 
HETATM    2  O3  UNL     1      -6.454   2.897  15.972  1.00  0.00    -0.330 OA
HETATM    3  C6  UNL     1      -6.584   2.845  17.350  1.00  0.00     0.137 C 
HETATM    4  C7  UNL     1      -6.523   1.629  17.909  1.00  0.00     0.031 C 
HETATM    5  C8  UNL     1      -6.322   0.488  16.984  1.00  0.00     0.176 C 
HETATM    6  C9  UNL     1      -5.188   0.827  16.038  1.00  0.00     0.206 C 
ENDROOT
BRANCH   1   7
HETATM    7  O2  UNL     1      -5.583   1.960  14.030  1.00  0.00    -0.305 OA
BRANCH   7   8
HETATM    8  C4  UNL     1      -4.418   1.594  13.356  1.00  0.00     0.415 C 
HETATM    9  O1  UNL     1      -4.099   2.646  12.515  1.00  0.00    -0.335 OA
HETATM   10  C3  UNL     1      -2.915   2.452  11.820  1.00  0.00     0.209 C 
HETATM   11  C2  UNL     1      -2.897   1.030  11.359  1.00  0.00    -0.042 C 
HETATM   12  C1  UNL     1      -1.815   0.421  10.942  1.00  0.00     0.019 C 
HETATM   13  C10 UNL     1      -4.234   0.343  11.410  1.00  0.00     0.209 C 
HETATM   14  O6  UNL     1      -4.678   0.409  12.701  1.00  0.00    -0.335 OA
ENDBRANCH   7   8
ENDBRANCH   1   7
BRANCH   6  15
HETATM   15  O5  UNL     1      -3.968   0.854  16.752  1.00  0.00    -0.388 OA
ATOM     16  H5  UNL     1      -4.051   0.281  17.504  1.00  0.00     0.210 HD
ENDBRANCH   6  15
BRANCH   5  17
HETATM   17  O4  UNL     1      -5.941  -0.651  17.694  1.00  0.00    -0.389 OA
ATOM     18  H4  UNL     1      -5.264  -1.123  17.223  1.00  0.00     0.210 HD
ENDBRANCH   5  17
TORSDOF 4
ENDMDL
MODEL 5
REMARK VINA RESULT: -6.886071130      1.582      2.155
REMARK  4 active torsions:
REMARK  status: ('A' for Active; 'I' for Inactive)
REMARK    1  A    between atoms: C4_5  and  O2_6 
REMARK    2  A    between atoms: O2_6  and  C5_7 
REMARK    3  A    between atoms: C8_11  and  O4_12 
REMARK    4  A    between atoms: C9_14  and  O5_15 
ROOT
HETATM    1  C5  UNL     1      -3.815   1.558  12.695  1.00  0.00     0.302 C 
HETATM    2  O3  UNL     1      -2.634   2.301  12.454  1.00  0.00    -0.330 OA
HETATM    3  C6  UNL     1      -2.342   2.630  11.140  1.00  0.00     0.137 C 
HETATM    4  C7  UNL     1      -2.423   1.637  10.245  1.00  0.00     0.031 C 
HETATM    5  C8  UNL     1      -2.816   0.307  10.770  1.00  0.00     0.176 C 
HETATM    6  C9  UNL     1      -4.029   0.479  11.662  1.00  0.00     0.206 C 
ENDROOT
BRANCH   1   7
HETATM    7  O2  UNL     1      -3.799   0.947  13.943  1.00  0.00    -0.305 OA
BRANCH   7   8
HETATM    8  C4  UNL     1      -4.980   1.135  14.661  1.00  0.00     0.415 C 
HETATM    9  O1  UNL     1      -4.919   2.408  15.199  1.00  0.00    -0.335 OA
HETATM   10  C3  UNL     1      -6.065   2.765  15.893  1.00  0.00     0.209 C 
HETATM   11  C2  UNL     1      -6.485   1.579  16.701  1.00  0.00    -0.042 C 
HETATM   12  C1  UNL     1      -7.674   1.454  17.234  1.00  0.00     0.019 C 
HETATM   13  C10 UNL     1      -5.422   0.526  16.857  1.00  0.00     0.209 C 
HETATM   14  O6  UNL     1      -5.053   0.130  15.602  1.00  0.00    -0.335 OA
ENDBRANCH   7   8
ENDBRANCH   1   7
BRANCH   6  15
HETATM   15  O5  UNL     1      -5.149   0.836  10.876  1.00  0.00    -0.388 OA
ATOM     16  H5  UNL     1      -5.930   0.509  11.306  1.00  0.00     0.210 HD
ENDBRANCH   6  15
BRANCH   5  17
HETATM   17  O4  UNL     1      -3.190  -0.537   9.724  1.00  0.00    -0.389 OA
ATOM     18  H4  UNL     1      -4.037  -0.929   9.903  1.00  0.00     0.210 HD
ENDBRANCH   5  17
TORSDOF 4
ENDMDL
