MODEL 1
REMARK VINA RESULT: -6.784431035      0.000      0.000
REMARK  3 active torsions:
REMARK  status: ('A' for Active; 'I' for Inactive)
REMARK    1  A    between atoms: S1_2  and  O3_4 
REMARK    2  A    between atoms: O3_4  and  C1_5 
REMARK    3  A    between atoms: C3_7  and  O4_8 
ROOT
HETATM    1  C1  UNL     1      -4.160   0.343  13.535  1.00  0.00     0.182 C 
HETATM    2  C2  UNL     1      -4.609   1.751  13.234  1.00  0.00     0.096 C 
HETATM    3  C3  UNL     1      -5.355   1.885  11.942  1.00  0.00     0.260 C 
HETATM    4  O5  UNL     1      -4.724   1.332  10.851  1.00  0.00    -0.351 OA
HETATM    5  C4  UNL     1      -3.660   0.548  11.178  1.00  0.00     0.186 C 
HETATM    6  C5  UNL     1      -3.256  -0.475  10.170  1.00  0.00     0.244 C 
HETATM    7  O6  UNL     1      -2.839  -1.532  10.931  1.00  0.00    -0.238 OA
HETATM    8  O7  UNL     1      -3.250  -1.426  12.144  1.00  0.00    -0.230 OA
HETATM    9  C6  UNL     1      -4.151  -0.421  12.268  1.00  0.00     0.222 C 
ENDROOT
BRANCH   1  10
HETATM   10  O3  UNL     1      -4.909  -0.290  14.491  1.00  0.00    -0.254 OA
BRANCH  10  11
HETATM   11  S1  UNL     1      -4.969   0.600  15.933  1.00  0.00     0.401 S 
HETATM   12  O1  UNL     1      -5.778  -0.091  17.007  1.00  0.00    -0.179 OA
HETATM   13  O2  UNL     1      -3.452   1.107  16.459  1.00  0.00    -0.179 OA
ENDBRANCH  10  11
ENDBRANCH   1  10
BRANCH   3  14
HETATM   14  O4  UNL     1      -5.510   3.248  11.684  1.00  0.00    -0.371 OA
ATOM     15  H4  UNL     1      -6.373   3.502  11.991  1.00  0.00     0.212 HD
ENDBRANCH   3  14
TORSDOF 3
ENDMDL
MODEL 2
REMARK VINA RESULT: -6.768463206      0.808      1.316
REMARK  3 active torsions:
REMARK  status: ('A' for Active; 'I' for Inactive)
REMARK    1  A    between atoms: S1_2  and  O3_4 
REMARK    2  A    between atoms: O3_4  and  C1_5 
REMARK    3  A    between atoms: C3_7  and  O4_8 
ROOT
HETATM    1  C1  UNL     1      -4.372   1.394  13.345  1.00  0.00     0.182 C 
HETATM    2  C2  UNL     1      -4.555   2.704  12.620  1.00  0.00     0.096 C 
HETATM    3  C3  UNL     1      -5.218   2.569  11.285  1.00  0.00     0.260 C 
HETATM    4  O5  UNL     1      -4.656   1.628  10.452  1.00  0.00    -0.351 OA
HETATM    5  C4  UNL     1      -3.760   0.815  11.078  1.00  0.00     0.186 C 
HETATM    6  C5  UNL     1      -3.507  -0.509  10.440  1.00  0.00     0.244 C 
HETATM    7  O6  UNL     1      -3.312  -1.347  11.502  1.00  0.00    -0.238 OA
HETATM    8  O7  UNL     1      -3.740  -0.827  12.595  1.00  0.00    -0.230 OA
HETATM    9  C6  UNL     1      -4.454   0.300  12.352  1.00  0.00     0.222 C 
ENDROOT
BRANCH   1  10
HETATM   10  O3  UNL     1      -5.255   1.197  14.374  1.00  0.00    -0.254 OA
BRANCH  10  11
HETATM   11  S1  UNL     1      -4.524   0.416  15.689  1.00  0.00     0.401 S 
HETATM   12  O1  UNL     1      -3.550   1.309  16.425  1.00  0.00    -0.179 OA
HETATM   13  O2  UNL     1      -5.632  -0.346  16.702  1.00  0.00    -0.179 OA
ENDBRANCH  10  11
ENDBRANCH   1  10
BRANCH   3  14
HETATM   14  O4  UNL     1      -5.121   3.803  10.638  1.00  0.00    -0.371 OA
ATOM     15  H4  UNL     1      -5.969   3.994  10.255  1.00  0.00     0.212 HD
ENDBRANCH   3  14
TORSDOF 3
ENDMDL
MODEL 3
REMARK VINA RESULT: -6.690370943      2.152      2.688
REMARK  3 active torsions:
REMARK  status: ('A' for Active; 'I' for Inactive)
REMARK    1  A    between atoms: S1_2  and  O3_4 
REMARK    2  A    between atoms: O3_4  and  C1_5 
REMARK    3  A    between atoms: C3_7  and  O4_8 
ROOT
HETATM    1  C1  UNL     1      -4.014   1.903  12.931  1.00  0.00     0.182 C 
HETATM    2  C2  UNL     1      -5.329   1.870  12.194  1.00  0.00     0.096 C 
HETATM    3  C3  UNL     1      -5.194   1.608  10.726  1.00  0.00     0.260 C 
HETATM    4  O5  UNL     1      -4.292   2.418  10.074  1.00  0.00    -0.351 OA
HETATM    5  C4  UNL     1      -3.504   3.142  10.918  1.00  0.00     0.186 C 
HETATM    6  C5  UNL     1      -2.204   3.619  10.364  1.00  0.00     0.244 C 
HETATM    7  O6  UNL     1      -1.354   3.551  11.433  1.00  0.00    -0.238 OA
HETATM    8  O7  UNL     1      -1.835   2.815  12.368  1.00  0.00    -0.230 OA
HETATM    9  C6  UNL     1      -2.937   2.147  11.946  1.00  0.00     0.222 C 
ENDROOT
BRANCH   1  10
HETATM   10  O3  UNL     1      -3.762   0.781  13.674  1.00  0.00    -0.254 OA
BRANCH  10  11
HETATM   11  S1  UNL     1      -4.464   0.876  15.214  1.00  0.00     0.401 S 
HETATM   12  O1  UNL     1      -5.047  -0.443  15.668  1.00  0.00    -0.179 OA
HETATM   13  O2  UNL     1      -3.454   1.591  16.356  1.00  0.00    -0.179 OA
ENDBRANCH  10  11
ENDBRANCH   1  10
BRANCH   3  14
HETATM   14  O4  UNL     1      -6.442   1.825  10.140  1.00  0.00    -0.371 OA
ATOM     15  H4  UNL     1      -6.653   2.746  10.247  1.00  0.00     0.212 HD
ENDBRANCH   3  14
TORSDOF 3
ENDMDL
MODEL 4
REMARK VINA RESULT: -6.562489568      1.159      1.233
REMARK  3 active torsions:
REMARK  status: ('A' for Active; 'I' for Inactive)
REMARK    1  A    between atoms: S1_2  and  O3_4 
REMARK    2  A    between atoms: O3_4  and  C1_5 
REMARK    3  A    between atoms: C3_7  and  O4_8 
ROOT
HETATM    1  C1  UNL     1      -4.195   1.509  13.364  1.00  0.00     0.182 C 
HETATM    2  C2  UNL     1      -3.893   2.825  12.691  1.00  0.00     0.096 C 
HETATM    3  C3  UNL     1      -4.353   2.896  11.268  1.00  0.00     0.260 C 
HETATM    4  O5  UNL     1      -3.952   1.842  10.477  1.00  0.00    -0.351 OA
HETATM    5  C4  UNL     1      -3.424   0.804  11.183  1.00  0.00     0.186 C 
HETATM    6  C5  UNL     1      -3.452  -0.531  10.519  1.00  0.00     0.244 C 
HETATM    7  O6  UNL     1      -3.663  -1.401  11.553  1.00  0.00    -0.238 OA
HETATM    8  O7  UNL     1      -4.094  -0.792  12.597  1.00  0.00    -0.230 OA
HETATM    9  C6  UNL     1      -4.421   0.493  12.313  1.00  0.00     0.222 C 
ENDROOT
BRANCH   1  10
HETATM   10  O3  UNL     1      -5.245   1.559  14.241  1.00  0.00    -0.254 OA
BRANCH  10  11
HETATM   11  S1  UNL     1      -4.838   0.899  15.748  1.00  0.00     0.401 S 
HETATM   12  O1  UNL     1      -4.947  -0.609  15.769  1.00  0.00    -0.179 OA
HETATM   13  O2  UNL     1      -3.373   1.473  16.346  1.00  0.00    -0.179 OA
ENDBRANCH  10  11
ENDBRANCH   1  10
BRANCH   3  14
HETATM   14  O4  UNL     1      -3.819   4.058  10.709  1.00  0.00    -0.371 OA
ATOM     15  H4  UNL     1      -4.291   4.797  11.077  1.00  0.00     0.212 HD
ENDBRANCH   3  14
TORSDOF 3
ENDMDL
MODEL 5
REMARK VINA RESULT: -6.500719463      1.111      3.027
REMARK  3 active torsions:
REMARK  status: ('A' for Active; 'I' for Inactive)
REMARK    1  A    between atoms: S1_2  and  O3_4 
REMARK    2  A    between atoms: O3_4  and  C1_5 
REMARK    3  A    between atoms: C3_7  and  O4_8 
ROOT
HETATM    1  C1  UNL     1      -4.518   0.377  13.004  1.00  0.00     0.182 C 
HETATM    2  C2  UNL     1      -4.209  -0.479  11.802  1.00  0.00     0.096 C 
HETATM    3  C3  UNL     1      -3.311   0.182  10.802  1.00  0.00     0.260 C 
HETATM    4  O5  UNL     1      -3.707   1.441  10.412  1.00  0.00    -0.351 OA
HETATM    5  C4  UNL     1      -4.702   1.961  11.185  1.00  0.00     0.186 C 
HETATM    6  C5  UNL     1      -4.829   3.446  11.189  1.00  0.00     0.244 C 
HETATM    7  O6  UNL     1      -5.215   3.734  12.469  1.00  0.00    -0.238 OA
HETATM    8  O7  UNL     1      -4.995   2.744  13.258  1.00  0.00    -0.230 OA
HETATM    9  C6  UNL     1      -4.252   1.789  12.647  1.00  0.00     0.222 C 
ENDROOT
BRANCH   1  10
HETATM   10  O3  UNL     1      -3.839   0.016  14.136  1.00  0.00    -0.254 OA
BRANCH  10  11
HETATM   11  S1  UNL     1      -4.619   0.562  15.539  1.00  0.00     0.401 S 
HETATM   12  O1  UNL     1      -5.414  -0.527  16.222  1.00  0.00    -0.179 OA
HETATM   13  O2  UNL     1      -3.593   1.397  16.581  1.00  0.00    -0.179 OA
ENDBRANCH  10  11
ENDBRANCH   1  10
BRANCH   3  14
HETATM   14  O4  UNL     1      -3.291  -0.618   9.658  1.00  0.00    -0.371 OA
ATOM     15  H4  UNL     1      -3.864  -0.216   9.016  1.00  0.00     0.212 HD
ENDBRANCH   3  14
TORSDOF 3
ENDMDL
