MODEL 1
REMARK VINA RESULT: -8.255928022      0.000      0.000
REMARK  4 active torsions:
REMARK  status: ('A' for Active; 'I' for Inactive)
REMARK    1  A    between atoms: C2_2  and  C3_4 
REMARK    2  A    between atoms: C3_4  and  C4_5 
REMARK       I    between atoms: N4_14  and  C9_15 
REMARK    3  A    between atoms: C9_15  and  O2_17 
REMARK    4  A    between atoms: O2_17  and  C10_18 
ROOT
HETATM    1  C4  UNL     1      -4.558   2.729  14.367  1.00  0.00     0.151 C 
HETATM    2  C5  UNL     1      -3.579   2.736  13.281  1.00  0.00     0.045 C 
HETATM    3  C6  UNL     1      -2.755   3.706  12.955  1.00  0.00     0.120 C 
HETATM    4  C7  UNL     1      -1.823   3.598  11.852  1.00  0.00     0.089 C 
HETATM    5  N1  UNL     1      -1.079   3.531  10.967  1.00  0.00    -0.192 NA
HETATM    6  N2  UNL     1      -3.695   1.474  12.647  1.00  0.00    -0.331 N 
ATOM      7  H2  UNL     1      -3.370   1.255  11.705  1.00  0.00     0.168 HD
HETATM    8  C8  UNL     1      -4.285   0.631  13.462  1.00  0.00     0.200 C 
HETATM    9  N3  UNL     1      -4.563  -0.722  13.154  1.00  0.00    -0.063 NA
HETATM   10  N4  UNL     1      -4.589   1.290  14.681  1.00  0.00    -0.256 N 
HETATM   11  C9  UNL     1      -4.864   0.691  15.933  1.00  0.00     0.370 C 
HETATM   12  O1  UNL     1      -4.849  -0.547  16.030  1.00  0.00    -0.238 OA
ENDROOT
BRANCH   1  13
HETATM   13  C3  UNL     1      -5.945   3.106  14.011  1.00  0.00     0.069 C 
BRANCH  13  14
HETATM   14  C2  UNL     1      -6.279   4.560  14.029  1.00  0.00     0.168 C 
HETATM   15  C1  UNL     1      -5.559   5.313  15.122  1.00  0.00     0.045 C 
HETATM   16  F1  UNL     1      -6.122   5.229  12.864  1.00  0.00    -0.250 F 
ENDBRANCH  13  14
ENDBRANCH   1  13
BRANCH  11  17
HETATM   17  O2  UNL     1      -5.152   1.412  17.077  1.00  0.00    -0.293 OA
BRANCH  17  18
HETATM   18  C10 UNL     1      -6.402   1.594  17.634  1.00  0.00     0.061 C 
HETATM   19  C11 UNL     1      -6.267   1.544  19.151  1.00  0.00     0.046 C 
HETATM   20  C12 UNL     1      -6.969   2.968  17.301  1.00  0.00     0.046 C 
HETATM   21  C13 UNL     1      -7.433   0.576  17.247  1.00  0.00     0.046 C 
ENDBRANCH  17  18
ENDBRANCH  11  17
TORSDOF 4
ENDMDL
MODEL 2
REMARK VINA RESULT: -6.697013153      3.804      6.090
REMARK  4 active torsions:
REMARK  status: ('A' for Active; 'I' for Inactive)
REMARK    1  A    between atoms: C2_2  and  C3_4 
REMARK    2  A    between atoms: C3_4  and  C4_5 
REMARK       I    between atoms: N4_14  and  C9_15 
REMARK    3  A    between atoms: C9_15  and  O2_17 
REMARK    4  A    between atoms: O2_17  and  C10_18 
ROOT
HETATM    1  C4  UNL     1      -4.449   4.643  13.128  1.00  0.00     0.151 C 
HETATM    2  C5  UNL     1      -3.986   3.529  13.953  1.00  0.00     0.045 C 
HETATM    3  C6  UNL     1      -4.558   3.042  15.031  1.00  0.00     0.120 C 
HETATM    4  C7  UNL     1      -4.003   1.928  15.771  1.00  0.00     0.089 C 
HETATM    5  N1  UNL     1      -3.566   1.044  16.380  1.00  0.00    -0.192 NA
HETATM    6  N2  UNL     1      -2.786   3.074  13.351  1.00  0.00    -0.331 N 
ATOM      7  H2  UNL     1      -2.071   2.511  13.813  1.00  0.00     0.168 HD
HETATM    8  C8  UNL     1      -2.739   3.488  12.107  1.00  0.00     0.200 C 
HETATM    9  N3  UNL     1      -1.680   3.216  11.210  1.00  0.00    -0.063 NA
HETATM   10  N4  UNL     1      -3.908   4.239  11.818  1.00  0.00    -0.256 N 
HETATM   11  C9  UNL     1      -4.440   4.537  10.542  1.00  0.00     0.370 C 
HETATM   12  O1  UNL     1      -3.859   4.117   9.528  1.00  0.00    -0.238 OA
ENDROOT
BRANCH   1  13
HETATM   13  C3  UNL     1      -3.870   5.973  13.424  1.00  0.00     0.069 C 
BRANCH  13  14
HETATM   14  C2  UNL     1      -3.476   6.241  14.838  1.00  0.00     0.168 C 
HETATM   15  C1  UNL     1      -2.587   7.455  14.978  1.00  0.00     0.045 C 
HETATM   16  F1  UNL     1      -4.482   6.333  15.737  1.00  0.00    -0.250 F 
ENDBRANCH  13  14
ENDBRANCH   1  13
BRANCH  11  17
HETATM   17  O2  UNL     1      -5.591   5.280  10.348  1.00  0.00    -0.293 OA
BRANCH  17  18
HETATM   18  C10 UNL     1      -5.656   6.640  10.121  1.00  0.00     0.061 C 
HETATM   19  C11 UNL     1      -6.353   6.873   8.787  1.00  0.00     0.046 C 
HETATM   20  C12 UNL     1      -6.503   7.344  11.174  1.00  0.00     0.046 C 
HETATM   21  C13 UNL     1      -4.335   7.346  10.061  1.00  0.00     0.046 C 
ENDBRANCH  17  18
ENDBRANCH  11  17
TORSDOF 4
ENDMDL
MODEL 3
REMARK VINA RESULT: -6.535490287      3.439      5.754
REMARK  4 active torsions:
REMARK  status: ('A' for Active; 'I' for Inactive)
REMARK    1  A    between atoms: C2_2  and  C3_4 
REMARK    2  A    between atoms: C3_4  and  C4_5 
REMARK       I    between atoms: N4_14  and  C9_15 
REMARK    3  A    between atoms: C9_15  and  O2_17 
REMARK    4  A    between atoms: O2_17  and  C10_18 
ROOT
HETATM    1  C4  UNL     1      -4.767   3.866  13.508  1.00  0.00     0.151 C 
HETATM    2  C5  UNL     1      -4.475   2.488  13.902  1.00  0.00     0.045 C 
HETATM    3  C6  UNL     1      -5.182   1.719  14.698  1.00  0.00     0.120 C 
HETATM    4  C7  UNL     1      -4.791   0.361  15.017  1.00  0.00     0.089 C 
HETATM    5  N1  UNL     1      -4.488  -0.723  15.291  1.00  0.00    -0.192 NA
HETATM    6  N2  UNL     1      -3.267   2.145  13.244  1.00  0.00    -0.331 N 
ATOM      7  H2  UNL     1      -2.647   1.380  13.512  1.00  0.00     0.168 HD
HETATM    8  C8  UNL     1      -3.072   2.964  12.237  1.00  0.00     0.200 C 
HETATM    9  N3  UNL     1      -1.962   2.910  11.362  1.00  0.00    -0.063 NA
HETATM   10  N4  UNL     1      -4.143   3.892  12.173  1.00  0.00    -0.256 N 
HETATM   11  C9  UNL     1      -4.530   4.678  11.062  1.00  0.00     0.370 C 
HETATM   12  O1  UNL     1      -3.895   4.581   9.999  1.00  0.00    -0.238 OA
ENDROOT
BRANCH   1  13
HETATM   13  C3  UNL     1      -4.108   4.933  14.295  1.00  0.00     0.069 C 
BRANCH  13  14
HETATM   14  C2  UNL     1      -4.996   5.886  15.023  1.00  0.00     0.168 C 
HETATM   15  C1  UNL     1      -6.263   5.237  15.527  1.00  0.00     0.045 C 
HETATM   16  F1  UNL     1      -4.430   6.582  16.035  1.00  0.00    -0.250 F 
ENDBRANCH  13  14
ENDBRANCH   1  13
BRANCH  11  17
HETATM   17  O2  UNL     1      -5.592   5.563  11.085  1.00  0.00    -0.293 OA
BRANCH  17  18
HETATM   18  C10 UNL     1      -5.507   6.941  11.073  1.00  0.00     0.061 C 
HETATM   19  C11 UNL     1      -5.509   7.411   9.624  1.00  0.00     0.046 C 
HETATM   20  C12 UNL     1      -6.720   7.584  11.732  1.00  0.00     0.046 C 
HETATM   21  C13 UNL     1      -4.284   7.516  11.724  1.00  0.00     0.046 C 
ENDBRANCH  17  18
ENDBRANCH  11  17
TORSDOF 4
ENDMDL
MODEL 4
REMARK VINA RESULT: -6.528824926      3.823      6.277
REMARK  4 active torsions:
REMARK  status: ('A' for Active; 'I' for Inactive)
REMARK    1  A    between atoms: C2_2  and  C3_4 
REMARK    2  A    between atoms: C3_4  and  C4_5 
REMARK       I    between atoms: N4_14  and  C9_15 
REMARK    3  A    between atoms: C9_15  and  O2_17 
REMARK    4  A    between atoms: O2_17  and  C10_18 
ROOT
HETATM    1  C4  UNL     1      -4.788   4.006  12.561  1.00  0.00     0.151 C 
HETATM    2  C5  UNL     1      -4.250   3.121  13.593  1.00  0.00     0.045 C 
HETATM    3  C6  UNL     1      -4.926   2.410  14.467  1.00  0.00     0.120 C 
HETATM    4  C7  UNL     1      -4.280   1.564  15.448  1.00  0.00     0.089 C 
HETATM    5  N1  UNL     1      -3.779   0.890  16.246  1.00  0.00    -0.192 NA
HETATM    6  N2  UNL     1      -2.840   3.182  13.459  1.00  0.00    -0.331 N 
ATOM      7  H2  UNL     1      -2.167   2.916  14.179  1.00  0.00     0.168 HD
HETATM    8  C8  UNL     1      -2.535   3.632  12.265  1.00  0.00     0.200 C 
HETATM    9  N3  UNL     1      -1.216   3.820  11.790  1.00  0.00    -0.063 NA
HETATM   10  N4  UNL     1      -3.729   3.891  11.542  1.00  0.00    -0.256 N 
HETATM   11  C9  UNL     1      -3.871   4.013  10.140  1.00  0.00     0.370 C 
HETATM   12  O1  UNL     1      -2.871   3.887   9.415  1.00  0.00    -0.238 OA
ENDROOT
BRANCH   1  13
HETATM   13  C3  UNL     1      -4.880   5.443  12.903  1.00  0.00     0.069 C 
BRANCH  13  14
HETATM   14  C2  UNL     1      -6.235   5.979  13.221  1.00  0.00     0.168 C 
HETATM   15  C1  UNL     1      -6.819   6.800  12.095  1.00  0.00     0.045 C 
HETATM   16  F1  UNL     1      -7.159   5.079  13.628  1.00  0.00    -0.250 F 
ENDBRANCH  13  14
ENDBRANCH   1  13
BRANCH  11  17
HETATM   17  O2  UNL     1      -5.078   4.268   9.514  1.00  0.00    -0.293 OA
BRANCH  17  18
HETATM   18  C10 UNL     1      -5.347   5.315   8.655  1.00  0.00     0.061 C 
HETATM   19  C11 UNL     1      -4.518   6.518   9.086  1.00  0.00     0.046 C 
HETATM   20  C12 UNL     1      -4.923   4.992   7.228  1.00  0.00     0.046 C 
HETATM   21  C13 UNL     1      -6.780   5.757   8.609  1.00  0.00     0.046 C 
ENDBRANCH  17  18
ENDBRANCH  11  17
TORSDOF 4
ENDMDL
MODEL 5
REMARK VINA RESULT: -6.497212045      2.960      5.506
REMARK  4 active torsions:
REMARK  status: ('A' for Active; 'I' for Inactive)
REMARK    1  A    between atoms: C2_2  and  C3_4 
REMARK    2  A    between atoms: C3_4  and  C4_5 
REMARK       I    between atoms: N4_14  and  C9_15 
REMARK    3  A    between atoms: C9_15  and  O2_17 
REMARK    4  A    between atoms: O2_17  and  C10_18 
ROOT
HETATM    1  C4  UNL     1      -4.655   3.015  14.543  1.00  0.00     0.151 C 
HETATM    2  C5  UNL     1      -4.983   1.800  15.287  1.00  0.00     0.045 C 
HETATM    3  C6  UNL     1      -5.698   1.704  16.386  1.00  0.00     0.120 C 
HETATM    4  C7  UNL     1      -5.958   0.438  17.037  1.00  0.00     0.089 C 
HETATM    5  N1  UNL     1      -6.167  -0.566  17.577  1.00  0.00    -0.192 NA
HETATM    6  N2  UNL     1      -4.373   0.735  14.579  1.00  0.00    -0.331 N 
ATOM      7  H2  UNL     1      -4.167  -0.188  14.963  1.00  0.00     0.168 HD
HETATM    8  C8  UNL     1      -4.113   1.121  13.352  1.00  0.00     0.200 C 
HETATM    9  N3  UNL     1      -3.504   0.310  12.366  1.00  0.00    -0.063 NA
HETATM   10  N4  UNL     1      -4.542   2.463  13.182  1.00  0.00    -0.256 N 
HETATM   11  C9  UNL     1      -4.804   3.131  11.962  1.00  0.00     0.370 C 
HETATM   12  O1  UNL     1      -4.659   2.518  10.891  1.00  0.00    -0.238 OA
ENDROOT
BRANCH   1  13
HETATM   13  C3  UNL     1      -3.350   3.645  14.846  1.00  0.00     0.069 C 
BRANCH  13  14
HETATM   14  C2  UNL     1      -3.242   5.118  14.634  1.00  0.00     0.168 C 
HETATM   15  C1  UNL     1      -4.383   5.885  15.259  1.00  0.00     0.045 C 
HETATM   16  F1  UNL     1      -2.076   5.695  15.002  1.00  0.00    -0.250 F 
ENDBRANCH  13  14
ENDBRANCH   1  13
BRANCH  11  17
HETATM   17  O2  UNL     1      -5.220   4.447  11.886  1.00  0.00    -0.293 OA
BRANCH  17  18
HETATM   18  C10 UNL     1      -4.626   5.450  11.145  1.00  0.00     0.061 C 
HETATM   19  C11 UNL     1      -4.989   6.791  11.770  1.00  0.00     0.046 C 
HETATM   20  C12 UNL     1      -3.106   5.355  11.189  1.00  0.00     0.046 C 
HETATM   21  C13 UNL     1      -5.031   5.509   9.702  1.00  0.00     0.046 C 
ENDBRANCH  17  18
ENDBRANCH  11  17
TORSDOF 4
ENDMDL
