MODEL 1
REMARK VINA RESULT: -6.998311192      0.000      0.000
REMARK  4 active torsions:
REMARK  status: ('A' for Active; 'I' for Inactive)
REMARK       I    between atoms: N1_2  and  C2_4 
REMARK       I    between atoms: C2_4  and  N3_8 
REMARK    1  A    between atoms: N3_8  and  N4_10 
REMARK    2  A    between atoms: C3_12  and  C4_13 
REMARK       I    between atoms: C4_13  and  N5_15 
REMARK    3  A    between atoms: N5_15  and  C5_17 
REMARK    4  A    between atoms: C5_17  and  C6_18 
ROOT
HETATM    1  C4  UNL     1      27.991  64.335  10.977  1.00  0.00     0.258 C 
HETATM    2  O1  UNL     1      27.914  63.142  10.576  1.00  0.00    -0.267 OA
HETATM    3  N5  UNL     1      27.192  64.808  12.052  1.00  0.00    -0.353 N 
ATOM      4  H5  UNL     1      27.276  65.779  12.354  1.00  0.00     0.162 HD
ENDROOT
BRANCH   1   5
HETATM    5  C3  UNL     1      28.943  65.226  10.287  1.00  0.00     0.181 C 
HETATM    6  N4  UNL     1      29.947  65.725  10.875  1.00  0.00    -0.292 N 
ATOM      7  H4  UNL     1      30.121  65.515  11.858  1.00  0.00     0.186 HD
BRANCH   6   8
HETATM    8  N3  UNL     1      30.813  66.561  10.176  1.00  0.00    -0.133 N 
HETATM    9  C2  UNL     1      31.865  66.048   9.347  1.00  0.00     0.685 C 
HETATM   10  N1  UNL     1      32.105  66.618   8.073  1.00  0.00    -0.230 N 
HETATM   11  N2  UNL     1      32.608  65.064   9.739  1.00  0.00    -0.234 N 
HETATM   12  C1  UNL     1      31.102  66.491   7.044  1.00  0.00     0.165 C 
ATOM     13  H1  UNL     1      32.976  67.114   7.885  1.00  0.00     0.177 HD
ATOM     14  H22 UNL     1      33.355  64.699   9.150  1.00  0.00     0.174 HD
ATOM     15  H21 UNL     1      32.435  64.653  10.657  1.00  0.00     0.174 HD
ATOM     16  H3  UNL     1      30.696  67.570  10.257  1.00  0.00     0.205 HD
ENDBRANCH   6   8
ENDBRANCH   1   5
BRANCH   3  17
HETATM   17  C5  UNL     1      26.276  63.941  12.713  1.00  0.00     0.186 C 
BRANCH  17  18
HETATM   18  C6  UNL     1      25.001  64.561  13.157  1.00  0.00     0.404 C 
HETATM   19  N6  UNL     1      24.109  63.492  13.597  1.00  0.00    -0.034 N 
HETATM   20  C7  UNL     1      23.000  64.265  14.122  1.00  0.00     0.145 C 
ATOM     21  H62 UNL     1      23.867  62.801  12.888  1.00  0.00     0.280 HD
ATOM     22  H61 UNL     1      24.518  62.815  14.242  1.00  0.00     0.280 HD
HETATM   23  C8  UNL     1      22.163  64.873  13.027  1.00  0.00     0.048 C 
HETATM   24  C9  UNL     1      22.138  63.453  15.053  1.00  0.00     0.048 C 
HETATM   25  C10 UNL     1      23.726  65.379  14.831  1.00  0.00     0.277 C 
HETATM   26  N7  UNL     1      25.082  65.400  14.300  1.00  0.00    -0.042 N 
HETATM   27  C11 UNL     1      25.357  66.799  13.999  1.00  0.00     0.274 C 
HETATM   28  C12 UNL     1      25.951  64.909  15.342  1.00  0.00     0.274 C 
ENDBRANCH  17  18
ENDBRANCH   3  17
TORSDOF 4
ENDMDL
MODEL 2
REMARK VINA RESULT: -6.570557660      0.765      2.214
REMARK  4 active torsions:
REMARK  status: ('A' for Active; 'I' for Inactive)
REMARK       I    between atoms: N1_2  and  C2_4 
REMARK       I    between atoms: C2_4  and  N3_8 
REMARK    1  A    between atoms: N3_8  and  N4_10 
REMARK    2  A    between atoms: C3_12  and  C4_13 
REMARK       I    between atoms: C4_13  and  N5_15 
REMARK    3  A    between atoms: N5_15  and  C5_17 
REMARK    4  A    between atoms: C5_17  and  C6_18 
ROOT
HETATM    1  C4  UNL     1      27.723  64.404  10.799  1.00  0.00     0.258 C 
HETATM    2  O1  UNL     1      27.862  63.177  10.548  1.00  0.00    -0.267 OA
HETATM    3  N5  UNL     1      26.667  64.876  11.624  1.00  0.00    -0.353 N 
ATOM      4  H5  UNL     1      26.579  65.875  11.809  1.00  0.00     0.162 HD
ENDROOT
BRANCH   1   5
HETATM    5  C3  UNL     1      28.696  65.338  10.202  1.00  0.00     0.181 C 
HETATM    6  N4  UNL     1      29.815  65.582  10.744  1.00  0.00    -0.292 N 
ATOM      7  H4  UNL     1      30.068  65.128  11.622  1.00  0.00     0.186 HD
BRANCH   6   8
HETATM    8  N3  UNL     1      30.697  66.472  10.138  1.00  0.00    -0.133 N 
HETATM    9  C2  UNL     1      31.818  66.027   9.364  1.00  0.00     0.685 C 
HETATM   10  N1  UNL     1      32.124  66.655   8.132  1.00  0.00    -0.230 N 
HETATM   11  N2  UNL     1      32.567  65.052   9.769  1.00  0.00    -0.234 N 
HETATM   12  C1  UNL     1      31.198  66.538   7.033  1.00  0.00     0.165 C 
ATOM     13  H1  UNL     1      32.989  67.185   8.024  1.00  0.00     0.177 HD
ATOM     14  H22 UNL     1      33.364  64.735   9.219  1.00  0.00     0.174 HD
ATOM     15  H21 UNL     1      32.347  64.599  10.656  1.00  0.00     0.174 HD
ATOM     16  H3  UNL     1      30.540  67.474  10.249  1.00  0.00     0.205 HD
ENDBRANCH   6   8
ENDBRANCH   1   5
BRANCH   3  17
HETATM   17  C5  UNL     1      25.731  63.968  12.196  1.00  0.00     0.186 C 
BRANCH  17  18
HETATM   18  C6  UNL     1      25.157  64.368  13.507  1.00  0.00     0.404 C 
HETATM   19  N6  UNL     1      25.707  65.674  13.860  1.00  0.00    -0.034 N 
HETATM   20  C7  UNL     1      24.948  65.971  15.059  1.00  0.00     0.145 C 
ATOM     21  H62 UNL     1      26.721  65.712  13.960  1.00  0.00     0.280 HD
ATOM     22  H61 UNL     1      25.665  66.381  13.127  1.00  0.00     0.280 HD
HETATM   23  C8  UNL     1      25.414  65.160  16.241  1.00  0.00     0.048 C 
HETATM   24  C9  UNL     1      24.968  67.440  15.389  1.00  0.00     0.048 C 
HETATM   25  C10 UNL     1      23.577  65.485  14.669  1.00  0.00     0.277 C 
HETATM   26  N7  UNL     1      23.756  64.595  13.530  1.00  0.00    -0.042 N 
HETATM   27  C11 UNL     1      22.961  63.412  13.836  1.00  0.00     0.274 C 
HETATM   28  C12 UNL     1      23.242  65.283  12.371  1.00  0.00     0.274 C 
ENDBRANCH  17  18
ENDBRANCH   3  17
TORSDOF 4
ENDMDL
MODEL 3
REMARK VINA RESULT: -6.562435169      1.480      1.553
REMARK  4 active torsions:
REMARK  status: ('A' for Active; 'I' for Inactive)
REMARK       I    between atoms: N1_2  and  C2_4 
REMARK       I    between atoms: C2_4  and  N3_8 
REMARK    1  A    between atoms: N3_8  and  N4_10 
REMARK    2  A    between atoms: C3_12  and  C4_13 
REMARK       I    between atoms: C4_13  and  N5_15 
REMARK    3  A    between atoms: N5_15  and  C5_17 
REMARK    4  A    between atoms: C5_17  and  C6_18 
ROOT
HETATM    1  C4  UNL     1      27.973  65.103  12.390  1.00  0.00     0.258 C 
HETATM    2  O1  UNL     1      28.526  64.069  12.854  1.00  0.00    -0.267 OA
HETATM    3  N5  UNL     1      26.618  65.411  12.681  1.00  0.00    -0.353 N 
ATOM      4  H5  UNL     1      26.196  66.254  12.291  1.00  0.00     0.162 HD
ENDROOT
BRANCH   1   5
HETATM    5  C3  UNL     1      28.785  65.983  11.529  1.00  0.00     0.181 C 
HETATM    6  N4  UNL     1      29.861  65.591  10.987  1.00  0.00    -0.292 N 
ATOM      7  H4  UNL     1      30.192  64.638  11.139  1.00  0.00     0.186 HD
BRANCH   6   8
HETATM    8  N3  UNL     1      30.589  66.463  10.184  1.00  0.00    -0.133 N 
HETATM    9  C2  UNL     1      31.653  66.012   9.336  1.00  0.00     0.685 C 
HETATM   10  N1  UNL     1      31.764  66.506   8.014  1.00  0.00    -0.230 N 
HETATM   11  N2  UNL     1      32.524  65.151   9.756  1.00  0.00    -0.234 N 
HETATM   12  C1  UNL     1      30.737  66.187   7.054  1.00  0.00     0.165 C 
ATOM     13  H1  UNL     1      32.562  67.082   7.744  1.00  0.00     0.177 HD
ATOM     14  H22 UNL     1      33.281  64.830   9.153  1.00  0.00     0.174 HD
ATOM     15  H21 UNL     1      32.444  64.795  10.708  1.00  0.00     0.174 HD
ATOM     16  H3  UNL     1      30.357  67.456  10.199  1.00  0.00     0.205 HD
ENDBRANCH   6   8
ENDBRANCH   1   5
BRANCH   3  17
HETATM   17  C5  UNL     1      25.841  64.555  13.514  1.00  0.00     0.186 C 
BRANCH  17  18
HETATM   18  C6  UNL     1      24.990  65.232  14.526  1.00  0.00     0.404 C 
HETATM   19  N6  UNL     1      24.083  64.236  15.091  1.00  0.00    -0.034 N 
HETATM   20  C7  UNL     1      23.447  65.014  16.137  1.00  0.00     0.145 C 
ATOM     21  H62 UNL     1      23.450  63.790  14.427  1.00  0.00     0.280 HD
ATOM     22  H61 UNL     1      24.519  63.365  15.394  1.00  0.00     0.280 HD
HETATM   23  C8  UNL     1      22.447  65.997  15.584  1.00  0.00     0.048 C 
HETATM   24  C9  UNL     1      22.801  64.137  17.176  1.00  0.00     0.048 C 
HETATM   25  C10 UNL     1      24.617  65.790  16.681  1.00  0.00     0.277 C 
HETATM   26  N7  UNL     1      25.663  65.735  15.669  1.00  0.00    -0.042 N 
HETATM   27  C11 UNL     1      26.138  67.106  15.531  1.00  0.00     0.274 C 
HETATM   28  C12 UNL     1      26.700  64.872  16.181  1.00  0.00     0.274 C 
ENDBRANCH  17  18
ENDBRANCH   3  17
TORSDOF 4
ENDMDL
MODEL 4
REMARK VINA RESULT: -6.523230807      3.738      5.397
REMARK  4 active torsions:
REMARK  status: ('A' for Active; 'I' for Inactive)
REMARK       I    between atoms: N1_2  and  C2_4 
REMARK       I    between atoms: C2_4  and  N3_8 
REMARK    1  A    between atoms: N3_8  and  N4_10 
REMARK    2  A    between atoms: C3_12  and  C4_13 
REMARK       I    between atoms: C4_13  and  N5_15 
REMARK    3  A    between atoms: N5_15  and  C5_17 
REMARK    4  A    between atoms: C5_17  and  C6_18 
ROOT
HETATM    1  C4  UNL     1      28.560  65.290  12.109  1.00  0.00     0.258 C 
HETATM    2  O1  UNL     1      27.321  65.196  12.318  1.00  0.00    -0.267 OA
HETATM    3  N5  UNL     1      29.463  65.626  13.152  1.00  0.00    -0.353 N 
ATOM      4  H5  UNL     1      30.461  65.697  12.953  1.00  0.00     0.162 HD
ENDROOT
BRANCH   1   5
HETATM    5  C3  UNL     1      29.042  65.040  10.737  1.00  0.00     0.181 C 
HETATM    6  N4  UNL     1      30.189  65.411  10.348  1.00  0.00    -0.292 N 
ATOM      7  H4  UNL     1      30.814  65.899  10.990  1.00  0.00     0.186 HD
BRANCH   6   8
HETATM    8  N3  UNL     1      30.594  65.150   9.042  1.00  0.00    -0.133 N 
HETATM    9  C2  UNL     1      30.492  66.131   8.002  1.00  0.00     0.685 C 
HETATM   10  N1  UNL     1      31.562  66.312   7.091  1.00  0.00    -0.230 N 
HETATM   11  N2  UNL     1      29.434  66.865   7.874  1.00  0.00    -0.234 N 
HETATM   12  C1  UNL     1      32.822  66.818   7.576  1.00  0.00     0.165 C 
ATOM     13  H1  UNL     1      31.442  66.086   6.103  1.00  0.00     0.177 HD
ATOM     14  H22 UNL     1      29.362  67.563   7.134  1.00  0.00     0.174 HD
ATOM     15  H21 UNL     1      28.664  66.735   8.530  1.00  0.00     0.174 HD
ATOM     16  H3  UNL     1      30.975  64.231   8.819  1.00  0.00     0.205 HD
ENDBRANCH   6   8
ENDBRANCH   1   5
BRANCH   3  17
HETATM   17  C5  UNL     1      28.989  65.866  14.474  1.00  0.00     0.186 C 
BRANCH  17  18
HETATM   18  C6  UNL     1      29.601  67.020  15.183  1.00  0.00     0.404 C 
HETATM   19  N6  UNL     1      30.438  67.743  14.229  1.00  0.00    -0.034 N 
HETATM   20  C7  UNL     1      30.827  68.889  15.027  1.00  0.00     0.145 C 
ATOM     21  H62 UNL     1      31.206  67.208  13.824  1.00  0.00     0.280 HD
ATOM     22  H61 UNL     1      30.000  67.958  13.334  1.00  0.00     0.280 HD
HETATM   23  C8  UNL     1      31.859  68.533  16.067  1.00  0.00     0.048 C 
HETATM   24  C9  UNL     1      31.314  70.030  14.173  1.00  0.00     0.048 C 
HETATM   25  C10 UNL     1      29.537  69.208  15.736  1.00  0.00     0.277 C 
HETATM   26  N7  UNL     1      28.701  68.019  15.639  1.00  0.00    -0.042 N 
HETATM   27  C11 UNL     1      28.189  67.796  16.985  1.00  0.00     0.274 C 
HETATM   28  C12 UNL     1      27.634  68.328  14.719  1.00  0.00     0.274 C 
ENDBRANCH  17  18
ENDBRANCH   3  17
TORSDOF 4
ENDMDL
MODEL 5
REMARK VINA RESULT: -6.518139570      1.303      1.507
REMARK  4 active torsions:
REMARK  status: ('A' for Active; 'I' for Inactive)
REMARK       I    between atoms: N1_2  and  C2_4 
REMARK       I    between atoms: C2_4  and  N3_8 
REMARK    1  A    between atoms: N3_8  and  N4_10 
REMARK    2  A    between atoms: C3_12  and  C4_13 
REMARK       I    between atoms: C4_13  and  N5_15 
REMARK    3  A    between atoms: N5_15  and  C5_17 
REMARK    4  A    between atoms: C5_17  and  C6_18 
ROOT
HETATM    1  C4  UNL     1      28.397  64.774  11.916  1.00  0.00     0.258 C 
HETATM    2  O1  UNL     1      29.084  65.356  12.798  1.00  0.00    -0.267 OA
HETATM    3  N5  UNL     1      27.128  64.213  12.218  1.00  0.00    -0.353 N 
ATOM      4  H5  UNL     1      26.594  63.747  11.483  1.00  0.00     0.162 HD
ENDROOT
BRANCH   1   5
HETATM    5  C3  UNL     1      28.960  64.693  10.555  1.00  0.00     0.181 C 
HETATM    6  N4  UNL     1      30.112  65.139  10.274  1.00  0.00    -0.292 N 
ATOM      7  H4  UNL     1      30.684  65.572  11.000  1.00  0.00     0.186 HD
BRANCH   6   8
HETATM    8  N3  UNL     1      30.594  65.038   8.973  1.00  0.00    -0.133 N 
HETATM    9  C2  UNL     1      30.555  66.140   8.057  1.00  0.00     0.685 C 
HETATM   10  N1  UNL     1      31.676  66.425   7.241  1.00  0.00    -0.230 N 
HETATM   11  N2  UNL     1      29.505  66.891   7.957  1.00  0.00    -0.234 N 
HETATM   12  C1  UNL     1      32.904  66.861   7.859  1.00  0.00     0.165 C 
ATOM     13  H1  UNL     1      31.616  66.323   6.228  1.00  0.00     0.177 HD
ATOM     14  H22 UNL     1      29.476  67.675   7.306  1.00  0.00     0.174 HD
ATOM     15  H21 UNL     1      28.697  66.687   8.545  1.00  0.00     0.174 HD
ATOM     16  H3  UNL     1      30.989  64.152   8.661  1.00  0.00     0.205 HD
ENDBRANCH   6   8
ENDBRANCH   1   5
BRANCH   3  17
HETATM   17  C5  UNL     1      26.591  64.295  13.535  1.00  0.00     0.186 C 
BRANCH  17  18
HETATM   18  C6  UNL     1      25.213  64.840  13.641  1.00  0.00     0.404 C 
HETATM   19  N6  UNL     1      24.299  63.718  13.842  1.00  0.00    -0.034 N 
HETATM   20  C7  UNL     1      23.053  64.423  14.068  1.00  0.00     0.145 C 
ATOM     21  H62 UNL     1      24.284  63.024  13.094  1.00  0.00     0.280 HD
ATOM     22  H61 UNL     1      24.569  63.056  14.569  1.00  0.00     0.280 HD
HETATM   23  C8  UNL     1      22.487  64.999  12.796  1.00  0.00     0.048 C 
HETATM   24  C9  UNL     1      22.030  63.553  14.750  1.00  0.00     0.048 C 
HETATM   25  C10 UNL     1      23.512  65.565  14.937  1.00  0.00     0.277 C 
HETATM   26  N7  UNL     1      24.955  65.666  14.766  1.00  0.00    -0.042 N 
HETATM   27  C11 UNL     1      25.219  67.082  14.544  1.00  0.00     0.274 C 
HETATM   28  C12 UNL     1      25.558  65.209  15.995  1.00  0.00     0.274 C 
ENDBRANCH  17  18
ENDBRANCH   3  17
TORSDOF 4
ENDMDL
