MODEL 1
REMARK VINA RESULT: -7.549068799      0.000      0.000
REMARK  6 active torsions:
REMARK  status: ('A' for Active; 'I' for Inactive)
REMARK    1  A    between atoms: N1_4  and  C4_6 
REMARK    2  A    between atoms: C4_6  and  C5_10 
REMARK    3  A    between atoms: C5_10  and  N3_11 
REMARK    4  A    between atoms: C5_10  and  C7_16 
REMARK       I    between atoms: N3_11  and  C6_13 
REMARK       I    between atoms: C7_16  and  N5_18 
REMARK    5  A    between atoms: N5_18  and  C8_20 
REMARK    6  A    between atoms: C8_20  and  C9_21 
ROOT
HETATM    1  C1  UNL     1      28.935  66.002  14.747  1.00  0.00     0.018 C 
HETATM    2  C2  UNL     1      27.895  65.397  14.553  1.00  0.00    -0.072 C 
HETATM    3  C3  UNL     1      26.662  64.713  14.327  1.00  0.00     0.153 C 
HETATM    4  N1  UNL     1      26.445  63.739  13.551  1.00  0.00    -0.347 N 
ATOM      5  H1  UNL     1      25.501  63.354  13.501  1.00  0.00     0.167 HD
ENDROOT
BRANCH   4   6
HETATM    6  C4  UNL     1      27.457  63.162  12.751  1.00  0.00     0.107 C 
HETATM    7  N2  UNL     1      28.366  62.457  13.328  1.00  0.00    -0.387 N 
ATOM      8  H22 UNL     1      28.317  62.333  14.339  1.00  0.00     0.157 HD
ATOM      9  H21 UNL     1      29.096  62.040  12.751  1.00  0.00     0.157 HD
BRANCH   6  10
HETATM   10  C5  UNL     1      27.526  63.340  11.296  1.00  0.00     0.245 C 
BRANCH  10  11
HETATM   11  N3  UNL     1      26.224  63.263  10.719  1.00  0.00    -0.325 N 
HETATM   12  C6  UNL     1      25.839  62.235   9.826  1.00  0.00     0.329 C 
HETATM   13  N4  UNL     1      24.535  62.217   9.287  1.00  0.00    -0.040 NA
HETATM   14  O1  UNL     1      26.647  61.347   9.516  1.00  0.00    -0.251 OA
ATOM     15  H3  UNL     1      25.542  63.981  10.961  1.00  0.00     0.165 HD
ENDBRANCH  10  11
BRANCH  10  16
HETATM   16  C7  UNL     1      28.131  64.659  10.942  1.00  0.00     0.248 C 
HETATM   17  O2  UNL     1      27.481  65.695  11.146  1.00  0.00    -0.271 OA
HETATM   18  N5  UNL     1      29.434  64.743  10.384  1.00  0.00    -0.356 N 
ATOM     19  H5  UNL     1      29.966  63.888  10.224  1.00  0.00     0.162 HD
BRANCH  18  20
HETATM   20  C8  UNL     1      30.019  66.019  10.038  1.00  0.00     0.154 C 
BRANCH  20  21
HETATM   21  C9  UNL     1      30.869  65.893   8.789  1.00  0.00     0.139 C 
HETATM   22  C10 UNL     1      30.294  66.670   7.628  1.00  0.00     0.035 C 
HETATM   23  C11 UNL     1      31.527  66.733   6.726  1.00  0.00     0.029 C 
HETATM   24  C12 UNL     1      32.601  66.888   7.761  1.00  0.00     0.168 C 
HETATM   25  O3  UNL     1      32.115  66.469   8.964  1.00  0.00    -0.384 OA
ENDBRANCH  20  21
ENDBRANCH  18  20
ENDBRANCH  10  16
ENDBRANCH   6  10
ENDBRANCH   4   6
TORSDOF 6
ENDMDL
MODEL 2
REMARK VINA RESULT: -7.384955365      0.970      1.549
REMARK  6 active torsions:
REMARK  status: ('A' for Active; 'I' for Inactive)
REMARK    1  A    between atoms: N1_4  and  C4_6 
REMARK    2  A    between atoms: C4_6  and  C5_10 
REMARK    3  A    between atoms: C5_10  and  N3_11 
REMARK    4  A    between atoms: C5_10  and  C7_16 
REMARK       I    between atoms: N3_11  and  C6_13 
REMARK       I    between atoms: C7_16  and  N5_18 
REMARK    5  A    between atoms: N5_18  and  C8_20 
REMARK    6  A    between atoms: C8_20  and  C9_21 
ROOT
HETATM    1  C1  UNL     1      24.074  63.728  13.124  1.00  0.00     0.018 C 
HETATM    2  C2  UNL     1      25.115  64.319  13.358  1.00  0.00    -0.072 C 
HETATM    3  C3  UNL     1      26.323  65.018  13.658  1.00  0.00     0.153 C 
HETATM    4  N1  UNL     1      27.503  64.705  13.330  1.00  0.00    -0.347 N 
ATOM      5  H1  UNL     1      28.269  65.312  13.620  1.00  0.00     0.167 HD
ENDROOT
BRANCH   4   6
HETATM    6  C4  UNL     1      27.803  63.547  12.576  1.00  0.00     0.107 C 
HETATM    7  N2  UNL     1      28.031  62.449  13.206  1.00  0.00    -0.387 N 
ATOM      8  H22 UNL     1      27.978  62.451  14.225  1.00  0.00     0.157 HD
ATOM      9  H21 UNL     1      28.247  61.613  12.662  1.00  0.00     0.157 HD
BRANCH   6  10
HETATM   10  C5  UNL     1      27.878  63.544  11.110  1.00  0.00     0.245 C 
BRANCH  10  11
HETATM   11  N3  UNL     1      26.591  63.312  10.543  1.00  0.00    -0.325 N 
HETATM   12  C6  UNL     1      26.250  62.112   9.874  1.00  0.00     0.329 C 
HETATM   13  N4  UNL     1      24.958  61.946   9.332  1.00  0.00    -0.040 NA
HETATM   14  O1  UNL     1      27.087  61.204   9.764  1.00  0.00    -0.251 OA
ATOM     15  H3  UNL     1      25.885  64.043  10.622  1.00  0.00     0.165 HD
ENDBRANCH  10  11
BRANCH  10  16
HETATM   16  C7  UNL     1      28.404  64.843  10.594  1.00  0.00     0.248 C 
HETATM   17  O2  UNL     1      27.607  65.761  10.350  1.00  0.00    -0.271 OA
HETATM   18  N5  UNL     1      29.794  65.042  10.386  1.00  0.00    -0.356 N 
ATOM     19  H5  UNL     1      30.445  64.285  10.595  1.00  0.00     0.162 HD
BRANCH  18  20
HETATM   20  C8  UNL     1      30.303  66.298   9.883  1.00  0.00     0.154 C 
BRANCH  20  21
HETATM   21  C9  UNL     1      31.131  66.074   8.633  1.00  0.00     0.139 C 
HETATM   22  C10 UNL     1      30.582  66.827   7.444  1.00  0.00     0.035 C 
HETATM   23  C11 UNL     1      31.807  66.788   6.529  1.00  0.00     0.029 C 
HETATM   24  C12 UNL     1      32.899  66.933   7.546  1.00  0.00     0.168 C 
HETATM   25  O3  UNL     1      32.406  66.593   8.771  1.00  0.00    -0.384 OA
ENDBRANCH  20  21
ENDBRANCH  18  20
ENDBRANCH  10  16
ENDBRANCH   6  10
ENDBRANCH   4   6
TORSDOF 6
ENDMDL
MODEL 3
REMARK VINA RESULT: -7.246755546      1.793      2.290
REMARK  6 active torsions:
REMARK  status: ('A' for Active; 'I' for Inactive)
REMARK    1  A    between atoms: N1_4  and  C4_6 
REMARK    2  A    between atoms: C4_6  and  C5_10 
REMARK    3  A    between atoms: C5_10  and  N3_11 
REMARK    4  A    between atoms: C5_10  and  C7_16 
REMARK       I    between atoms: N3_11  and  C6_13 
REMARK       I    between atoms: C7_16  and  N5_18 
REMARK    5  A    between atoms: N5_18  and  C8_20 
REMARK    6  A    between atoms: C8_20  and  C9_21 
ROOT
HETATM    1  C1  UNL     1      23.117  65.761  11.826  1.00  0.00     0.018 C 
HETATM    2  C2  UNL     1      23.611  64.774  12.344  1.00  0.00    -0.072 C 
HETATM    3  C3  UNL     1      24.169  63.602  12.939  1.00  0.00     0.153 C 
HETATM    4  N1  UNL     1      25.389  63.285  13.034  1.00  0.00    -0.347 N 
ATOM      5  H1  UNL     1      25.632  62.407  13.494  1.00  0.00     0.167 HD
ENDROOT
BRANCH   4   6
HETATM    6  C4  UNL     1      26.429  64.098  12.530  1.00  0.00     0.107 C 
HETATM    7  N2  UNL     1      26.746  65.161  13.182  1.00  0.00    -0.387 N 
ATOM      8  H22 UNL     1      26.242  65.373  14.043  1.00  0.00     0.157 HD
ATOM      9  H21 UNL     1      27.497  65.747  12.818  1.00  0.00     0.157 HD
BRANCH   6  10
HETATM   10  C5  UNL     1      27.155  63.792  11.292  1.00  0.00     0.245 C 
BRANCH  10  11
HETATM   11  N3  UNL     1      26.375  64.145  10.152  1.00  0.00    -0.325 N 
HETATM   12  C6  UNL     1      25.498  63.239   9.509  1.00  0.00     0.329 C 
HETATM   13  N4  UNL     1      24.754  63.650   8.383  1.00  0.00    -0.040 NA
HETATM   14  O1  UNL     1      25.382  62.080   9.936  1.00  0.00    -0.251 OA
ATOM     15  H3  UNL     1      26.452  65.093   9.784  1.00  0.00     0.165 HD
ENDBRANCH  10  11
BRANCH  10  16
HETATM   16  C7  UNL     1      28.454  64.528  11.231  1.00  0.00     0.248 C 
HETATM   17  O2  UNL     1      29.284  64.360  12.135  1.00  0.00    -0.271 OA
HETATM   18  N5  UNL     1      28.749  65.407  10.157  1.00  0.00    -0.356 N 
ATOM     19  H5  UNL     1      28.064  65.537   9.413  1.00  0.00     0.162 HD
BRANCH  18  20
HETATM   20  C8  UNL     1      30.004  66.123  10.100  1.00  0.00     0.154 C 
BRANCH  20  21
HETATM   21  C9  UNL     1      30.657  65.943   8.743  1.00  0.00     0.139 C 
HETATM   22  C10 UNL     1      29.919  66.683   7.653  1.00  0.00     0.035 C 
HETATM   23  C11 UNL     1      31.004  66.702   6.576  1.00  0.00     0.029 C 
HETATM   24  C12 UNL     1      32.221  66.882   7.432  1.00  0.00     0.168 C 
HETATM   25  O3  UNL     1      31.918  66.513   8.709  1.00  0.00    -0.384 OA
ENDBRANCH  20  21
ENDBRANCH  18  20
ENDBRANCH  10  16
ENDBRANCH   6  10
ENDBRANCH   4   6
TORSDOF 6
ENDMDL
MODEL 4
REMARK VINA RESULT: -7.079302010      0.922      1.158
REMARK  6 active torsions:
REMARK  status: ('A' for Active; 'I' for Inactive)
REMARK    1  A    between atoms: N1_4  and  C4_6 
REMARK    2  A    between atoms: C4_6  and  C5_10 
REMARK    3  A    between atoms: C5_10  and  N3_11 
REMARK    4  A    between atoms: C5_10  and  C7_16 
REMARK       I    between atoms: N3_11  and  C6_13 
REMARK       I    between atoms: C7_16  and  N5_18 
REMARK    5  A    between atoms: N5_18  and  C8_20 
REMARK    6  A    between atoms: C8_20  and  C9_21 
ROOT
HETATM    1  C1  UNL     1      28.459  65.879  15.102  1.00  0.00     0.018 C 
HETATM    2  C2  UNL     1      27.499  65.237  14.709  1.00  0.00    -0.072 C 
HETATM    3  C3  UNL     1      26.359  64.511  14.252  1.00  0.00     0.153 C 
HETATM    4  N1  UNL     1      26.311  63.630  13.346  1.00  0.00    -0.347 N 
ATOM      5  H1  UNL     1      25.413  63.195  13.133  1.00  0.00     0.167 HD
ENDROOT
BRANCH   4   6
HETATM    6  C4  UNL     1      27.452  63.223  12.617  1.00  0.00     0.107 C 
HETATM    7  N2  UNL     1      28.372  62.569  13.236  1.00  0.00    -0.387 N 
ATOM      8  H22 UNL     1      28.240  62.361  14.225  1.00  0.00     0.157 HD
ATOM      9  H21 UNL     1      29.195  62.276  12.710  1.00  0.00     0.157 HD
BRANCH   6  10
HETATM   10  C5  UNL     1      27.641  63.523  11.193  1.00  0.00     0.245 C 
BRANCH  10  11
HETATM   11  N3  UNL     1      26.386  63.553  10.516  1.00  0.00    -0.325 N 
HETATM   12  C6  UNL     1      25.903  62.469   9.745  1.00  0.00     0.329 C 
HETATM   13  N4  UNL     1      24.653  62.563   9.097  1.00  0.00    -0.040 NA
HETATM   14  O1  UNL     1      26.579  61.435   9.636  1.00  0.00    -0.251 OA
ATOM     15  H3  UNL     1      25.812  64.392  10.592  1.00  0.00     0.165 HD
ENDBRANCH  10  11
BRANCH  10  16
HETATM   16  C7  UNL     1      28.320  64.840  11.004  1.00  0.00     0.248 C 
HETATM   17  O2  UNL     1      27.836  65.849  11.538  1.00  0.00    -0.271 OA
HETATM   18  N5  UNL     1      29.506  64.950  10.233  1.00  0.00    -0.356 N 
ATOM     19  H5  UNL     1      29.903  64.115   9.801  1.00  0.00     0.162 HD
BRANCH  18  20
HETATM   20  C8  UNL     1      30.162  66.225  10.047  1.00  0.00     0.154 C 
BRANCH  20  21
HETATM   21  C9  UNL     1      30.032  66.685   8.608  1.00  0.00     0.139 C 
HETATM   22  C10 UNL     1      31.339  66.583   7.857  1.00  0.00     0.035 C 
HETATM   23  C11 UNL     1      30.817  66.655   6.422  1.00  0.00     0.029 C 
HETATM   24  C12 UNL     1      29.540  65.883   6.568  1.00  0.00     0.168 C 
HETATM   25  O3  UNL     1      29.191  65.856   7.885  1.00  0.00    -0.384 OA
ENDBRANCH  20  21
ENDBRANCH  18  20
ENDBRANCH  10  16
ENDBRANCH   6  10
ENDBRANCH   4   6
TORSDOF 6
ENDMDL
MODEL 5
REMARK VINA RESULT: -6.965829070      1.246      1.248
REMARK  6 active torsions:
REMARK  status: ('A' for Active; 'I' for Inactive)
REMARK    1  A    between atoms: N1_4  and  C4_6 
REMARK    2  A    between atoms: C4_6  and  C5_10 
REMARK    3  A    between atoms: C5_10  and  N3_11 
REMARK    4  A    between atoms: C5_10  and  C7_16 
REMARK       I    between atoms: N3_11  and  C6_13 
REMARK       I    between atoms: C7_16  and  N5_18 
REMARK    5  A    between atoms: N5_18  and  C8_20 
REMARK    6  A    between atoms: C8_20  and  C9_21 
ROOT
HETATM    1  C1  UNL     1      29.042  65.659  14.246  1.00  0.00     0.018 C 
HETATM    2  C2  UNL     1      27.970  65.085  14.149  1.00  0.00    -0.072 C 
HETATM    3  C3  UNL     1      26.702  64.438  14.045  1.00  0.00     0.153 C 
HETATM    4  N1  UNL     1      26.291  63.680  13.121  1.00  0.00    -0.347 N 
ATOM      5  H1  UNL     1      25.352  63.287  13.192  1.00  0.00     0.167 HD
ENDROOT
BRANCH   4   6
HETATM    6  C4  UNL     1      27.079  63.354  11.994  1.00  0.00     0.107 C 
HETATM    7  N2  UNL     1      27.975  62.438  12.118  1.00  0.00    -0.387 N 
ATOM      8  H22 UNL     1      28.076  61.974  13.021  1.00  0.00     0.157 HD
ATOM      9  H21 UNL     1      28.544  62.203  11.305  1.00  0.00     0.157 HD
BRANCH   6  10
HETATM   10  C5  UNL     1      26.933  64.020  10.695  1.00  0.00     0.245 C 
BRANCH  10  11
HETATM   11  N3  UNL     1      25.608  64.523  10.536  1.00  0.00    -0.325 N 
HETATM   12  C6  UNL     1      24.883  64.409   9.326  1.00  0.00     0.329 C 
HETATM   13  N4  UNL     1      23.575  64.931   9.233  1.00  0.00    -0.040 NA
HETATM   14  O1  UNL     1      25.396  63.851   8.345  1.00  0.00    -0.251 OA
ATOM     15  H3  UNL     1      25.164  64.985  11.329  1.00  0.00     0.165 HD
ENDBRANCH  10  11
BRANCH  10  16
HETATM   16  C7  UNL     1      27.896  65.154  10.558  1.00  0.00     0.248 C 
HETATM   17  O2  UNL     1      27.488  66.314  10.712  1.00  0.00    -0.271 OA
HETATM   18  N5  UNL     1      29.265  64.922  10.262  1.00  0.00    -0.356 N 
ATOM     19  H5  UNL     1      29.596  63.965  10.142  1.00  0.00     0.162 HD
BRANCH  18  20
HETATM   20  C8  UNL     1      30.197  66.019  10.126  1.00  0.00     0.154 C 
BRANCH  20  21
HETATM   21  C9  UNL     1      30.967  65.904   8.825  1.00  0.00     0.139 C 
HETATM   22  C10 UNL     1      30.345  66.727   7.721  1.00  0.00     0.035 C 
HETATM   23  C11 UNL     1      31.524  66.782   6.748  1.00  0.00     0.029 C 
HETATM   24  C12 UNL     1      32.661  66.880   7.719  1.00  0.00     0.168 C 
HETATM   25  O3  UNL     1      32.237  66.442   8.939  1.00  0.00    -0.384 OA
ENDBRANCH  20  21
ENDBRANCH  18  20
ENDBRANCH  10  16
ENDBRANCH   6  10
ENDBRANCH   4   6
TORSDOF 6
ENDMDL
