MODEL 1
REMARK VINA RESULT: -7.369962502      0.000      0.000
REMARK  10 active torsions:
REMARK  status: ('A' for Active; 'I' for Inactive)
REMARK    1  A    between atoms: C2_2  and  O1_3 
REMARK    2  A    between atoms: O1_3  and  C3_4 
REMARK    3  A    between atoms: C6_7  and  N1_8 
REMARK       I    between atoms: N1_8  and  C7_10 
REMARK    4  A    between atoms: C7_10  and  C8_12 
REMARK    5  A    between atoms: C8_12  and  C9_13 
REMARK    6  A    between atoms: C8_12  and  N3_23 
REMARK    7  A    between atoms: C9_13  and  N2_14 
REMARK       I    between atoms: N2_14  and  C10_16 
REMARK    8  A    between atoms: C10_16  and  O4_18 
REMARK    9  A    between atoms: O4_18  and  C11_19 
REMARK       I    between atoms: N3_23  and  C15_25 
REMARK   10  A    between atoms: C15_25  and  C16_27 
ROOT
HETATM    1  C8  UNL     1     -40.926  16.006 -19.990  1.00  0.00     0.194 C 
ENDROOT
BRANCH   1   2
HETATM    2  C7  UNL     1     -42.062  15.130 -20.356  1.00  0.00     0.242 C 
HETATM    3  N1  UNL     1     -43.403  15.471 -20.041  1.00  0.00    -0.355 N 
ATOM      4  H1  UNL     1     -43.600  16.342 -19.549  1.00  0.00     0.162 HD
HETATM    5  O2  UNL     1     -41.837  14.056 -20.962  1.00  0.00    -0.271 OA
BRANCH   3   6
HETATM    6  C6  UNL     1     -44.482  14.604 -20.408  1.00  0.00     0.084 C 
HETATM    7  C5  UNL     1     -45.612  14.748 -19.429  1.00  0.00     0.028 C 
HETATM    8  C4  UNL     1     -46.840  13.987 -19.884  1.00  0.00     0.034 C 
HETATM    9  C3  UNL     1     -47.359  14.472 -21.217  1.00  0.00     0.121 C 
HETATM   10  C19 UNL     1     -46.361  15.514 -21.710  1.00  0.00     0.034 C 
HETATM   11  C18 UNL     1     -44.974  14.956 -21.776  1.00  0.00     0.028 C 
BRANCH   9  12
HETATM   12  O1  UNL     1     -48.558  15.100 -21.050  1.00  0.00    -0.386 OA
BRANCH  12  13
HETATM   13  C2  UNL     1     -48.895  16.045 -21.975  1.00  0.00     0.163 C 
HETATM   14  C1  UNL     1     -50.158  15.843 -22.714  1.00  0.00     0.033 C 
ENDBRANCH  12  13
ENDBRANCH   9  12
ENDBRANCH   3   6
ENDBRANCH   1   2
BRANCH   1  15
HETATM   15  C9  UNL     1     -40.090  16.307 -21.221  1.00  0.00     0.159 C 
BRANCH  15  16
HETATM   16  N2  UNL     1     -40.922  16.726 -22.330  1.00  0.00    -0.334 N 
HETATM   17  C10 UNL     1     -40.652  17.899 -23.084  1.00  0.00     0.361 C 
HETATM   18  O3  UNL     1     -39.637  18.599 -22.759  1.00  0.00    -0.238 OA
ATOM     19  H2  UNL     1     -41.732  16.158 -22.579  1.00  0.00     0.164 HD
BRANCH  17  20
HETATM   20  O4  UNL     1     -41.418  18.321 -24.136  1.00  0.00    -0.294 OA
BRANCH  20  21
HETATM   21  C11 UNL     1     -42.740  18.810 -24.035  1.00  0.00     0.061 C 
HETATM   22  C12 UNL     1     -42.940  19.608 -22.764  1.00  0.00     0.046 C 
HETATM   23  C13 UNL     1     -43.760  17.694 -24.100  1.00  0.00     0.046 C 
HETATM   24  C14 UNL     1     -42.989  19.739 -25.201  1.00  0.00     0.046 C 
ENDBRANCH  20  21
ENDBRANCH  17  20
ENDBRANCH  15  16
ENDBRANCH   1  15
BRANCH   1  25
HETATM   25  N3  UNL     1     -40.165  15.401 -18.944  1.00  0.00    -0.345 N 
HETATM   26  C15 UNL     1     -39.577  16.083 -17.867  1.00  0.00     0.236 C 
HETATM   27  O5  UNL     1     -39.713  17.328 -17.785  1.00  0.00    -0.272 OA
ATOM     28  H3  UNL     1     -40.037  14.390 -18.984  1.00  0.00     0.163 HD
BRANCH  26  29
HETATM   29  C16 UNL     1     -38.799  15.392 -16.814  1.00  0.00     0.170 C 
HETATM   30  C17 UNL     1     -38.234  16.362 -15.799  1.00  0.00     0.036 C 
HETATM   31 CL1  UNL     1     -39.805  14.197 -15.960  1.00  0.00    -0.115 Cl
ENDBRANCH  26  29
ENDBRANCH   1  25
TORSDOF 10
ENDMDL
MODEL 2
REMARK VINA RESULT: -7.256651876      0.905      1.053
REMARK  10 active torsions:
REMARK  status: ('A' for Active; 'I' for Inactive)
REMARK    1  A    between atoms: C2_2  and  O1_3 
REMARK    2  A    between atoms: O1_3  and  C3_4 
REMARK    3  A    between atoms: C6_7  and  N1_8 
REMARK       I    between atoms: N1_8  and  C7_10 
REMARK    4  A    between atoms: C7_10  and  C8_12 
REMARK    5  A    between atoms: C8_12  and  C9_13 
REMARK    6  A    between atoms: C8_12  and  N3_23 
REMARK    7  A    between atoms: C9_13  and  N2_14 
REMARK       I    between atoms: N2_14  and  C10_16 
REMARK    8  A    between atoms: C10_16  and  O4_18 
REMARK    9  A    between atoms: O4_18  and  C11_19 
REMARK       I    between atoms: N3_23  and  C15_25 
REMARK   10  A    between atoms: C15_25  and  C16_27 
ROOT
HETATM    1  C8  UNL     1     -40.849  16.001 -20.111  1.00  0.00     0.194 C 
ENDROOT
BRANCH   1   2
HETATM    2  C7  UNL     1     -41.982  15.130 -20.497  1.00  0.00     0.242 C 
HETATM    3  N1  UNL     1     -43.319  15.434 -20.133  1.00  0.00    -0.355 N 
ATOM      4  H1  UNL     1     -43.515  16.274 -19.588  1.00  0.00     0.162 HD
HETATM    5  O2  UNL     1     -41.758  14.094 -21.167  1.00  0.00    -0.271 OA
BRANCH   3   6
HETATM    6  C6  UNL     1     -44.396  14.572 -20.520  1.00  0.00     0.084 C 
HETATM    7  C5  UNL     1     -45.293  14.311 -19.344  1.00  0.00     0.028 C 
HETATM    8  C4  UNL     1     -46.540  13.556 -19.755  1.00  0.00     0.034 C 
HETATM    9  C3  UNL     1     -47.366  14.314 -20.768  1.00  0.00     0.121 C 
HETATM   10  C19 UNL     1     -46.566  15.564 -21.120  1.00  0.00     0.034 C 
HETATM   11  C18 UNL     1     -45.195  15.217 -21.608  1.00  0.00     0.028 C 
BRANCH   9  12
HETATM   12  O1  UNL     1     -48.537  14.724 -20.201  1.00  0.00    -0.386 OA
BRANCH  12  13
HETATM   13  C2  UNL     1     -49.083  13.910 -19.252  1.00  0.00     0.163 C 
HETATM   14  C1  UNL     1     -50.428  13.365 -19.526  1.00  0.00     0.033 C 
ENDBRANCH  12  13
ENDBRANCH   9  12
ENDBRANCH   3   6
ENDBRANCH   1   2
BRANCH   1  15
HETATM   15  C9  UNL     1     -40.018  16.338 -21.336  1.00  0.00     0.159 C 
BRANCH  15  16
HETATM   16  N2  UNL     1     -40.856  16.763 -22.438  1.00  0.00    -0.334 N 
HETATM   17  C10 UNL     1     -40.599  17.947 -23.179  1.00  0.00     0.361 C 
HETATM   18  O3  UNL     1     -39.589  18.652 -22.847  1.00  0.00    -0.238 OA
ATOM     19  H2  UNL     1     -41.661  16.191 -22.691  1.00  0.00     0.164 HD
BRANCH  17  20
HETATM   20  O4  UNL     1     -41.370  18.375 -24.224  1.00  0.00    -0.294 OA
BRANCH  20  21
HETATM   21  C11 UNL     1     -42.704  18.829 -24.116  1.00  0.00     0.061 C 
HETATM   22  C12 UNL     1     -42.930  19.588 -22.826  1.00  0.00     0.046 C 
HETATM   23  C13 UNL     1     -43.697  17.691 -24.217  1.00  0.00     0.046 C 
HETATM   24  C14 UNL     1     -42.970  19.782 -25.259  1.00  0.00     0.046 C 
ENDBRANCH  20  21
ENDBRANCH  17  20
ENDBRANCH  15  16
ENDBRANCH   1  15
BRANCH   1  25
HETATM   25  N3  UNL     1     -40.082  15.372 -19.084  1.00  0.00    -0.345 N 
HETATM   26  C15 UNL     1     -39.543  16.018 -17.960  1.00  0.00     0.236 C 
HETATM   27  O5  UNL     1     -39.733  17.250 -17.814  1.00  0.00    -0.272 OA
ATOM     28  H3  UNL     1     -39.912  14.371 -19.174  1.00  0.00     0.163 HD
BRANCH  26  29
HETATM   29  C16 UNL     1     -38.756  15.303 -16.929  1.00  0.00     0.170 C 
HETATM   30  C17 UNL     1     -38.028  16.259 -16.009  1.00  0.00     0.036 C 
HETATM   31 CL1  UNL     1     -39.803  14.252 -15.944  1.00  0.00    -0.115 Cl
ENDBRANCH  26  29
ENDBRANCH   1  25
TORSDOF 10
ENDMDL
MODEL 3
REMARK VINA RESULT: -7.171413809      1.566      1.789
REMARK  10 active torsions:
REMARK  status: ('A' for Active; 'I' for Inactive)
REMARK    1  A    between atoms: C2_2  and  O1_3 
REMARK    2  A    between atoms: O1_3  and  C3_4 
REMARK    3  A    between atoms: C6_7  and  N1_8 
REMARK       I    between atoms: N1_8  and  C7_10 
REMARK    4  A    between atoms: C7_10  and  C8_12 
REMARK    5  A    between atoms: C8_12  and  C9_13 
REMARK    6  A    between atoms: C8_12  and  N3_23 
REMARK    7  A    between atoms: C9_13  and  N2_14 
REMARK       I    between atoms: N2_14  and  C10_16 
REMARK    8  A    between atoms: C10_16  and  O4_18 
REMARK    9  A    between atoms: O4_18  and  C11_19 
REMARK       I    between atoms: N3_23  and  C15_25 
REMARK   10  A    between atoms: C15_25  and  C16_27 
ROOT
HETATM    1  C8  UNL     1     -40.577  15.277 -19.640  1.00  0.00     0.194 C 
ENDROOT
BRANCH   1   2
HETATM    2  C7  UNL     1     -41.833  14.521 -19.850  1.00  0.00     0.242 C 
HETATM    3  N1  UNL     1     -43.069  15.173 -20.091  1.00  0.00    -0.355 N 
ATOM      4  H1  UNL     1     -43.104  16.192 -20.123  1.00  0.00     0.162 HD
HETATM    5  O2  UNL     1     -41.807  13.268 -19.814  1.00  0.00    -0.271 OA
BRANCH   3   6
HETATM    6  C6  UNL     1     -44.269  14.416 -20.290  1.00  0.00     0.084 C 
HETATM    7  C5  UNL     1     -45.322  14.858 -19.316  1.00  0.00     0.028 C 
HETATM    8  C4  UNL     1     -46.659  14.211 -19.613  1.00  0.00     0.034 C 
HETATM    9  C3  UNL     1     -47.174  14.557 -20.991  1.00  0.00     0.121 C 
HETATM   10  C19 UNL     1     -46.073  15.368 -21.665  1.00  0.00     0.034 C 
HETATM   11  C18 UNL     1     -44.775  14.623 -21.682  1.00  0.00     0.028 C 
BRANCH   9  12
HETATM   12  O1  UNL     1     -48.271  15.360 -20.891  1.00  0.00    -0.386 OA
BRANCH  12  13
HETATM   13  C2  UNL     1     -48.605  16.091 -21.993  1.00  0.00     0.163 C 
HETATM   14  C1  UNL     1     -49.937  15.849 -22.583  1.00  0.00     0.033 C 
ENDBRANCH  12  13
ENDBRANCH   9  12
ENDBRANCH   3   6
ENDBRANCH   1   2
BRANCH   1  15
HETATM   15  C9  UNL     1     -39.503  14.762 -20.581  1.00  0.00     0.159 C 
BRANCH  15  16
HETATM   16  N2  UNL     1     -39.949  14.803 -21.959  1.00  0.00    -0.334 N 
HETATM   17  C10 UNL     1     -39.574  15.842 -22.851  1.00  0.00     0.361 C 
HETATM   18  O3  UNL     1     -38.818  16.768 -22.406  1.00  0.00    -0.238 OA
ATOM     19  H2  UNL     1     -40.555  14.057 -22.301  1.00  0.00     0.164 HD
BRANCH  17  20
HETATM   20  O4  UNL     1     -39.978  15.909 -24.156  1.00  0.00    -0.294 OA
BRANCH  20  21
HETATM   21  C11 UNL     1     -41.083  16.653 -24.627  1.00  0.00     0.061 C 
HETATM   22  C12 UNL     1     -40.654  17.996 -25.179  1.00  0.00     0.046 C 
HETATM   23  C13 UNL     1     -42.127  16.856 -23.550  1.00  0.00     0.046 C 
HETATM   24  C14 UNL     1     -41.724  15.879 -25.757  1.00  0.00     0.046 C 
ENDBRANCH  20  21
ENDBRANCH  17  20
ENDBRANCH  15  16
ENDBRANCH   1  15
BRANCH   1  25
HETATM   25  N3  UNL     1     -40.188  15.200 -18.269  1.00  0.00    -0.345 N 
HETATM   26  C15 UNL     1     -39.779  16.285 -17.477  1.00  0.00     0.236 C 
HETATM   27  O5  UNL     1     -39.741  17.432 -17.986  1.00  0.00    -0.272 OA
ATOM     28  H3  UNL     1     -40.209  14.281 -17.828  1.00  0.00     0.163 HD
BRANCH  26  29
HETATM   29  C16 UNL     1     -39.388  16.134 -16.057  1.00  0.00     0.170 C 
HETATM   30  C17 UNL     1     -39.272  14.680 -15.653  1.00  0.00     0.036 C 
HETATM   31 CL1  UNL     1     -37.832  16.940 -15.737  1.00  0.00    -0.115 Cl
ENDBRANCH  26  29
ENDBRANCH   1  25
TORSDOF 10
ENDMDL
MODEL 4
REMARK VINA RESULT: -6.961202490      2.488      5.318
REMARK  10 active torsions:
REMARK  status: ('A' for Active; 'I' for Inactive)
REMARK    1  A    between atoms: C2_2  and  O1_3 
REMARK    2  A    between atoms: O1_3  and  C3_4 
REMARK    3  A    between atoms: C6_7  and  N1_8 
REMARK       I    between atoms: N1_8  and  C7_10 
REMARK    4  A    between atoms: C7_10  and  C8_12 
REMARK    5  A    between atoms: C8_12  and  C9_13 
REMARK    6  A    between atoms: C8_12  and  N3_23 
REMARK    7  A    between atoms: C9_13  and  N2_14 
REMARK       I    between atoms: N2_14  and  C10_16 
REMARK    8  A    between atoms: C10_16  and  O4_18 
REMARK    9  A    between atoms: O4_18  and  C11_19 
REMARK       I    between atoms: N3_23  and  C15_25 
REMARK   10  A    between atoms: C15_25  and  C16_27 
ROOT
HETATM    1  C8  UNL     1     -41.039  14.073 -20.252  1.00  0.00     0.194 C 
ENDROOT
BRANCH   1   2
HETATM    2  C7  UNL     1     -42.423  13.548 -20.246  1.00  0.00     0.242 C 
HETATM    3  N1  UNL     1     -43.550  14.405 -20.331  1.00  0.00    -0.355 N 
ATOM      4  H1  UNL     1     -43.413  15.414 -20.399  1.00  0.00     0.162 HD
HETATM    5  O2  UNL     1     -42.609  12.311 -20.162  1.00  0.00    -0.271 OA
BRANCH   3   6
HETATM    6  C6  UNL     1     -44.879  13.869 -20.322  1.00  0.00     0.084 C 
HETATM    7  C5  UNL     1     -45.750  14.672 -19.399  1.00  0.00     0.028 C 
HETATM    8  C4  UNL     1     -47.201  14.251 -19.501  1.00  0.00     0.034 C 
HETATM    9  C3  UNL     1     -47.760  14.438 -20.892  1.00  0.00     0.121 C 
HETATM   10  C19 UNL     1     -46.592  14.889 -21.763  1.00  0.00     0.034 C 
HETATM   11  C18 UNL     1     -45.455  13.918 -21.701  1.00  0.00     0.028 C 
BRANCH   9  12
HETATM   12  O1  UNL     1     -48.683  15.441 -20.894  1.00  0.00    -0.386 OA
BRANCH  12  13
HETATM   13  C2  UNL     1     -48.931  16.052 -22.088  1.00  0.00     0.163 C 
HETATM   14  C1  UNL     1     -50.169  15.669 -22.796  1.00  0.00     0.033 C 
ENDBRANCH  12  13
ENDBRANCH   9  12
ENDBRANCH   3   6
ENDBRANCH   1   2
BRANCH   1  15
HETATM   15  C9  UNL     1     -40.405  13.871 -18.887  1.00  0.00     0.159 C 
BRANCH  15  16
HETATM   16  N2  UNL     1     -39.697  15.058 -18.456  1.00  0.00    -0.334 N 
HETATM   17  C10 UNL     1     -38.600  15.006 -17.556  1.00  0.00     0.361 C 
HETATM   18  O3  UNL     1     -38.238  13.864 -17.119  1.00  0.00    -0.238 OA
ATOM     19  H2  UNL     1     -39.997  15.965 -18.812  1.00  0.00     0.164 HD
BRANCH  17  20
HETATM   20  O4  UNL     1     -37.910  16.108 -17.131  1.00  0.00    -0.294 OA
BRANCH  20  21
HETATM   21  C11 UNL     1     -38.316  16.967 -16.084  1.00  0.00     0.061 C 
HETATM   22  C12 UNL     1     -39.774  16.761 -15.731  1.00  0.00     0.046 C 
HETATM   23  C13 UNL     1     -38.076  18.423 -16.424  1.00  0.00     0.046 C 
HETATM   24  C14 UNL     1     -37.498  16.633 -14.858  1.00  0.00     0.046 C 
ENDBRANCH  20  21
ENDBRANCH  17  20
ENDBRANCH  15  16
ENDBRANCH   1  15
BRANCH   1  25
HETATM   25  N3  UNL     1     -41.041  15.442 -20.659  1.00  0.00    -0.345 N 
HETATM   26  C15 UNL     1     -40.548  15.929 -21.880  1.00  0.00     0.236 C 
HETATM   27  O5  UNL     1     -40.058  15.121 -22.706  1.00  0.00    -0.272 OA
ATOM     28  H3  UNL     1     -41.433  16.122 -20.008  1.00  0.00     0.163 HD
BRANCH  26  29
HETATM   29  C16 UNL     1     -40.582  17.364 -22.239  1.00  0.00     0.170 C 
HETATM   30  C17 UNL     1     -40.832  18.244 -21.033  1.00  0.00     0.036 C 
HETATM   31 CL1  UNL     1     -39.053  17.866 -23.001  1.00  0.00    -0.115 Cl
ENDBRANCH  26  29
ENDBRANCH   1  25
TORSDOF 10
ENDMDL
MODEL 5
REMARK VINA RESULT: -6.955527465      3.165      5.573
REMARK  10 active torsions:
REMARK  status: ('A' for Active; 'I' for Inactive)
REMARK    1  A    between atoms: C2_2  and  O1_3 
REMARK    2  A    between atoms: O1_3  and  C3_4 
REMARK    3  A    between atoms: C6_7  and  N1_8 
REMARK       I    between atoms: N1_8  and  C7_10 
REMARK    4  A    between atoms: C7_10  and  C8_12 
REMARK    5  A    between atoms: C8_12  and  C9_13 
REMARK    6  A    between atoms: C8_12  and  N3_23 
REMARK    7  A    between atoms: C9_13  and  N2_14 
REMARK       I    between atoms: N2_14  and  C10_16 
REMARK    8  A    between atoms: C10_16  and  O4_18 
REMARK    9  A    between atoms: O4_18  and  C11_19 
REMARK       I    between atoms: N3_23  and  C15_25 
REMARK   10  A    between atoms: C15_25  and  C16_27 
ROOT
HETATM    1  C8  UNL     1     -41.315  13.198 -19.763  1.00  0.00     0.194 C 
ENDROOT
BRANCH   1   2
HETATM    2  C7  UNL     1     -42.505  14.079 -19.782  1.00  0.00     0.242 C 
HETATM    3  N1  UNL     1     -43.820  13.560 -19.902  1.00  0.00    -0.355 N 
ATOM      4  H1  UNL     1     -43.960  12.552 -19.976  1.00  0.00     0.162 HD
HETATM    5  O2  UNL     1     -42.351  15.320 -19.691  1.00  0.00    -0.271 OA
BRANCH   3   6
HETATM    6  C6  UNL     1     -44.953  14.436 -19.918  1.00  0.00     0.084 C 
HETATM    7  C5  UNL     1     -45.335  14.754 -21.335  1.00  0.00     0.028 C 
HETATM    8  C4  UNL     1     -46.636  15.528 -21.398  1.00  0.00     0.034 C 
HETATM    9  C3  UNL     1     -47.793  14.761 -20.802  1.00  0.00     0.121 C 
HETATM   10  C19 UNL     1     -47.201  13.482 -20.219  1.00  0.00     0.034 C 
HETATM   11  C18 UNL     1     -46.112  13.780 -19.237  1.00  0.00     0.028 C 
BRANCH   9  12
HETATM   12  O1  UNL     1     -48.667  14.397 -21.783  1.00  0.00    -0.386 OA
BRANCH  12  13
HETATM   13  C2  UNL     1     -49.911  14.957 -21.742  1.00  0.00     0.163 C 
HETATM   14  C1  UNL     1     -50.310  15.795 -22.890  1.00  0.00     0.033 C 
ENDBRANCH  12  13
ENDBRANCH   9  12
ENDBRANCH   3   6
ENDBRANCH   1   2
BRANCH   1  15
HETATM   15  C9  UNL     1     -40.604  13.323 -18.427  1.00  0.00     0.159 C 
BRANCH  15  16
HETATM   16  N2  UNL     1     -40.050  14.650 -18.249  1.00  0.00    -0.334 N 
HETATM   17  C10 UNL     1     -38.822  14.878 -17.575  1.00  0.00     0.361 C 
HETATM   18  O3  UNL     1     -38.196  13.867 -17.113  1.00  0.00    -0.238 OA
ATOM     19  H2  UNL     1     -40.562  15.449 -18.622  1.00  0.00     0.164 HD
BRANCH  17  20
HETATM   20  O4  UNL     1     -38.272  16.118 -17.391  1.00  0.00    -0.294 OA
BRANCH  20  21
HETATM   21  C11 UNL     1     -38.465  16.931 -16.252  1.00  0.00     0.061 C 
HETATM   22  C12 UNL     1     -39.888  16.842 -15.741  1.00  0.00     0.046 C 
HETATM   23  C13 UNL     1     -38.114  18.378 -16.526  1.00  0.00     0.046 C 
HETATM   24  C14 UNL     1     -37.554  16.430 -15.156  1.00  0.00     0.046 C 
ENDBRANCH  20  21
ENDBRANCH  17  20
ENDBRANCH  15  16
ENDBRANCH   1  15
BRANCH   1  25
HETATM   25  N3  UNL     1     -40.465  13.506 -20.867  1.00  0.00    -0.345 N 
HETATM   26  C15 UNL     1     -40.785  13.310 -22.220  1.00  0.00     0.236 C 
HETATM   27  O5  UNL     1     -41.904  12.826 -22.519  1.00  0.00    -0.272 OA
ATOM     28  H3  UNL     1     -39.549  13.902 -20.656  1.00  0.00     0.163 HD
BRANCH  26  29
HETATM   29  C16 UNL     1     -39.854  13.654 -23.319  1.00  0.00     0.170 C 
HETATM   30  C17 UNL     1     -39.575  15.140 -23.381  1.00  0.00     0.036 C 
HETATM   31 CL1  UNL     1     -38.307  12.792 -23.135  1.00  0.00    -0.115 Cl
ENDBRANCH  26  29
ENDBRANCH   1  25
TORSDOF 10
ENDMDL
