MODEL 1
REMARK VINA RESULT: -6.948805135      0.000      0.000
REMARK  6 active torsions:
REMARK  status: ('A' for Active; 'I' for Inactive)
REMARK    1  A    between atoms: N1_2  and  C3_4 
REMARK    2  A    between atoms: C4_7  and  N3_8 
REMARK    3  A    between atoms: N3_8  and  C5_10 
REMARK    4  A    between atoms: N7_21  and  C10_23 
REMARK    5  A    between atoms: C10_23  and  O1_24 
REMARK    6  A    between atoms: C10_23  and  N8_26 
REMARK       I    between atoms: N8_26  and  C11_29 
REMARK       I    between atoms: C11_29  and  N9_30 
REMARK       I    between atoms: C11_29  and  N10_34 
ROOT
HETATM    1  C3  UNL     1      31.887  41.838   7.666  1.00  0.00     0.708 A 
HETATM    2  N2  UNL     1      31.940  40.607   8.184  1.00  0.00    -0.021 N 
ATOM      3  H2  UNL     1      32.388  40.482   9.093  1.00  0.00     0.203 HD
HETATM    4  C4  UNL     1      31.433  39.524   7.567  1.00  0.00     0.713 A 
HETATM    5  N6  UNL     1      30.849  39.722   6.371  1.00  0.00    -0.021 N 
ATOM      6  H6  UNL     1      30.456  38.919   5.881  1.00  0.00     0.203 HD
HETATM    7  C9  UNL     1      30.764  40.936   5.796  1.00  0.00     0.710 A 
HETATM    8  N7  UNL     1      30.218  41.161   4.665  1.00  0.00    -0.173 N 
ATOM      9  H7  UNL     1      30.218  42.129   4.341  1.00  0.00     0.182 HD
HETATM   10  N11 UNL     1      31.297  42.001   6.468  1.00  0.00    -0.021 N 
ATOM     11  H11 UNL     1      31.245  42.932   6.055  1.00  0.00     0.203 HD
ENDROOT
BRANCH   8  12
HETATM   12  C10 UNL     1      29.610  40.203   3.811  1.00  0.00     0.445 C 
BRANCH  12  13
HETATM   13  O1  UNL     1      28.935  39.255   4.579  1.00  0.00    -0.354 OA
ATOM     14  H1  UNL     1      28.018  39.495   4.645  1.00  0.00     0.214 HD
ENDBRANCH  12  13
BRANCH  12  15
HETATM   15  N8  UNL     1      28.683  40.808   2.901  1.00  0.00     0.024 N 
HETATM   16  C11 UNL     1      29.124  40.704   1.533  1.00  0.00     0.579 C 
HETATM   17  N9  UNL     1      28.181  41.395   0.655  1.00  0.00    -0.026 N 
HETATM   18  N10 UNL     1      29.134  39.277   1.166  1.00  0.00    -0.026 N 
ATOM     19  H93 UNL     1      27.226  41.058   0.777  1.00  0.00     0.278 HD
ATOM     20  H92 UNL     1      28.034  42.363   0.938  1.00  0.00     0.278 HD
ATOM     21  H91 UNL     1      28.493  41.321  -0.314  1.00  0.00     0.278 HD
ATOM     22 3H10 UNL     1      29.692  38.709   1.805  1.00  0.00     0.278 HD
ATOM     23 2H10 UNL     1      28.235  38.822   1.328  1.00  0.00     0.278 HD
ATOM     24 1H10 UNL     1      29.446  39.203   0.198  1.00  0.00     0.278 HD
ATOM     25  H82 UNL     1      27.745  40.425   3.019  1.00  0.00     0.287 HD
ATOM     26  H81 UNL     1      28.493  41.777   3.156  1.00  0.00     0.287 HD
ENDBRANCH  12  15
ENDBRANCH   8  12
BRANCH   4  27
HETATM   27  N3  UNL     1      31.509  38.334   8.115  1.00  0.00    -0.174 N 
ATOM     28  H3  UNL     1      31.380  37.502   7.540  1.00  0.00     0.186 HD
BRANCH  27  29
HETATM   29  C5  UNL     1      31.767  38.202   9.494  1.00  0.00     0.136 A 
HETATM   30  C6  UNL     1      32.641  37.208   9.895  1.00  0.00     0.137 A 
HETATM   31  N4  UNL     1      32.914  37.050  11.215  1.00  0.00    -0.371 N 
HETATM   32  C7  UNL     1      32.301  37.891  12.068  1.00  0.00     0.104 A 
ATOM     33  H4  UNL     1      33.553  36.328  11.544  1.00  0.00     0.164 HD
HETATM   34  C8  UNL     1      31.435  38.874  11.667  1.00  0.00     0.106 A 
HETATM   35  N5  UNL     1      31.165  39.031  10.362  1.00  0.00    -0.349 N 
ATOM     36  H5  UNL     1      30.525  39.756  10.040  1.00  0.00     0.166 HD
ENDBRANCH  27  29
ENDBRANCH   4  27
BRANCH   1  37
HETATM   37  N1  UNL     1      32.450  42.964   8.375  1.00  0.00    -0.225 N 
HETATM   38  C1  UNL     1      31.713  43.537   9.489  1.00  0.00     0.168 C 
HETATM   39  C2  UNL     1      33.709  43.530   8.013  1.00  0.00     0.168 C 
ENDBRANCH   1  37
TORSDOF 6
ENDMDL
MODEL 2
REMARK VINA RESULT: -6.916339923      1.515      4.270
REMARK  6 active torsions:
REMARK  status: ('A' for Active; 'I' for Inactive)
REMARK    1  A    between atoms: N1_2  and  C3_4 
REMARK    2  A    between atoms: C4_7  and  N3_8 
REMARK    3  A    between atoms: N3_8  and  C5_10 
REMARK    4  A    between atoms: N7_21  and  C10_23 
REMARK    5  A    between atoms: C10_23  and  O1_24 
REMARK    6  A    between atoms: C10_23  and  N8_26 
REMARK       I    between atoms: N8_26  and  C11_29 
REMARK       I    between atoms: C11_29  and  N9_30 
REMARK       I    between atoms: C11_29  and  N10_34 
ROOT
HETATM    1  C3  UNL     1      31.369  40.021   8.474  1.00  0.00     0.708 A 
HETATM    2  N2  UNL     1      31.675  41.314   8.621  1.00  0.00    -0.021 N 
ATOM      3  H2  UNL     1      32.049  41.625   9.518  1.00  0.00     0.203 HD
HETATM    4  C4  UNL     1      31.513  42.226   7.645  1.00  0.00     0.713 A 
HETATM    5  N6  UNL     1      31.018  41.785   6.475  1.00  0.00    -0.021 N 
ATOM      6  H6  UNL     1      30.885  42.455   5.717  1.00  0.00     0.203 HD
HETATM    7  C9  UNL     1      30.691  40.496   6.264  1.00  0.00     0.710 A 
HETATM    8  N7  UNL     1      30.219  40.042   5.169  1.00  0.00    -0.173 N 
ATOM      9  H7  UNL     1      30.013  39.044   5.137  1.00  0.00     0.182 HD
HETATM   10  N11 UNL     1      30.875  39.613   7.291  1.00  0.00    -0.021 N 
ATOM     11  H11 UNL     1      30.635  38.630   7.157  1.00  0.00     0.203 HD
ENDROOT
BRANCH   8  12
HETATM   12  C10 UNL     1      29.953  40.785   3.987  1.00  0.00     0.445 C 
BRANCH  12  13
HETATM   13  O1  UNL     1      31.039  41.611   3.700  1.00  0.00    -0.354 OA
ATOM     14  H1  UNL     1      31.840  41.101   3.725  1.00  0.00     0.214 HD
ENDBRANCH  12  13
BRANCH  12  15
HETATM   15  N8  UNL     1      29.709  39.932   2.862  1.00  0.00     0.024 N 
HETATM   16  C11 UNL     1      28.832  40.547   1.899  1.00  0.00     0.579 C 
HETATM   17  N9  UNL     1      28.561  39.612   0.808  1.00  0.00    -0.026 N 
HETATM   18  N10 UNL     1      29.523  41.721   1.338  1.00  0.00    -0.026 N 
ATOM     19  H93 UNL     1      29.418  39.265   0.378  1.00  0.00     0.278 HD
ATOM     20  H92 UNL     1      28.194  38.723   1.147  1.00  0.00     0.278 HD
ATOM     21  H91 UNL     1      27.940  40.048   0.125  1.00  0.00     0.278 HD
ATOM     22 3H10 UNL     1      29.839  42.373   2.057  1.00  0.00     0.278 HD
ATOM     23 2H10 UNL     1      30.438  41.492   0.949  1.00  0.00     0.278 HD
ATOM     24 1H10 UNL     1      28.901  42.157   0.656  1.00  0.00     0.278 HD
ATOM     25  H82 UNL     1      30.582  39.632   2.429  1.00  0.00     0.287 HD
ATOM     26  H81 UNL     1      29.356  39.022   3.156  1.00  0.00     0.287 HD
ENDBRANCH  12  15
ENDBRANCH   8  12
BRANCH   4  27
HETATM   27  N3  UNL     1      31.828  43.486   7.836  1.00  0.00    -0.174 N 
ATOM     28  H3  UNL     1      31.228  44.221   7.463  1.00  0.00     0.186 HD
BRANCH  27  29
HETATM   29  C5  UNL     1      32.992  43.827   8.553  1.00  0.00     0.136 A 
HETATM   30  C6  UNL     1      34.208  43.717   7.904  1.00  0.00     0.137 A 
HETATM   31  N4  UNL     1      35.349  44.036   8.563  1.00  0.00    -0.371 N 
HETATM   32  C7  UNL     1      35.222  44.449   9.837  1.00  0.00     0.104 A 
ATOM     33  H4  UNL     1      36.262  43.966   8.114  1.00  0.00     0.164 HD
HETATM   34  C8  UNL     1      34.016  44.556  10.478  1.00  0.00     0.106 A 
HETATM   35  N5  UNL     1      32.886  44.241   9.826  1.00  0.00    -0.349 N 
ATOM     36  H5  UNL     1      31.977  44.314  10.282  1.00  0.00     0.166 HD
ENDBRANCH  27  29
ENDBRANCH   4  27
BRANCH   1  37
HETATM   37  N1  UNL     1      31.563  39.087   9.559  1.00  0.00    -0.225 N 
HETATM   38  C1  UNL     1      31.113  39.450  10.892  1.00  0.00     0.168 C 
HETATM   39  C2  UNL     1      32.185  37.818   9.360  1.00  0.00     0.168 C 
ENDBRANCH   1  37
TORSDOF 6
ENDMDL
MODEL 3
REMARK VINA RESULT: -6.799100730      2.820      7.521
REMARK  6 active torsions:
REMARK  status: ('A' for Active; 'I' for Inactive)
REMARK    1  A    between atoms: N1_2  and  C3_4 
REMARK    2  A    between atoms: C4_7  and  N3_8 
REMARK    3  A    between atoms: N3_8  and  C5_10 
REMARK    4  A    between atoms: N7_21  and  C10_23 
REMARK    5  A    between atoms: C10_23  and  O1_24 
REMARK    6  A    between atoms: C10_23  and  N8_26 
REMARK       I    between atoms: N8_26  and  C11_29 
REMARK       I    between atoms: C11_29  and  N9_30 
REMARK       I    between atoms: C11_29  and  N10_34 
ROOT
HETATM    1  C3  UNL     1      30.122  40.001  10.104  1.00  0.00     0.708 A 
HETATM    2  N2  UNL     1      29.878  39.604   8.851  1.00  0.00    -0.021 N 
ATOM      3  H2  UNL     1      29.167  40.103   8.314  1.00  0.00     0.203 HD
HETATM    4  C4  UNL     1      30.521  38.580   8.261  1.00  0.00     0.713 A 
HETATM    5  N6  UNL     1      31.452  37.943   8.995  1.00  0.00    -0.021 N 
ATOM      6  H6  UNL     1      31.957  37.163   8.574  1.00  0.00     0.203 HD
HETATM    7  C9  UNL     1      31.745  38.294  10.262  1.00  0.00     0.710 A 
HETATM    8  N7  UNL     1      32.620  37.714  10.986  1.00  0.00    -0.173 N 
ATOM      9  H7  UNL     1      32.747  38.077  11.931  1.00  0.00     0.182 HD
HETATM   10  N11 UNL     1      31.059  39.342  10.810  1.00  0.00    -0.021 N 
ATOM     11  H11 UNL     1      31.261  39.628  11.768  1.00  0.00     0.203 HD
ENDROOT
BRANCH   8  12
HETATM   12  C10 UNL     1      33.437  36.613  10.612  1.00  0.00     0.445 C 
BRANCH  12  13
HETATM   13  O1  UNL     1      33.815  36.745   9.277  1.00  0.00    -0.354 OA
ATOM     14  H1  UNL     1      34.660  36.331   9.144  1.00  0.00     0.214 HD
ENDBRANCH  12  13
BRANCH  12  15
HETATM   15  N8  UNL     1      34.616  36.522  11.421  1.00  0.00     0.024 N 
HETATM   16  C11 UNL     1      34.905  35.163  11.803  1.00  0.00     0.579 C 
HETATM   17  N9  UNL     1      36.074  35.133  12.681  1.00  0.00    -0.026 N 
HETATM   18  N10 UNL     1      35.227  34.406  10.581  1.00  0.00    -0.026 N 
ATOM     19  H93 UNL     1      36.881  35.593  12.260  1.00  0.00     0.278 HD
ATOM     20  H92 UNL     1      35.960  35.742  13.490  1.00  0.00     0.278 HD
ATOM     21  H91 UNL     1      36.278  34.170  12.951  1.00  0.00     0.278 HD
ATOM     22 3H10 UNL     1      34.496  34.470   9.872  1.00  0.00     0.278 HD
ATOM     23 2H10 UNL     1      35.980  34.833  10.039  1.00  0.00     0.278 HD
ATOM     24 1H10 UNL     1      35.432  33.444  10.851  1.00  0.00     0.278 HD
ATOM     25  H82 UNL     1      35.416  36.955  10.960  1.00  0.00     0.287 HD
ATOM     26  H81 UNL     1      34.554  37.130  12.238  1.00  0.00     0.287 HD
ENDBRANCH  12  15
ENDBRANCH   8  12
BRANCH   4  27
HETATM   27  N3  UNL     1      30.248  38.227   7.028  1.00  0.00    -0.174 N 
ATOM     28  H3  UNL     1      30.089  37.244   6.805  1.00  0.00     0.186 HD
BRANCH  27  29
HETATM   29  C5  UNL     1      30.171  39.199   6.011  1.00  0.00     0.136 A 
HETATM   30  C6  UNL     1      31.057  40.259   6.061  1.00  0.00     0.137 A 
HETATM   31  N4  UNL     1      31.013  41.214   5.099  1.00  0.00    -0.371 N 
HETATM   32  C7  UNL     1      30.087  41.065   4.134  1.00  0.00     0.104 A 
ATOM     33  H4  UNL     1      31.652  42.008   5.107  1.00  0.00     0.164 HD
HETATM   34  C8  UNL     1      29.209  40.013   4.088  1.00  0.00     0.106 A 
HETATM   35  N5  UNL     1      29.253  39.067   5.039  1.00  0.00    -0.349 N 
ATOM     36  H5  UNL     1      28.611  38.276   5.025  1.00  0.00     0.166 HD
ENDBRANCH  27  29
ENDBRANCH   4  27
BRANCH   1  37
HETATM   37  N1  UNL     1      29.398  41.108  10.684  1.00  0.00    -0.225 N 
HETATM   38  C1  UNL     1      27.980  40.955  10.962  1.00  0.00     0.168 C 
HETATM   39  C2  UNL     1      30.034  42.347  10.991  1.00  0.00     0.168 C 
ENDBRANCH   1  37
TORSDOF 6
ENDMDL
MODEL 4
REMARK VINA RESULT: -6.779906740      1.508      4.307
REMARK  6 active torsions:
REMARK  status: ('A' for Active; 'I' for Inactive)
REMARK    1  A    between atoms: N1_2  and  C3_4 
REMARK    2  A    between atoms: C4_7  and  N3_8 
REMARK    3  A    between atoms: N3_8  and  C5_10 
REMARK    4  A    between atoms: N7_21  and  C10_23 
REMARK    5  A    between atoms: C10_23  and  O1_24 
REMARK    6  A    between atoms: C10_23  and  N8_26 
REMARK       I    between atoms: N8_26  and  C11_29 
REMARK       I    between atoms: C11_29  and  N9_30 
REMARK       I    between atoms: C11_29  and  N10_34 
ROOT
HETATM    1  C3  UNL     1      31.415  40.103   8.405  1.00  0.00     0.708 A 
HETATM    2  N2  UNL     1      31.795  41.380   8.512  1.00  0.00    -0.021 N 
ATOM      3  H2  UNL     1      32.204  41.692   9.393  1.00  0.00     0.203 HD
HETATM    4  C4  UNL     1      31.663  42.276   7.516  1.00  0.00     0.713 A 
HETATM    5  N6  UNL     1      31.121  41.834   6.368  1.00  0.00    -0.021 N 
ATOM      6  H6  UNL     1      31.009  42.491   5.595  1.00  0.00     0.203 HD
HETATM    7  C9  UNL     1      30.718  40.560   6.197  1.00  0.00     0.710 A 
HETATM    8  N7  UNL     1      30.200  40.106   5.123  1.00  0.00    -0.173 N 
ATOM      9  H7  UNL     1      29.938  39.120   5.122  1.00  0.00     0.182 HD
HETATM   10  N11 UNL     1      30.875  39.694   7.242  1.00  0.00    -0.021 N 
ATOM     11  H11 UNL     1      30.578  38.723   7.139  1.00  0.00     0.203 HD
ENDROOT
BRANCH   8  12
HETATM   12  C10 UNL     1      29.950  40.833   3.928  1.00  0.00     0.445 C 
BRANCH  12  13
HETATM   13  O1  UNL     1      31.044  41.648   3.640  1.00  0.00    -0.354 OA
ATOM     14  H1  UNL     1      31.605  41.214   3.007  1.00  0.00     0.214 HD
ENDBRANCH  12  13
BRANCH  12  15
HETATM   15  N8  UNL     1      29.713  39.964   2.813  1.00  0.00     0.024 N 
HETATM   16  C11 UNL     1      28.827  40.560   1.845  1.00  0.00     0.579 C 
HETATM   17  N9  UNL     1      28.563  39.611   0.765  1.00  0.00    -0.026 N 
HETATM   18  N10 UNL     1      29.504  41.735   1.270  1.00  0.00    -0.026 N 
ATOM     19  H93 UNL     1      29.423  39.267   0.337  1.00  0.00     0.278 HD
ATOM     20  H92 UNL     1      28.206  38.722   1.115  1.00  0.00     0.278 HD
ATOM     21  H91 UNL     1      27.935  40.032   0.080  1.00  0.00     0.278 HD
ATOM     22 3H10 UNL     1      29.816  42.398   1.980  1.00  0.00     0.278 HD
ATOM     23 2H10 UNL     1      30.421  41.511   0.881  1.00  0.00     0.278 HD
ATOM     24 1H10 UNL     1      28.877  42.156   0.585  1.00  0.00     0.278 HD
ATOM     25  H82 UNL     1      30.588  39.669   2.381  1.00  0.00     0.287 HD
ATOM     26  H81 UNL     1      29.369  39.054   3.118  1.00  0.00     0.287 HD
ENDBRANCH  12  15
ENDBRANCH   8  12
BRANCH   4  27
HETATM   27  N3  UNL     1      32.051  43.520   7.668  1.00  0.00    -0.174 N 
ATOM     28  H3  UNL     1      31.577  44.265   7.159  1.00  0.00     0.186 HD
BRANCH  27  29
HETATM   29  C5  UNL     1      33.120  43.831   8.532  1.00  0.00     0.136 A 
HETATM   30  C6  UNL     1      32.817  44.189   9.833  1.00  0.00     0.137 A 
HETATM   31  N4  UNL     1      33.820  44.496  10.693  1.00  0.00    -0.371 N 
HETATM   32  C7  UNL     1      35.075  44.431  10.213  1.00  0.00     0.104 A 
ATOM     33  H4  UNL     1      33.631  44.763  11.658  1.00  0.00     0.164 HD
HETATM   34  C8  UNL     1      35.372  44.077   8.923  1.00  0.00     0.106 A 
HETATM   35  N5  UNL     1      34.380  43.773   8.072  1.00  0.00    -0.349 N 
ATOM     36  H5  UNL     1      34.577  43.506   7.107  1.00  0.00     0.166 HD
ENDBRANCH  27  29
ENDBRANCH   4  27
BRANCH   1  37
HETATM   37  N1  UNL     1      31.580  39.187   9.510  1.00  0.00    -0.225 N 
HETATM   38  C1  UNL     1      31.166  39.603  10.839  1.00  0.00     0.168 C 
HETATM   39  C2  UNL     1      32.138  37.886   9.334  1.00  0.00     0.168 C 
ENDBRANCH   1  37
TORSDOF 6
ENDMDL
MODEL 5
REMARK VINA RESULT: -6.763418873      2.662      7.332
REMARK  6 active torsions:
REMARK  status: ('A' for Active; 'I' for Inactive)
REMARK    1  A    between atoms: N1_2  and  C3_4 
REMARK    2  A    between atoms: C4_7  and  N3_8 
REMARK    3  A    between atoms: N3_8  and  C5_10 
REMARK    4  A    between atoms: N7_21  and  C10_23 
REMARK    5  A    between atoms: C10_23  and  O1_24 
REMARK    6  A    between atoms: C10_23  and  N8_26 
REMARK       I    between atoms: N8_26  and  C11_29 
REMARK       I    between atoms: C11_29  and  N9_30 
REMARK       I    between atoms: C11_29  and  N10_34 
ROOT
HETATM    1  C3  UNL     1      29.482  40.658   9.618  1.00  0.00     0.708 A 
HETATM    2  N2  UNL     1      29.133  40.196   8.413  1.00  0.00    -0.021 N 
ATOM      3  H2  UNL     1      28.415  40.699   7.891  1.00  0.00     0.203 HD
HETATM    4  C4  UNL     1      29.680  39.101   7.855  1.00  0.00     0.713 A 
HETATM    5  N6  UNL     1      30.623  38.461   8.570  1.00  0.00    -0.021 N 
ATOM      6  H6  UNL     1      31.056  37.627   8.171  1.00  0.00     0.203 HD
HETATM    7  C9  UNL     1      31.019  38.875   9.788  1.00  0.00     0.710 A 
HETATM    8  N7  UNL     1      31.909  38.294  10.493  1.00  0.00    -0.173 N 
ATOM      9  H7  UNL     1      32.119  38.710  11.401  1.00  0.00     0.182 HD
HETATM   10  N11 UNL     1      30.428  39.994  10.306  1.00  0.00    -0.021 N 
ATOM     11  H11 UNL     1      30.709  40.329  11.228  1.00  0.00     0.203 HD
ENDROOT
BRANCH   8  12
HETATM   12  C10 UNL     1      32.639  37.126  10.144  1.00  0.00     0.445 C 
BRANCH  12  13
HETATM   13  O1  UNL     1      33.305  37.336   8.937  1.00  0.00    -0.354 OA
ATOM     14  H1  UNL     1      34.212  37.068   9.024  1.00  0.00     0.214 HD
ENDBRANCH  12  13
BRANCH  12  15
HETATM   15  N8  UNL     1      33.600  36.775  11.148  1.00  0.00     0.024 N 
HETATM   16  C11 UNL     1      33.245  37.304  12.441  1.00  0.00     0.579 C 
HETATM   17  N9  UNL     1      34.288  36.978  13.412  1.00  0.00    -0.026 N 
HETATM   18  N10 UNL     1      31.995  36.655  12.871  1.00  0.00    -0.026 N 
ATOM     19  H93 UNL     1      34.480  35.976  13.447  1.00  0.00     0.278 HD
ATOM     20  H92 UNL     1      35.208  37.294  13.107  1.00  0.00     0.278 HD
ATOM     21  H91 UNL     1      34.037  37.352  14.327  1.00  0.00     0.278 HD
ATOM     22 3H10 UNL     1      31.244  36.751  12.187  1.00  0.00     0.278 HD
ATOM     23 2H10 UNL     1      32.057  35.636  12.865  1.00  0.00     0.278 HD
ATOM     24 1H10 UNL     1      31.744  37.030  13.786  1.00  0.00     0.278 HD
ATOM     25  H82 UNL     1      33.742  35.766  11.187  1.00  0.00     0.287 HD
ATOM     26  H81 UNL     1      34.541  37.059  10.877  1.00  0.00     0.287 HD
ENDBRANCH  12  15
ENDBRANCH   8  12
BRANCH   4  27
HETATM   27  N3  UNL     1      29.305  38.685   6.669  1.00  0.00    -0.174 N 
ATOM     28  H3  UNL     1      28.808  37.800   6.575  1.00  0.00     0.186 HD
BRANCH  27  29
HETATM   29  C5  UNL     1      29.586  39.456   5.524  1.00  0.00     0.136 A 
HETATM   30  C6  UNL     1      30.674  40.308   5.569  1.00  0.00     0.137 A 
HETATM   31  N4  UNL     1      30.975  41.066   4.485  1.00  0.00    -0.371 N 
HETATM   32  C7  UNL     1      30.176  40.939   3.411  1.00  0.00     0.104 A 
ATOM     33  H4  UNL     1      31.770  41.704   4.485  1.00  0.00     0.164 HD
HETATM   34  C8  UNL     1      29.097  40.094   3.370  1.00  0.00     0.106 A 
HETATM   35  N5  UNL     1      28.799  39.343   4.442  1.00  0.00    -0.349 N 
ATOM     36  H5  UNL     1      28.002  38.707   4.434  1.00  0.00     0.166 HD
ENDBRANCH  27  29
ENDBRANCH   4  27
BRANCH   1  37
HETATM   37  N1  UNL     1      28.858  41.841  10.167  1.00  0.00    -0.225 N 
HETATM   38  C1  UNL     1      27.411  41.880  10.293  1.00  0.00     0.168 C 
HETATM   39  C2  UNL     1      29.621  42.970  10.587  1.00  0.00     0.168 C 
ENDBRANCH   1  37
TORSDOF 6
ENDMDL
