MODEL 1
REMARK VINA RESULT: -6.968269016      0.000      0.000
REMARK  13 active torsions:
REMARK  status: ('A' for Active; 'I' for Inactive)
REMARK    1  A    between atoms: C2_3  and  N2_4 
REMARK    2  A    between atoms: N2_4  and  C3_6 
REMARK    3  A    between atoms: C4_9  and  N4_10 
REMARK       I    between atoms: N5_13  and  C5_14 
REMARK    4  A    between atoms: C5_14  and  C6_16 
REMARK    5  A    between atoms: C6_16  and  O2_17 
REMARK    6  A    between atoms: C6_16  and  O3_19 
REMARK    7  A    between atoms: C7_25  and  N8_26 
REMARK    8  A    between atoms: C8_31  and  O4_32 
REMARK    9  A    between atoms: O4_32  and  C9_33 
REMARK   10  A    between atoms: C9_33  and  C10_34 
REMARK   11  A    between atoms: C10_34  and  C11_35 
REMARK   12  A    between atoms: C11_35  and  O6_37 
REMARK   13  A    between atoms: O6_37  and  C12_38 
ROOT
HETATM    1  C1  UNL     1      31.125  43.122   6.941  1.00  0.00     0.179 C 
HETATM    2  N1  UNL     1      30.609  41.886   6.431  1.00  0.00    -0.149 N 
HETATM    3  C2  UNL     1      30.948  40.742   7.037  1.00  0.00     0.716 A 
HETATM    4  N7  UNL     1      30.459  39.595   6.550  1.00  0.00    -0.022 N 
ATOM      5  H7  UNL     1      30.706  38.712   6.997  1.00  0.00     0.203 HD
HETATM    6  C7  UNL     1      29.635  39.595   5.461  1.00  0.00     0.693 A 
HETATM    7  N9  UNL     1      29.318  40.778   4.877  1.00  0.00    -0.154 N 
ATOM      8  H9  UNL     1      28.702  40.790   4.063  1.00  0.00     0.188 HD
HETATM    9  C8  UNL     1      29.801  41.929   5.356  1.00  0.00     0.254 A 
ENDROOT
BRANCH   3  10
HETATM   10  N2  UNL     1      31.798  40.764   8.157  1.00  0.00    -0.019 N 
ATOM     11  H2  UNL     1      32.761  41.058   7.995  1.00  0.00     0.203 HD
BRANCH  10  12
HETATM   12  C3  UNL     1      31.488  40.456   9.345  1.00  0.00     0.727 A 
HETATM   13  N3  UNL     1      30.733  41.205  10.155  1.00  0.00    -0.019 N 
HETATM   14  C4  UNL     1      30.598  40.598  11.335  1.00  0.00     0.715 A 
ATOM     15  H3  UNL     1      30.323  42.105   9.908  1.00  0.00     0.203 HD
HETATM   16  N5  UNL     1      31.292  39.403  11.294  1.00  0.00    -0.032 N 
HETATM   17  C5  UNL     1      31.363  38.501  12.378  1.00  0.00     0.314 C 
HETATM   18  N6  UNL     1      31.805  39.366  10.085  1.00  0.00    -0.107 N 
HETATM   19  O1  UNL     1      30.743  38.820  13.457  1.00  0.00    -0.265 OA
ATOM     20  H6  UNL     1      32.382  38.599   9.740  1.00  0.00     0.207 HD
BRANCH  14  21
HETATM   21  N4  UNL     1      29.932  41.032  12.366  1.00  0.00    -0.232 N 
ATOM     22  H42 UNL     1      30.134  41.899  12.865  1.00  0.00     0.174 HD
ATOM     23  H41 UNL     1      29.132  40.582  12.813  1.00  0.00     0.174 HD
ENDBRANCH  14  21
BRANCH  17  24
HETATM   24  C6  UNL     1      32.076  37.240  12.387  1.00  0.00     0.351 C 
BRANCH  24  25
HETATM   25  O2  UNL     1      32.240  36.722  11.124  1.00  0.00    -0.363 OA
ATOM     26  H2  UNL     1      32.493  35.806  11.138  1.00  0.00     0.213 HD
ENDBRANCH  24  25
BRANCH  24  27
HETATM   27  O3  UNL     1      31.270  36.311  13.088  1.00  0.00    -0.363 OA
ATOM     28  H3  UNL     1      30.496  36.157  12.559  1.00  0.00     0.213 HD
ENDBRANCH  24  27
ENDBRANCH  17  24
ENDBRANCH  10  12
ENDBRANCH   3  10
BRANCH   9  29
HETATM   29  O4  UNL     1      29.482  43.135   4.767  1.00  0.00    -0.321 OA
BRANCH  29  30
HETATM   30  C9  UNL     1      28.272  43.226   4.051  1.00  0.00     0.188 C 
BRANCH  30  31
HETATM   31  C10 UNL     1      28.482  43.753   2.651  1.00  0.00     0.138 C 
BRANCH  31  32
HETATM   32  C11 UNL     1      29.083  42.693   1.804  1.00  0.00     0.268 C 
HETATM   33  O5  UNL     1      30.296  42.688   1.593  1.00  0.00    -0.265 OA
BRANCH  32  34
HETATM   34  O6  UNL     1      28.272  41.735   1.273  1.00  0.00    -0.248 OA
BRANCH  34  35
HETATM   35  C12 UNL     1      28.323  40.398   1.571  1.00  0.00     0.232 C 
HETATM   36  N10 UNL     1      29.076  39.582   1.012  1.00  0.00    -0.367 N 
ATOM     37 2H10 UNL     1      29.717  39.876   0.275  1.00  0.00     0.159 HD
ATOM     38 1H10 UNL     1      29.114  38.586   1.233  1.00  0.00     0.159 HD
HETATM   39  N11 UNL     1      27.409  39.979   2.621  1.00  0.00    -0.056 NA
ENDBRANCH  34  35
ENDBRANCH  32  34
ENDBRANCH  31  32
ENDBRANCH  30  31
ENDBRANCH  29  30
ENDBRANCH   9  29
BRANCH   6  40
HETATM   40  N8  UNL     1      29.143  38.527   4.958  1.00  0.00    -0.234 N 
ATOM     41  H82 UNL     1      29.021  37.722   5.572  1.00  0.00     0.174 HD
ATOM     42  H81 UNL     1      28.871  38.447   3.978  1.00  0.00     0.174 HD
ENDBRANCH   6  40
TORSDOF 13
ENDMDL
MODEL 2
REMARK VINA RESULT: -6.900505678      2.278      8.857
REMARK  13 active torsions:
REMARK  status: ('A' for Active; 'I' for Inactive)
REMARK    1  A    between atoms: C2_3  and  N2_4 
REMARK    2  A    between atoms: N2_4  and  C3_6 
REMARK    3  A    between atoms: C4_9  and  N4_10 
REMARK       I    between atoms: N5_13  and  C5_14 
REMARK    4  A    between atoms: C5_14  and  C6_16 
REMARK    5  A    between atoms: C6_16  and  O2_17 
REMARK    6  A    between atoms: C6_16  and  O3_19 
REMARK    7  A    between atoms: C7_25  and  N8_26 
REMARK    8  A    between atoms: C8_31  and  O4_32 
REMARK    9  A    between atoms: O4_32  and  C9_33 
REMARK   10  A    between atoms: C9_33  and  C10_34 
REMARK   11  A    between atoms: C10_34  and  C11_35 
REMARK   12  A    between atoms: C11_35  and  O6_37 
REMARK   13  A    between atoms: O6_37  and  C12_38 
ROOT
HETATM    1  C1  UNL     1      29.848  42.797   6.366  1.00  0.00     0.179 C 
HETATM    2  N1  UNL     1      29.750  41.387   6.605  1.00  0.00    -0.149 N 
HETATM    3  C2  UNL     1      30.158  40.538   5.654  1.00  0.00     0.716 A 
HETATM    4  N7  UNL     1      30.060  39.224   5.890  1.00  0.00    -0.022 N 
ATOM      5  H7  UNL     1      30.365  38.560   5.179  1.00  0.00     0.203 HD
HETATM    6  C7  UNL     1      29.557  38.764   7.073  1.00  0.00     0.693 A 
HETATM    7  N9  UNL     1      29.155  39.660   8.010  1.00  0.00    -0.154 N 
ATOM      8  H9  UNL     1      28.778  39.327   8.897  1.00  0.00     0.188 HD
HETATM    9  C8  UNL     1      29.248  40.974   7.783  1.00  0.00     0.254 A 
ENDROOT
BRANCH   3  10
HETATM   10  N2  UNL     1      30.673  41.033   4.443  1.00  0.00    -0.019 N 
ATOM     11  H2  UNL     1      31.642  41.352   4.454  1.00  0.00     0.203 HD
BRANCH  10  12
HETATM   12  C3  UNL     1      30.056  41.123   3.341  1.00  0.00     0.727 A 
HETATM   13  N3  UNL     1      29.322  40.147   2.796  1.00  0.00    -0.019 N 
HETATM   14  C4  UNL     1      28.808  40.563   1.637  1.00  0.00     0.715 A 
ATOM     15  H3  UNL     1      29.177  39.225   3.205  1.00  0.00     0.203 HD
HETATM   16  N5  UNL     1      29.222  41.863   1.417  1.00  0.00    -0.032 N 
HETATM   17  C5  UNL     1      28.863  42.618   0.279  1.00  0.00     0.314 C 
HETATM   18  N6  UNL     1      29.964  42.150   2.462  1.00  0.00    -0.107 N 
HETATM   19  O1  UNL     1      28.108  42.052  -0.593  1.00  0.00    -0.265 OA
ATOM     20  H6  UNL     1      30.423  43.051   2.598  1.00  0.00     0.207 HD
BRANCH  14  21
HETATM   21  N4  UNL     1      28.044  39.882   0.832  1.00  0.00    -0.232 N 
ATOM     22  H42 UNL     1      27.028  39.828   0.904  1.00  0.00     0.174 HD
ATOM     23  H41 UNL     1      28.342  39.320   0.034  1.00  0.00     0.174 HD
ENDBRANCH  14  21
BRANCH  17  24
HETATM   24  C6  UNL     1      29.270  43.979   0.000  1.00  0.00     0.351 C 
BRANCH  24  25
HETATM   25  O2  UNL     1      29.192  44.287  -1.337  1.00  0.00    -0.363 OA
ATOM     26  H2  UNL     1      29.571  45.135  -1.537  1.00  0.00     0.213 HD
ENDBRANCH  24  25
BRANCH  24  27
HETATM   27  O3  UNL     1      30.638  44.085   0.345  1.00  0.00    -0.363 OA
ATOM     28  H3  UNL     1      30.974  44.867  -0.077  1.00  0.00     0.213 HD
ENDBRANCH  24  27
ENDBRANCH  17  24
ENDBRANCH  10  12
ENDBRANCH   3  10
BRANCH   9  29
HETATM   29  O4  UNL     1      28.841  41.890   8.731  1.00  0.00    -0.321 OA
BRANCH  29  30
HETATM   30  C9  UNL     1      29.436  41.837  10.007  1.00  0.00     0.188 C 
BRANCH  30  31
HETATM   31  C10 UNL     1      30.904  42.190   9.961  1.00  0.00     0.138 C 
BRANCH  31  32
HETATM   32  C11 UNL     1      31.711  41.022  10.394  1.00  0.00     0.268 C 
HETATM   33  O5  UNL     1      32.892  41.173  10.709  1.00  0.00    -0.265 OA
BRANCH  32  34
HETATM   34  O6  UNL     1      31.123  39.794  10.436  1.00  0.00    -0.248 OA
BRANCH  34  35
HETATM   35  C12 UNL     1      31.785  38.602  10.580  1.00  0.00     0.232 C 
HETATM   36  N10 UNL     1      32.378  38.249  11.615  1.00  0.00    -0.367 N 
ATOM     37 2H10 UNL     1      32.402  38.849  12.439  1.00  0.00     0.159 HD
ATOM     38 1H10 UNL     1      32.871  37.362  11.723  1.00  0.00     0.159 HD
HETATM   39  N11 UNL     1      31.750  37.746   9.406  1.00  0.00    -0.056 NA
ENDBRANCH  34  35
ENDBRANCH  32  34
ENDBRANCH  31  32
ENDBRANCH  30  31
ENDBRANCH  29  30
ENDBRANCH   9  29
BRANCH   6  40
HETATM   40  N8  UNL     1      29.443  37.520   7.346  1.00  0.00    -0.234 N 
ATOM     41  H82 UNL     1      29.466  36.856   6.572  1.00  0.00     0.174 HD
ATOM     42  H81 UNL     1      29.332  37.166   8.297  1.00  0.00     0.174 HD
ENDBRANCH   6  40
TORSDOF 13
ENDMDL
MODEL 3
REMARK VINA RESULT: -6.803338603      2.173      3.133
REMARK  13 active torsions:
REMARK  status: ('A' for Active; 'I' for Inactive)
REMARK    1  A    between atoms: C2_3  and  N2_4 
REMARK    2  A    between atoms: N2_4  and  C3_6 
REMARK    3  A    between atoms: C4_9  and  N4_10 
REMARK       I    between atoms: N5_13  and  C5_14 
REMARK    4  A    between atoms: C5_14  and  C6_16 
REMARK    5  A    between atoms: C6_16  and  O2_17 
REMARK    6  A    between atoms: C6_16  and  O3_19 
REMARK    7  A    between atoms: C7_25  and  N8_26 
REMARK    8  A    between atoms: C8_31  and  O4_32 
REMARK    9  A    between atoms: O4_32  and  C9_33 
REMARK   10  A    between atoms: C9_33  and  C10_34 
REMARK   11  A    between atoms: C10_34  and  C11_35 
REMARK   12  A    between atoms: C11_35  and  O6_37 
REMARK   13  A    between atoms: O6_37  and  C12_38 
ROOT
HETATM    1  C1  UNL     1      29.681  38.321   6.412  1.00  0.00     0.179 C 
HETATM    2  N1  UNL     1      30.474  39.477   6.710  1.00  0.00    -0.149 N 
HETATM    3  C2  UNL     1      31.013  39.598   7.928  1.00  0.00     0.716 A 
HETATM    4  N7  UNL     1      31.750  40.683   8.194  1.00  0.00    -0.022 N 
ATOM      5  H7  UNL     1      32.170  40.795   9.116  1.00  0.00     0.203 HD
HETATM    6  C7  UNL     1      31.946  41.642   7.241  1.00  0.00     0.693 A 
HETATM    7  N9  UNL     1      31.381  41.479   6.018  1.00  0.00    -0.154 N 
ATOM      8  H9  UNL     1      31.522  42.189   5.299  1.00  0.00     0.188 HD
HETATM    9  C8  UNL     1      30.643  40.399   5.744  1.00  0.00     0.254 A 
ENDROOT
BRANCH   3  10
HETATM   10  N2  UNL     1      30.798  38.600   8.894  1.00  0.00    -0.019 N 
ATOM     11  H2  UNL     1      29.997  37.984   8.747  1.00  0.00     0.203 HD
BRANCH  10  12
HETATM   12  C3  UNL     1      31.498  38.387   9.928  1.00  0.00     0.727 A 
HETATM   13  N3  UNL     1      31.338  39.012  11.098  1.00  0.00    -0.019 N 
HETATM   14  C4  UNL     1      32.233  38.559  11.978  1.00  0.00     0.715 A 
ATOM     15  H3  UNL     1      30.638  39.728  11.290  1.00  0.00     0.203 HD
HETATM   16  N5  UNL     1      33.008  37.597  11.357  1.00  0.00    -0.032 N 
HETATM   17  C5  UNL     1      34.058  36.904  11.997  1.00  0.00     0.314 C 
HETATM   18  N6  UNL     1      32.529  37.532  10.135  1.00  0.00    -0.107 N 
HETATM   19  O1  UNL     1      34.296  37.192  13.226  1.00  0.00    -0.265 OA
ATOM     20  H6  UNL     1      32.894  36.905   9.419  1.00  0.00     0.207 HD
BRANCH  14  21
HETATM   21  N4  UNL     1      32.374  38.938  13.216  1.00  0.00    -0.232 N 
ATOM     22  H42 UNL     1      31.606  39.069  13.873  1.00  0.00     0.174 HD
ATOM     23  H41 UNL     1      33.249  39.153  13.694  1.00  0.00     0.174 HD
ENDBRANCH  14  21
BRANCH  17  24
HETATM   24  C6  UNL     1      34.898  35.891  11.393  1.00  0.00     0.351 C 
BRANCH  24  25
HETATM   25  O2  UNL     1      34.379  35.415  10.213  1.00  0.00    -0.363 OA
ATOM     26  H2  UNL     1      34.769  34.588   9.952  1.00  0.00     0.213 HD
ENDBRANCH  24  25
BRANCH  24  27
HETATM   27  O3  UNL     1      34.924  34.788  12.280  1.00  0.00    -0.363 OA
ATOM     28  H3  UNL     1      34.643  34.025  11.787  1.00  0.00     0.213 HD
ENDBRANCH  24  27
ENDBRANCH  17  24
ENDBRANCH  10  12
ENDBRANCH   3  10
BRANCH   9  29
HETATM   29  O4  UNL     1      30.066  40.228   4.503  1.00  0.00    -0.321 OA
BRANCH  29  30
HETATM   30  C9  UNL     1      29.467  41.345   3.888  1.00  0.00     0.188 C 
BRANCH  30  31
HETATM   31  C10 UNL     1      28.450  40.939   2.846  1.00  0.00     0.138 C 
BRANCH  31  32
HETATM   32  C11 UNL     1      29.136  40.667   1.560  1.00  0.00     0.268 C 
HETATM   33  O5  UNL     1      29.176  39.519   1.114  1.00  0.00    -0.265 OA
BRANCH  32  34
HETATM   34  O6  UNL     1      29.715  41.702   0.889  1.00  0.00    -0.248 OA
BRANCH  34  35
HETATM   35  C12 UNL     1      29.049  42.782   0.369  1.00  0.00     0.232 C 
HETATM   36  N10 UNL     1      29.339  43.967   0.609  1.00  0.00    -0.367 N 
ATOM     37 2H10 UNL     1      30.114  44.206   1.228  1.00  0.00     0.159 HD
ATOM     38 1H10 UNL     1      28.843  44.771   0.223  1.00  0.00     0.159 HD
HETATM   39  N11 UNL     1      27.944  42.442  -0.512  1.00  0.00    -0.056 NA
ENDBRANCH  34  35
ENDBRANCH  32  34
ENDBRANCH  31  32
ENDBRANCH  30  31
ENDBRANCH  29  30
ENDBRANCH   9  29
BRANCH   6  40
HETATM   40  N8  UNL     1      32.642  42.696   7.445  1.00  0.00    -0.234 N 
ATOM     41  H82 UNL     1      32.599  43.126   8.368  1.00  0.00     0.174 HD
ATOM     42  H81 UNL     1      33.232  43.120   6.729  1.00  0.00     0.174 HD
ENDBRANCH   6  40
TORSDOF 13
ENDMDL
MODEL 4
REMARK VINA RESULT: -6.781122976      1.993      8.995
REMARK  13 active torsions:
REMARK  status: ('A' for Active; 'I' for Inactive)
REMARK    1  A    between atoms: C2_3  and  N2_4 
REMARK    2  A    between atoms: N2_4  and  C3_6 
REMARK    3  A    between atoms: C4_9  and  N4_10 
REMARK       I    between atoms: N5_13  and  C5_14 
REMARK    4  A    between atoms: C5_14  and  C6_16 
REMARK    5  A    between atoms: C6_16  and  O2_17 
REMARK    6  A    between atoms: C6_16  and  O3_19 
REMARK    7  A    between atoms: C7_25  and  N8_26 
REMARK    8  A    between atoms: C8_31  and  O4_32 
REMARK    9  A    between atoms: O4_32  and  C9_33 
REMARK   10  A    between atoms: C9_33  and  C10_34 
REMARK   11  A    between atoms: C10_34  and  C11_35 
REMARK   12  A    between atoms: C11_35  and  O6_37 
REMARK   13  A    between atoms: O6_37  and  C12_38 
ROOT
HETATM    1  C1  UNL     1      31.408  42.586   7.164  1.00  0.00     0.179 C 
HETATM    2  N1  UNL     1      30.872  41.260   7.255  1.00  0.00    -0.149 N 
HETATM    3  C2  UNL     1      30.673  40.562   6.132  1.00  0.00     0.716 A 
HETATM    4  N7  UNL     1      30.170  39.325   6.232  1.00  0.00    -0.022 N 
ATOM      5  H7  UNL     1      30.011  38.775   5.388  1.00  0.00     0.203 HD
HETATM    6  C7  UNL     1      29.869  38.792   7.453  1.00  0.00     0.693 A 
HETATM    7  N9  UNL     1      30.086  39.536   8.567  1.00  0.00    -0.154 N 
ATOM      8  H9  UNL     1      29.865  39.147   9.484  1.00  0.00     0.188 HD
HETATM    9  C8  UNL     1      30.587  40.772   8.477  1.00  0.00     0.254 A 
ENDROOT
BRANCH   3  10
HETATM   10  N2  UNL     1      30.989  41.129   4.886  1.00  0.00    -0.019 N 
ATOM     11  H2  UNL     1      31.899  41.586   4.808  1.00  0.00     0.203 HD
BRANCH  10  12
HETATM   12  C3  UNL     1      30.261  41.130   3.850  1.00  0.00     0.727 A 
HETATM   13  N3  UNL     1      29.395  40.165   3.525  1.00  0.00    -0.019 N 
HETATM   14  C4  UNL     1      28.789  40.470   2.377  1.00  0.00     0.715 A 
ATOM     15  H3  UNL     1      29.224  39.322   4.073  1.00  0.00     0.203 HD
HETATM   16  N5  UNL     1      29.278  41.685   1.933  1.00  0.00    -0.032 N 
HETATM   17  C5  UNL     1      28.854  42.312   0.742  1.00  0.00     0.314 C 
HETATM   18  N6  UNL     1      30.154  42.036   2.848  1.00  0.00    -0.107 N 
HETATM   19  O1  UNL     1      27.962  41.710   0.040  1.00  0.00    -0.265 OA
ATOM     20  H6  UNL     1      30.695  42.900   2.808  1.00  0.00     0.207 HD
BRANCH  14  21
HETATM   21  N4  UNL     1      27.887  39.764   1.757  1.00  0.00    -0.232 N 
ATOM     22  H42 UNL     1      27.934  39.497   0.774  1.00  0.00     0.174 HD
ATOM     23  H41 UNL     1      27.026  39.386   2.154  1.00  0.00     0.174 HD
ENDBRANCH  14  21
BRANCH  17  24
HETATM   24  C6  UNL     1      29.333  43.580   0.234  1.00  0.00     0.351 C 
BRANCH  24  25
HETATM   25  O2  UNL     1      29.120  43.719  -1.117  1.00  0.00    -0.363 OA
ATOM     26  H2  UNL     1      28.891  44.609  -1.359  1.00  0.00     0.213 HD
ENDBRANCH  24  25
BRANCH  24  27
HETATM   27  O3  UNL     1      30.738  43.596   0.410  1.00  0.00    -0.363 OA
ATOM     28  H3  UNL     1      31.126  43.326  -0.414  1.00  0.00     0.213 HD
ENDBRANCH  24  27
ENDBRANCH  17  24
ENDBRANCH  10  12
ENDBRANCH   3  10
BRANCH   9  29
HETATM   29  O4  UNL     1      30.810  41.533   9.605  1.00  0.00    -0.321 OA
BRANCH  29  30
HETATM   30  C9  UNL     1      31.800  41.105  10.512  1.00  0.00     0.188 C 
BRANCH  30  31
HETATM   31  C10 UNL     1      31.201  40.596  11.803  1.00  0.00     0.138 C 
BRANCH  31  32
HETATM   32  C11 UNL     1      31.605  39.184  12.015  1.00  0.00     0.268 C 
HETATM   33  O5  UNL     1      32.103  38.841  13.088  1.00  0.00    -0.265 OA
BRANCH  32  34
HETATM   34  O6  UNL     1      31.413  38.285  11.010  1.00  0.00    -0.248 OA
BRANCH  34  35
HETATM   35  C12 UNL     1      32.380  37.468  10.481  1.00  0.00     0.232 C 
HETATM   36  N10 UNL     1      33.104  36.712  11.151  1.00  0.00    -0.367 N 
ATOM     37 2H10 UNL     1      33.014  36.659  12.166  1.00  0.00     0.159 HD
ATOM     38 1H10 UNL     1      33.823  36.104  10.758  1.00  0.00     0.159 HD
HETATM   39  N11 UNL     1      32.509  37.544   9.035  1.00  0.00    -0.056 NA
ENDBRANCH  34  35
ENDBRANCH  32  34
ENDBRANCH  31  32
ENDBRANCH  30  31
ENDBRANCH  29  30
ENDBRANCH   9  29
BRANCH   6  40
HETATM   40  N8  UNL     1      29.388  37.616   7.601  1.00  0.00    -0.234 N 
ATOM     41  H82 UNL     1      29.036  37.135   6.773  1.00  0.00     0.174 HD
ATOM     42  H81 UNL     1      29.341  37.144   8.505  1.00  0.00     0.174 HD
ENDBRANCH   6  40
TORSDOF 13
ENDMDL
MODEL 5
REMARK VINA RESULT: -6.679326099      2.221      9.407
REMARK  13 active torsions:
REMARK  status: ('A' for Active; 'I' for Inactive)
REMARK    1  A    between atoms: C2_3  and  N2_4 
REMARK    2  A    between atoms: N2_4  and  C3_6 
REMARK    3  A    between atoms: C4_9  and  N4_10 
REMARK       I    between atoms: N5_13  and  C5_14 
REMARK    4  A    between atoms: C5_14  and  C6_16 
REMARK    5  A    between atoms: C6_16  and  O2_17 
REMARK    6  A    between atoms: C6_16  and  O3_19 
REMARK    7  A    between atoms: C7_25  and  N8_26 
REMARK    8  A    between atoms: C8_31  and  O4_32 
REMARK    9  A    between atoms: O4_32  and  C9_33 
REMARK   10  A    between atoms: C9_33  and  C10_34 
REMARK   11  A    between atoms: C10_34  and  C11_35 
REMARK   12  A    between atoms: C11_35  and  O6_37 
REMARK   13  A    between atoms: O6_37  and  C12_38 
ROOT
HETATM    1  C1  UNL     1      30.540  38.733   6.637  1.00  0.00     0.179 C 
HETATM    2  N1  UNL     1      29.857  39.983   6.798  1.00  0.00    -0.149 N 
HETATM    3  C2  UNL     1      29.714  40.785   5.737  1.00  0.00     0.716 A 
HETATM    4  N7  UNL     1      29.075  41.950   5.901  1.00  0.00    -0.022 N 
ATOM      5  H7  UNL     1      28.955  42.577   5.106  1.00  0.00     0.203 HD
HETATM    6  C7  UNL     1      28.582  42.308   7.124  1.00  0.00     0.693 A 
HETATM    7  N9  UNL     1      28.750  41.464   8.173  1.00  0.00    -0.154 N 
ATOM      8  H9  UNL     1      28.386  41.721   9.091  1.00  0.00     0.188 HD
HETATM    9  C8  UNL     1      29.387  40.299   8.018  1.00  0.00     0.254 A 
ENDROOT
BRANCH   3  10
HETATM   10  N2  UNL     1      30.228  40.398   4.487  1.00  0.00    -0.019 N 
ATOM     11  H2  UNL     1      31.050  39.793   4.497  1.00  0.00     0.203 HD
BRANCH  10  12
HETATM   12  C3  UNL     1      29.776  40.724   3.350  1.00  0.00     0.727 A 
HETATM   13  N3  UNL     1      29.017  39.940   2.578  1.00  0.00    -0.019 N 
HETATM   14  C4  UNL     1      28.710  40.580   1.449  1.00  0.00     0.715 A 
ATOM     15  H3  UNL     1      28.719  38.994   2.817  1.00  0.00     0.203 HD
HETATM   16  N5  UNL     1      29.290  41.834   1.485  1.00  0.00    -0.032 N 
HETATM   17  C5  UNL     1      29.169  42.784   0.448  1.00  0.00     0.314 C 
HETATM   18  N6  UNL     1      29.915  41.870   2.641  1.00  0.00    -0.107 N 
HETATM   19  O1  UNL     1      28.478  42.451  -0.583  1.00  0.00    -0.265 OA
ATOM     20  H6  UNL     1      30.448  42.676   2.969  1.00  0.00     0.207 HD
BRANCH  14  21
HETATM   21  N4  UNL     1      27.988  40.126   0.464  1.00  0.00    -0.232 N 
ATOM     22  H42 UNL     1      27.002  39.878   0.535  1.00  0.00     0.174 HD
ATOM     23  H41 UNL     1      28.296  39.959  -0.494  1.00  0.00     0.174 HD
ENDBRANCH  14  21
BRANCH  17  24
HETATM   24  C6  UNL     1      29.756  44.108   0.437  1.00  0.00     0.351 C 
BRANCH  24  25
HETATM   25  O2  UNL     1      31.099  44.084   0.143  1.00  0.00    -0.363 OA
ATOM     26  H2  UNL     1      31.270  44.206  -0.784  1.00  0.00     0.213 HD
ENDBRANCH  24  25
BRANCH  24  27
HETATM   27  O3  UNL     1      29.654  44.620   1.752  1.00  0.00    -0.363 OA
ATOM     28  H3  UNL     1      30.254  45.355   1.814  1.00  0.00     0.213 HD
ENDBRANCH  24  27
ENDBRANCH  17  24
ENDBRANCH  10  12
ENDBRANCH   3  10
BRANCH   9  29
HETATM   29  O4  UNL     1      29.562  39.437   9.081  1.00  0.00    -0.321 OA
BRANCH  29  30
HETATM   30  C9  UNL     1      30.300  39.890  10.192  1.00  0.00     0.188 C 
BRANCH  30  31
HETATM   31  C10 UNL     1      31.771  39.569  10.061  1.00  0.00     0.138 C 
BRANCH  31  32
HETATM   32  C11 UNL     1      32.043  38.232  10.645  1.00  0.00     0.268 C 
HETATM   33  O5  UNL     1      32.088  37.241   9.916  1.00  0.00    -0.265 OA
BRANCH  32  34
HETATM   34  O6  UNL     1      32.240  38.127  11.989  1.00  0.00    -0.248 OA
BRANCH  34  35
HETATM   35  C12 UNL     1      32.268  36.953  12.697  1.00  0.00     0.232 C 
HETATM   36  N10 UNL     1      33.281  36.247  12.844  1.00  0.00    -0.367 N 
ATOM     37 2H10 UNL     1      34.174  36.513  12.431  1.00  0.00     0.159 HD
ATOM     38 1H10 UNL     1      33.302  35.373  13.371  1.00  0.00     0.159 HD
HETATM   39  N11 UNL     1      30.995  36.574  13.286  1.00  0.00    -0.056 NA
ENDBRANCH  34  35
ENDBRANCH  32  34
ENDBRANCH  31  32
ENDBRANCH  30  31
ENDBRANCH  29  30
ENDBRANCH   9  29
BRANCH   6  40
HETATM   40  N8  UNL     1      27.965  43.408   7.333  1.00  0.00    -0.234 N 
ATOM     41  H82 UNL     1      28.523  44.247   7.493  1.00  0.00     0.174 HD
ATOM     42  H81 UNL     1      26.948  43.482   7.346  1.00  0.00     0.174 HD
ENDBRANCH   6  40
TORSDOF 13
ENDMDL
