MODEL 1
REMARK VINA RESULT: -7.010436840      0.000      0.000
REMARK  6 active torsions:
REMARK  status: ('A' for Active; 'I' for Inactive)
REMARK    1  A    between atoms: C4_8  and  N4_9 
REMARK    2  A    between atoms: N4_9  and  N5_11 
REMARK    3  A    between atoms: C5_13  and  C6_15 
REMARK    4  A    between atoms: C6_15  and  N7_16 
REMARK    5  A    between atoms: C9_23  and  N8_24 
REMARK    6  A    between atoms: N8_24  and  N9_26 
ROOT
HETATM    1  N1  UNL     1      29.366  39.653   1.554  1.00  0.00    -0.191 NA
HETATM    2  C1  UNL     1      29.342  40.336   2.514  1.00  0.00     0.105 C 
HETATM    3  C2  UNL     1      29.315  41.187   3.669  1.00  0.00     0.113 A 
HETATM    4  C3  UNL     1      29.063  42.557   3.541  1.00  0.00     0.141 A 
HETATM    5  N2  UNL     1      28.838  43.069   2.242  1.00  0.00    -0.081 NA
HETATM    6  N3  UNL     1      29.050  43.300   4.646  1.00  0.00    -0.328 N 
ATOM      7  H3  UNL     1      28.866  44.298   4.539  1.00  0.00     0.168 HD
HETATM    8  C4  UNL     1      29.264  42.835   5.912  1.00  0.00     0.138 A 
HETATM    9  C7  UNL     1      29.508  41.489   6.020  1.00  0.00     0.092 A 
HETATM   10  C8  UNL     1      29.691  41.121   7.330  1.00  0.00     0.233 C 
HETATM   11  O1  UNL     1      30.037  41.995   8.151  1.00  0.00    -0.283 OA
HETATM   12  C9  UNL     1      29.522  39.829   7.829  1.00  0.00     0.175 C 
HETATM   13  N10 UNL     1      29.481  38.668   7.157  1.00  0.00    -0.290 N 
ATOM     14  H10 UNL     1      29.223  37.855   7.717  1.00  0.00     0.172 HD
HETATM   15  C10 UNL     1      29.726  38.410   5.860  1.00  0.00     0.326 C 
HETATM   16  O2  UNL     1      29.933  37.208   5.558  1.00  0.00    -0.247 OA
HETATM   17  N11 UNL     1      29.765  39.319   4.873  1.00  0.00    -0.306 N 
ATOM     18  H11 UNL     1      30.005  38.947   3.954  1.00  0.00     0.171 HD
HETATM   19  C11 UNL     1      29.539  40.642   4.911  1.00  0.00     0.078 A 
ENDROOT
BRANCH   8  20
HETATM   20  N4  UNL     1      29.214  43.736   7.011  1.00  0.00    -0.283 N 
ATOM     21  H4  UNL     1      28.764  43.461   7.884  1.00  0.00     0.188 HD
BRANCH  20  22
HETATM   22  N5  UNL     1      29.779  44.981   6.882  1.00  0.00    -0.288 N 
HETATM   23  C5  UNL     1      30.916  45.407   7.236  1.00  0.00     0.133 C 
HETATM   24  N6  UNL     1      31.249  46.756   6.980  1.00  0.00    -0.084 NA
ATOM     25  H5  UNL     1      29.185  45.674   6.427  1.00  0.00     0.188 HD
BRANCH  23  26
HETATM   26  C6  UNL     1      31.901  44.549   7.902  1.00  0.00     0.303 C 
BRANCH  26  27
HETATM   27  N7  UNL     1      32.573  43.644   6.988  1.00  0.00    -0.073 N 
ATOM     28  H73 UNL     1      33.413  44.073   6.601  1.00  0.00     0.274 HD
ATOM     29  H72 UNL     1      33.000  42.866   7.492  1.00  0.00     0.274 HD
ATOM     30  H71 UNL     1      31.962  43.304   6.244  1.00  0.00     0.274 HD
ENDBRANCH  26  27
ENDBRANCH  23  26
ENDBRANCH  20  22
ENDBRANCH   8  20
BRANCH  12  31
HETATM   31  N8  UNL     1      29.387  39.765   9.110  1.00  0.00    -0.289 N 
ATOM     32  H8  UNL     1      30.112  39.323   9.676  1.00  0.00     0.188 HD
BRANCH  31  33
HETATM   33  N9  UNL     1      28.251  40.298   9.723  1.00  0.00    -0.344 N 
ATOM     34  H92 UNL     1      27.433  39.702   9.852  1.00  0.00     0.176 HD
ATOM     35  H91 UNL     1      28.246  41.270  10.035  1.00  0.00     0.176 HD
ENDBRANCH  31  33
ENDBRANCH  12  31
TORSDOF 6
ENDMDL
MODEL 2
REMARK VINA RESULT: -6.763577244      2.164      5.085
REMARK  6 active torsions:
REMARK  status: ('A' for Active; 'I' for Inactive)
REMARK    1  A    between atoms: C4_8  and  N4_9 
REMARK    2  A    between atoms: N4_9  and  N5_11 
REMARK    3  A    between atoms: C5_13  and  C6_15 
REMARK    4  A    between atoms: C6_15  and  N7_16 
REMARK    5  A    between atoms: C9_23  and  N8_24 
REMARK    6  A    between atoms: N8_24  and  N9_26 
ROOT
HETATM    1  N1  UNL     1      27.237  44.085   9.339  1.00  0.00    -0.191 NA
HETATM    2  C1  UNL     1      27.793  43.485   8.491  1.00  0.00     0.105 C 
HETATM    3  C2  UNL     1      28.460  42.770   7.442  1.00  0.00     0.113 A 
HETATM    4  C3  UNL     1      28.542  43.305   6.152  1.00  0.00     0.141 A 
HETATM    5  N2  UNL     1      27.948  44.567   5.922  1.00  0.00    -0.081 NA
HETATM    6  N3  UNL     1      29.172  42.597   5.216  1.00  0.00    -0.328 N 
ATOM      7  H3  UNL     1      29.224  42.999   4.280  1.00  0.00     0.168 HD
HETATM    8  C4  UNL     1      29.755  41.377   5.408  1.00  0.00     0.138 A 
HETATM    9  C7  UNL     1      29.667  40.867   6.679  1.00  0.00     0.092 A 
HETATM   10  C8  UNL     1      30.296  39.651   6.771  1.00  0.00     0.233 C 
HETATM   11  O1  UNL     1      30.465  38.988   5.727  1.00  0.00    -0.283 OA
HETATM   12  C9  UNL     1      30.770  39.082   7.953  1.00  0.00     0.175 C 
HETATM   13  N10 UNL     1      30.451  39.391   9.220  1.00  0.00    -0.290 N 
ATOM     14  H10 UNL     1      31.015  38.926   9.932  1.00  0.00     0.172 HD
HETATM   15  C10 UNL     1      29.503  40.219   9.697  1.00  0.00     0.326 C 
HETATM   16  O2  UNL     1      29.201  40.083  10.909  1.00  0.00    -0.247 OA
HETATM   17  N11 UNL     1      28.863  41.165   8.993  1.00  0.00    -0.306 N 
ATOM     18  H11 UNL     1      28.145  41.674   9.509  1.00  0.00     0.171 HD
HETATM   19  C11 UNL     1      29.023  41.546   7.716  1.00  0.00     0.078 A 
ENDROOT
BRANCH   8  20
HETATM   20  N4  UNL     1      30.406  40.730   4.323  1.00  0.00    -0.283 N 
ATOM     21  H4  UNL     1      31.424  40.674   4.290  1.00  0.00     0.188 HD
BRANCH  20  22
HETATM   22  N5  UNL     1      29.648  40.179   3.319  1.00  0.00    -0.288 N 
HETATM   23  C5  UNL     1      29.297  40.653   2.200  1.00  0.00     0.133 C 
HETATM   24  N6  UNL     1      28.502  39.861   1.341  1.00  0.00    -0.084 NA
ATOM     25  H5  UNL     1      29.313  39.234   3.506  1.00  0.00     0.188 HD
BRANCH  23  26
HETATM   26  C6  UNL     1      29.688  41.997   1.762  1.00  0.00     0.303 C 
BRANCH  26  27
HETATM   27  N7  UNL     1      29.171  42.337   0.449  1.00  0.00    -0.073 N 
ATOM     28  H73 UNL     1      29.798  42.010  -0.286  1.00  0.00     0.274 HD
ATOM     29  H72 UNL     1      28.347  41.778   0.225  1.00  0.00     0.274 HD
ATOM     30  H71 UNL     1      28.975  43.333   0.345  1.00  0.00     0.274 HD
ENDBRANCH  26  27
ENDBRANCH  23  26
ENDBRANCH  20  22
ENDBRANCH   8  20
BRANCH  12  31
HETATM   31  N8  UNL     1      31.629  38.136   7.784  1.00  0.00    -0.289 N 
ATOM     32  H8  UNL     1      31.734  37.700   6.868  1.00  0.00     0.188 HD
BRANCH  31  33
HETATM   33  N9  UNL     1      32.418  37.706   8.854  1.00  0.00    -0.344 N 
ATOM     34  H92 UNL     1      32.286  36.762   9.217  1.00  0.00     0.176 HD
ATOM     35  H91 UNL     1      33.113  38.332   9.262  1.00  0.00     0.176 HD
ENDBRANCH  31  33
ENDBRANCH  12  31
TORSDOF 6
ENDMDL
MODEL 3
REMARK VINA RESULT: -6.703606829      1.579      2.174
REMARK  6 active torsions:
REMARK  status: ('A' for Active; 'I' for Inactive)
REMARK    1  A    between atoms: C4_8  and  N4_9 
REMARK    2  A    between atoms: N4_9  and  N5_11 
REMARK    3  A    between atoms: C5_13  and  C6_15 
REMARK    4  A    between atoms: C6_15  and  N7_16 
REMARK    5  A    between atoms: C9_23  and  N8_24 
REMARK    6  A    between atoms: N8_24  and  N9_26 
ROOT
HETATM    1  N1  UNL     1      29.421  39.788   1.657  1.00  0.00    -0.191 NA
HETATM    2  C1  UNL     1      29.355  40.468   2.617  1.00  0.00     0.105 C 
HETATM    3  C2  UNL     1      29.277  41.316   3.772  1.00  0.00     0.113 A 
HETATM    4  C3  UNL     1      28.984  42.678   3.640  1.00  0.00     0.141 A 
HETATM    5  N2  UNL     1      28.769  43.184   2.337  1.00  0.00    -0.081 NA
HETATM    6  N3  UNL     1      28.924  43.418   4.745  1.00  0.00    -0.328 N 
ATOM      7  H3  UNL     1      28.710  44.409   4.635  1.00  0.00     0.168 HD
HETATM    8  C4  UNL     1      29.127  42.958   6.015  1.00  0.00     0.138 A 
HETATM    9  C7  UNL     1      29.412  41.621   6.127  1.00  0.00     0.092 A 
HETATM   10  C8  UNL     1      29.581  41.257   7.440  1.00  0.00     0.233 C 
HETATM   11  O1  UNL     1      29.881  42.140   8.268  1.00  0.00    -0.283 OA
HETATM   12  C9  UNL     1      29.444  39.960   7.934  1.00  0.00     0.175 C 
HETATM   13  N10 UNL     1      29.454  38.798   7.260  1.00  0.00    -0.290 N 
ATOM     14  H10 UNL     1      29.212  37.977   7.814  1.00  0.00     0.172 HD
HETATM   15  C10 UNL     1      29.733  38.550   5.968  1.00  0.00     0.326 C 
HETATM   16  O2  UNL     1      29.986  37.356   5.669  1.00  0.00    -0.247 OA
HETATM   17  N11 UNL     1      29.764  39.462   4.983  1.00  0.00    -0.306 N 
ATOM     18  H11 UNL     1      30.034  39.100   4.069  1.00  0.00     0.171 HD
HETATM   19  C11 UNL     1      29.494  40.777   5.017  1.00  0.00     0.078 A 
ENDROOT
BRANCH   8  20
HETATM   20  N4  UNL     1      29.025  43.855   7.113  1.00  0.00    -0.283 N 
ATOM     21  H4  UNL     1      29.785  43.933   7.789  1.00  0.00     0.188 HD
BRANCH  20  22
HETATM   22  N5  UNL     1      27.891  44.617   7.253  1.00  0.00    -0.288 N 
HETATM   23  C5  UNL     1      26.944  44.535   8.089  1.00  0.00     0.133 C 
HETATM   24  N6  UNL     1      25.880  45.461   8.007  1.00  0.00    -0.084 NA
ATOM     25  H5  UNL     1      27.796  45.371   6.573  1.00  0.00     0.188 HD
BRANCH  23  26
HETATM   26  C6  UNL     1      26.915  43.513   9.140  1.00  0.00     0.303 C 
BRANCH  26  27
HETATM   27  N7  UNL     1      27.864  43.772  10.207  1.00  0.00    -0.073 N 
ATOM     28  H73 UNL     1      27.930  44.771  10.402  1.00  0.00     0.274 HD
ATOM     29  H72 UNL     1      27.500  43.451  11.105  1.00  0.00     0.274 HD
ATOM     30  H71 UNL     1      28.786  43.375  10.024  1.00  0.00     0.274 HD
ENDBRANCH  26  27
ENDBRANCH  23  26
ENDBRANCH  20  22
ENDBRANCH   8  20
BRANCH  12  31
HETATM   31  N8  UNL     1      29.285  39.889   9.212  1.00  0.00    -0.289 N 
ATOM     32  H8  UNL     1      30.056  39.580   9.804  1.00  0.00     0.188 HD
BRANCH  31  33
HETATM   33  N9  UNL     1      28.059  40.234   9.786  1.00  0.00    -0.344 N 
ATOM     34  H92 UNL     1      27.788  41.217   9.818  1.00  0.00     0.176 HD
ATOM     35  H91 UNL     1      27.450  39.509  10.168  1.00  0.00     0.176 HD
ENDBRANCH  31  33
ENDBRANCH  12  31
TORSDOF 6
ENDMDL
MODEL 4
REMARK VINA RESULT: -6.512549642      1.577      2.308
REMARK  6 active torsions:
REMARK  status: ('A' for Active; 'I' for Inactive)
REMARK    1  A    between atoms: C4_8  and  N4_9 
REMARK    2  A    between atoms: N4_9  and  N5_11 
REMARK    3  A    between atoms: C5_13  and  C6_15 
REMARK    4  A    between atoms: C6_15  and  N7_16 
REMARK    5  A    between atoms: C9_23  and  N8_24 
REMARK    6  A    between atoms: N8_24  and  N9_26 
ROOT
HETATM    1  N1  UNL     1      29.404  39.796   1.703  1.00  0.00    -0.191 NA
HETATM    2  C1  UNL     1      29.341  40.465   2.670  1.00  0.00     0.105 C 
HETATM    3  C2  UNL     1      29.265  41.302   3.834  1.00  0.00     0.113 A 
HETATM    4  C3  UNL     1      28.967  42.664   3.717  1.00  0.00     0.141 A 
HETATM    5  N2  UNL     1      28.744  43.182   2.420  1.00  0.00    -0.081 NA
HETATM    6  N3  UNL     1      28.910  43.393   4.830  1.00  0.00    -0.328 N 
ATOM      7  H3  UNL     1      28.692  44.384   4.731  1.00  0.00     0.168 HD
HETATM    8  C4  UNL     1      29.121  42.921   6.094  1.00  0.00     0.138 A 
HETATM    9  C7  UNL     1      29.411  41.583   6.191  1.00  0.00     0.092 A 
HETATM   10  C8  UNL     1      29.587  41.207   7.500  1.00  0.00     0.233 C 
HETATM   11  O1  UNL     1      29.888  42.083   8.335  1.00  0.00    -0.283 OA
HETATM   12  C9  UNL     1      29.457  39.904   7.982  1.00  0.00     0.175 C 
HETATM   13  N10 UNL     1      29.467  38.750   7.296  1.00  0.00    -0.290 N 
ATOM     14  H10 UNL     1      29.231  37.922   7.843  1.00  0.00     0.172 HD
HETATM   15  C10 UNL     1      29.741  38.516   6.000  1.00  0.00     0.326 C 
HETATM   16  O2  UNL     1      29.997  37.325   5.688  1.00  0.00    -0.247 OA
HETATM   17  N11 UNL     1      29.764  39.437   5.024  1.00  0.00    -0.306 N 
ATOM     18  H11 UNL     1      30.030  39.085   4.105  1.00  0.00     0.171 HD
HETATM   19  C11 UNL     1      29.490  40.750   5.073  1.00  0.00     0.078 A 
ENDROOT
BRANCH   8  20
HETATM   20  N4  UNL     1      29.021  43.807   7.201  1.00  0.00    -0.283 N 
ATOM     21  H4  UNL     1      29.854  44.261   7.576  1.00  0.00     0.188 HD
BRANCH  20  22
HETATM   22  N5  UNL     1      27.790  44.044   7.761  1.00  0.00    -0.288 N 
HETATM   23  C5  UNL     1      26.968  44.986   7.567  1.00  0.00     0.133 C 
HETATM   24  N6  UNL     1      25.752  44.990   8.287  1.00  0.00    -0.084 NA
ATOM     25  H5  UNL     1      27.489  43.348   8.443  1.00  0.00     0.188 HD
BRANCH  23  26
HETATM   26  C6  UNL     1      27.232  46.074   6.620  1.00  0.00     0.303 C 
BRANCH  26  27
HETATM   27  N7  UNL     1      26.502  45.929   5.374  1.00  0.00    -0.073 N 
ATOM     28  H73 UNL     1      26.610  46.758   4.790  1.00  0.00     0.274 HD
ATOM     29  H72 UNL     1      26.948  45.240   4.768  1.00  0.00     0.274 HD
ATOM     30  H71 UNL     1      25.516  45.708   5.514  1.00  0.00     0.274 HD
ENDBRANCH  26  27
ENDBRANCH  23  26
ENDBRANCH  20  22
ENDBRANCH   8  20
BRANCH  12  31
HETATM   31  N8  UNL     1      29.305  39.820   9.259  1.00  0.00    -0.289 N 
ATOM     32  H8  UNL     1      30.034  39.395   9.832  1.00  0.00     0.188 HD
BRANCH  31  33
HETATM   33  N9  UNL     1      28.143  40.311   9.861  1.00  0.00    -0.344 N 
ATOM     34  H92 UNL     1      27.821  39.887  10.732  1.00  0.00     0.176 HD
ATOM     35  H91 UNL     1      27.629  41.080   9.431  1.00  0.00     0.176 HD
ENDBRANCH  31  33
ENDBRANCH  12  31
TORSDOF 6
ENDMDL
MODEL 5
REMARK VINA RESULT: -6.509253656      1.527      1.764
REMARK  6 active torsions:
REMARK  status: ('A' for Active; 'I' for Inactive)
REMARK    1  A    between atoms: C4_8  and  N4_9 
REMARK    2  A    between atoms: N4_9  and  N5_11 
REMARK    3  A    between atoms: C5_13  and  C6_15 
REMARK    4  A    between atoms: C6_15  and  N7_16 
REMARK    5  A    between atoms: C9_23  and  N8_24 
REMARK    6  A    between atoms: N8_24  and  N9_26 
ROOT
HETATM    1  N1  UNL     1      28.609  39.953   2.586  1.00  0.00    -0.191 NA
HETATM    2  C1  UNL     1      29.049  40.450   3.559  1.00  0.00     0.105 C 
HETATM    3  C2  UNL     1      29.586  41.078   4.732  1.00  0.00     0.113 A 
HETATM    4  C3  UNL     1      29.561  42.469   4.873  1.00  0.00     0.141 A 
HETATM    5  N2  UNL     1      28.990  43.229   3.825  1.00  0.00    -0.081 NA
HETATM    6  N3  UNL     1      30.074  42.998   5.982  1.00  0.00    -0.328 N 
ATOM      7  H3  UNL     1      30.049  44.014   6.073  1.00  0.00     0.168 HD
HETATM    8  C4  UNL     1      30.631  42.291   7.009  1.00  0.00     0.138 A 
HETATM    9  C7  UNL     1      30.647  40.928   6.856  1.00  0.00     0.092 A 
HETATM   10  C8  UNL     1      31.209  40.312   7.946  1.00  0.00     0.233 C 
HETATM   11  O1  UNL     1      31.975  40.974   8.675  1.00  0.00    -0.283 OA
HETATM   12  C9  UNL     1      30.993  38.984   8.314  1.00  0.00     0.175 C 
HETATM   13  N10 UNL     1      30.507  37.975   7.572  1.00  0.00    -0.290 N 
ATOM     14  H10 UNL     1      30.319  37.115   8.087  1.00  0.00     0.172 HD
HETATM   15  C10 UNL     1      30.227  37.925   6.257  1.00  0.00     0.326 C 
HETATM   16  O2  UNL     1      30.092  36.779   5.758  1.00  0.00    -0.247 OA
HETATM   17  N11 UNL     1      30.083  38.983   5.445  1.00  0.00    -0.306 N 
ATOM     18  H11 UNL     1      29.911  38.755   4.466  1.00  0.00     0.171 HD
HETATM   19  C11 UNL     1      30.130  40.296   5.723  1.00  0.00     0.078 A 
ENDROOT
BRANCH   8  20
HETATM   20  N4  UNL     1      31.136  42.981   8.145  1.00  0.00    -0.283 N 
ATOM     21  H4  UNL     1      31.127  42.538   9.064  1.00  0.00     0.188 HD
BRANCH  20  22
HETATM   22  N5  UNL     1      31.637  44.250   7.991  1.00  0.00    -0.288 N 
HETATM   23  C5  UNL     1      32.820  44.685   8.102  1.00  0.00     0.133 C 
HETATM   24  N6  UNL     1      33.064  46.060   7.886  1.00  0.00    -0.084 NA
ATOM     25  H5  UNL     1      30.943  44.956   7.747  1.00  0.00     0.188 HD
BRANCH  23  26
HETATM   26  C6  UNL     1      33.947  43.811   8.444  1.00  0.00     0.303 C 
BRANCH  26  27
HETATM   27  N7  UNL     1      34.342  42.943   7.351  1.00  0.00    -0.073 N 
ATOM     28  H73 UNL     1      33.697  43.029   6.565  1.00  0.00     0.274 HD
ATOM     29  H72 UNL     1      35.194  43.282   6.904  1.00  0.00     0.274 HD
ATOM     30  H71 UNL     1      34.442  41.967   7.634  1.00  0.00     0.274 HD
ENDBRANCH  26  27
ENDBRANCH  23  26
ENDBRANCH  20  22
ENDBRANCH   8  20
BRANCH  12  31
HETATM   31  N8  UNL     1      31.309  38.709   9.533  1.00  0.00    -0.289 N 
ATOM     32  H8  UNL     1      32.017  38.001   9.728  1.00  0.00     0.188 HD
BRANCH  31  33
HETATM   33  N9  UNL     1      30.683  39.378  10.587  1.00  0.00    -0.344 N 
ATOM     34  H92 UNL     1      29.802  39.015  10.950  1.00  0.00     0.176 HD
ATOM     35  H91 UNL     1      31.107  40.218  10.984  1.00  0.00     0.176 HD
ENDBRANCH  31  33
ENDBRANCH  12  31
TORSDOF 6
ENDMDL
