MODEL 1
REMARK VINA RESULT: -7.554928248      0.000      0.000
REMARK  8 active torsions:
REMARK  status: ('A' for Active; 'I' for Inactive)
REMARK    1  A    between atoms: C5_5  and  N1_6 
REMARK    2  A    between atoms: N1_6  and  O1_8 
REMARK    3  A    between atoms: C6_10  and  C7_11 
REMARK       I    between atoms: C7_11  and  N2_13 
REMARK    4  A    between atoms: N2_13  and  N3_15 
REMARK    5  A    between atoms: C8_17  and  N4_18 
REMARK    6  A    between atoms: C8_17  and  C9_23 
REMARK    7  A    between atoms: N4_18  and  N5_20 
REMARK       I    between atoms: C9_23  and  N6_25 
REMARK    8  A    between atoms: N6_25  and  N7_26 
ROOT
HETATM    1  C7  UNL     1      30.832  40.024   6.364  1.00  0.00     0.248 C 
HETATM    2  O2  UNL     1      30.299  38.910   6.111  1.00  0.00    -0.271 OA
HETATM    3  N2  UNL     1      31.095  40.923   5.325  1.00  0.00    -0.268 N 
ATOM      4  H2  UNL     1      31.509  41.831   5.537  1.00  0.00     0.190 HD
ENDROOT
BRANCH   3   5
HETATM    5  N3  UNL     1      30.798  40.592   4.003  1.00  0.00    -0.276 N 
HETATM    6  C8  UNL     1      29.686  41.059   3.510  1.00  0.00     0.225 C 
ATOM      7  H3  UNL     1      31.424  40.009   3.447  1.00  0.00     0.189 HD
BRANCH   6   8
HETATM    8  N4  UNL     1      28.821  41.855   4.247  1.00  0.00    -0.218 N 
ATOM      9  H4  UNL     1      28.301  41.429   5.015  1.00  0.00     0.195 HD
BRANCH   8  10
HETATM   10  N5  UNL     1      28.630  43.228   3.982  1.00  0.00    -0.037 N 
HETATM   11  O3  UNL     1      27.882  43.634   3.100  1.00  0.00    -0.516 OA
HETATM   12  O4  UNL     1      29.328  44.123   4.765  1.00  0.00    -0.516 OA
ENDBRANCH   8  10
ENDBRANCH   6   8
BRANCH   6  13
HETATM   13  C9  UNL     1      29.396  40.664   2.068  1.00  0.00     0.381 C 
HETATM   14  O5  UNL     1      29.273  39.494   1.878  1.00  0.00    -0.246 OA
HETATM   15  N6  UNL     1      29.319  41.736   1.193  1.00  0.00    -0.285 NA
BRANCH  15  16
HETATM   16  N7  UNL     1      29.249  42.711   0.396  1.00  0.00    -0.276 N 
ATOM     17  H72 UNL     1      29.308  41.923   1.041  1.00  0.00     0.191 HD
ATOM     18  H71 UNL     1      29.193  43.499  -0.248  1.00  0.00     0.191 HD
ENDBRANCH  15  16
ENDBRANCH   6  13
ENDBRANCH   3   5
BRANCH   1  19
HETATM   19  C6  UNL     1      31.188  40.378   7.756  1.00  0.00     0.155 C 
HETATM   20  C5  UNL     1      31.383  39.155   8.552  1.00  0.00     0.046 C 
HETATM   21  C4  UNL     1      30.997  39.122   9.839  1.00  0.00     0.038 C 
HETATM   22  C2  UNL     1      30.395  40.346  10.400  1.00  0.00     0.073 C 
HETATM   23  C1  UNL     1      31.439  41.387  10.776  1.00  0.00     0.050 C 
HETATM   24  C3  UNL     1      29.593  40.079  11.647  1.00  0.00     0.050 C 
HETATM   25  O6  UNL     1      29.520  40.838   9.448  1.00  0.00    -0.376 OA
HETATM   26  C10 UNL     1      30.119  41.298   8.308  1.00  0.00     0.189 C 
BRANCH  20  27
HETATM   27  N1  UNL     1      31.962  37.973   8.029  1.00  0.00    -0.273 N 
ATOM     28  H1  UNL     1      31.556  37.523   7.209  1.00  0.00     0.194 HD
BRANCH  27  29
HETATM   29  O1  UNL     1      33.052  37.446   8.620  1.00  0.00    -0.290 OA
ATOM     30  H1  UNL     1      32.949  36.851   9.353  1.00  0.00     0.244 HD
ENDBRANCH  27  29
ENDBRANCH  20  27
ENDBRANCH   1  19
TORSDOF 8
ENDMDL
MODEL 2
REMARK VINA RESULT: -7.227046911      1.151      1.355
REMARK  8 active torsions:
REMARK  status: ('A' for Active; 'I' for Inactive)
REMARK    1  A    between atoms: C5_5  and  N1_6 
REMARK    2  A    between atoms: N1_6  and  O1_8 
REMARK    3  A    between atoms: C6_10  and  C7_11 
REMARK       I    between atoms: C7_11  and  N2_13 
REMARK    4  A    between atoms: N2_13  and  N3_15 
REMARK    5  A    between atoms: C8_17  and  N4_18 
REMARK    6  A    between atoms: C8_17  and  C9_23 
REMARK    7  A    between atoms: N4_18  and  N5_20 
REMARK       I    between atoms: C9_23  and  N6_25 
REMARK    8  A    between atoms: N6_25  and  N7_26 
ROOT
HETATM    1  C7  UNL     1      30.156  40.549   6.289  1.00  0.00     0.248 C 
HETATM    2  O2  UNL     1      29.393  39.594   5.984  1.00  0.00    -0.271 OA
HETATM    3  N2  UNL     1      30.833  41.248   5.284  1.00  0.00    -0.268 N 
ATOM      4  H2  UNL     1      31.435  42.033   5.534  1.00  0.00     0.190 HD
ENDROOT
BRANCH   3   5
HETATM    5  N3  UNL     1      30.694  40.884   3.945  1.00  0.00    -0.276 N 
HETATM    6  C8  UNL     1      29.607  41.265   3.336  1.00  0.00     0.225 C 
ATOM      7  H3  UNL     1      31.413  40.344   3.463  1.00  0.00     0.189 HD
BRANCH   6   8
HETATM    8  N4  UNL     1      28.617  42.003   3.971  1.00  0.00    -0.218 N 
ATOM      9  H4  UNL     1      27.909  41.505   4.510  1.00  0.00     0.195 HD
BRANCH   8  10
HETATM   10  N5  UNL     1      28.550  43.411   3.903  1.00  0.00    -0.037 N 
HETATM   11  O3  UNL     1      29.136  44.140   4.695  1.00  0.00    -0.516 OA
HETATM   12  O4  UNL     1      27.786  43.956   2.893  1.00  0.00    -0.516 OA
ENDBRANCH   8  10
ENDBRANCH   6   8
BRANCH   6  13
HETATM   13  C9  UNL     1      29.492  40.837   1.879  1.00  0.00     0.381 C 
HETATM   14  O5  UNL     1      29.624  39.669   1.682  1.00  0.00    -0.246 OA
HETATM   15  N6  UNL     1      29.248  41.880   1.000  1.00  0.00    -0.285 NA
BRANCH  15  16
HETATM   16  N7  UNL     1      29.027  42.830   0.201  1.00  0.00    -0.276 N 
ATOM     17  H72 UNL     1      29.208  42.062   0.846  1.00  0.00     0.191 HD
ATOM     18  H71 UNL     1      28.848  43.598  -0.446  1.00  0.00     0.191 HD
ENDBRANCH  15  16
ENDBRANCH   6  13
ENDBRANCH   3   5
BRANCH   1  19
HETATM   19  C6  UNL     1      30.344  40.926   7.707  1.00  0.00     0.155 C 
HETATM   20  C5  UNL     1      30.208  39.738   8.566  1.00  0.00     0.046 C 
HETATM   21  C4  UNL     1      29.627  39.845   9.774  1.00  0.00     0.038 C 
HETATM   22  C2  UNL     1      29.156  41.180  10.185  1.00  0.00     0.073 C 
HETATM   23  C1  UNL     1      30.286  42.065  10.691  1.00  0.00     0.050 C 
HETATM   24  C3  UNL     1      28.136  41.119  11.293  1.00  0.00     0.050 C 
HETATM   25  O6  UNL     1      28.533  41.745   9.087  1.00  0.00    -0.376 OA
HETATM   26  C10 UNL     1      29.370  42.035   8.045  1.00  0.00     0.189 C 
BRANCH  20  27
HETATM   27  N1  UNL     1      30.658  38.450   8.186  1.00  0.00    -0.273 N 
ATOM     28  H1  UNL     1      31.657  38.255   8.122  1.00  0.00     0.194 HD
BRANCH  27  29
HETATM   29  O1  UNL     1      29.761  37.484   7.910  1.00  0.00    -0.290 OA
ATOM     30  H1  UNL     1      29.810  37.018   7.084  1.00  0.00     0.244 HD
ENDBRANCH  27  29
ENDBRANCH  20  27
ENDBRANCH   1  19
TORSDOF 8
ENDMDL
MODEL 3
REMARK VINA RESULT: -7.194856957      1.951      2.962
REMARK  8 active torsions:
REMARK  status: ('A' for Active; 'I' for Inactive)
REMARK    1  A    between atoms: C5_5  and  N1_6 
REMARK    2  A    between atoms: N1_6  and  O1_8 
REMARK    3  A    between atoms: C6_10  and  C7_11 
REMARK       I    between atoms: C7_11  and  N2_13 
REMARK    4  A    between atoms: N2_13  and  N3_15 
REMARK    5  A    between atoms: C8_17  and  N4_18 
REMARK    6  A    between atoms: C8_17  and  C9_23 
REMARK    7  A    between atoms: N4_18  and  N5_20 
REMARK       I    between atoms: C9_23  and  N6_25 
REMARK    8  A    between atoms: N6_25  and  N7_26 
ROOT
HETATM    1  C7  UNL     1      30.391  42.886   6.700  1.00  0.00     0.248 C 
HETATM    2  O2  UNL     1      31.221  43.593   6.068  1.00  0.00    -0.271 OA
HETATM    3  N2  UNL     1      29.402  42.184   6.005  1.00  0.00    -0.268 N 
ATOM      4  H2  UNL     1      28.743  41.598   6.519  1.00  0.00     0.190 HD
ENDROOT
BRANCH   3   5
HETATM    5  N3  UNL     1      29.305  42.274   4.616  1.00  0.00    -0.276 N 
HETATM    6  C8  UNL     1      29.729  41.254   3.924  1.00  0.00     0.225 C 
ATOM      7  H3  UNL     1      28.919  43.102   4.162  1.00  0.00     0.189 HD
BRANCH   6   8
HETATM    8  N4  UNL     1      30.255  40.117   4.520  1.00  0.00    -0.218 N 
ATOM      9  H4  UNL     1      31.266  39.983   4.506  1.00  0.00     0.195 HD
BRANCH   8  10
HETATM   10  N5  UNL     1      29.452  39.138   5.145  1.00  0.00    -0.037 N 
HETATM   11  O3  UNL     1      28.690  38.411   4.519  1.00  0.00    -0.516 OA
HETATM   12  O4  UNL     1      29.554  39.023   6.514  1.00  0.00    -0.516 OA
ENDBRANCH   8  10
ENDBRANCH   6   8
BRANCH   6  13
HETATM   13  C9  UNL     1      29.615  41.400   2.413  1.00  0.00     0.381 C 
HETATM   14  O5  UNL     1      30.122  42.378   1.958  1.00  0.00    -0.246 OA
HETATM   15  N6  UNL     1      28.934  40.364   1.794  1.00  0.00    -0.285 NA
BRANCH  15  16
HETATM   16  N7  UNL     1      28.314  39.421   1.231  1.00  0.00    -0.276 N 
ATOM     17  H72 UNL     1      28.814  40.185   1.686  1.00  0.00     0.191 HD
ATOM     18  H71 UNL     1      27.813  38.658   0.776  1.00  0.00     0.191 HD
ENDBRANCH  15  16
ENDBRANCH   6  13
ENDBRANCH   3   5
BRANCH   1  19
HETATM   19  C6  UNL     1      30.455  42.807   8.176  1.00  0.00     0.155 C 
HETATM   20  C5  UNL     1      31.180  41.593   8.584  1.00  0.00     0.046 C 
HETATM   21  C4  UNL     1      30.791  40.914   9.678  1.00  0.00     0.038 C 
HETATM   22  C2  UNL     1      29.640  41.443  10.433  1.00  0.00     0.073 C 
HETATM   23  C1  UNL     1      30.023  42.608  11.335  1.00  0.00     0.050 C 
HETATM   24  C3  UNL     1      29.006  40.407  11.324  1.00  0.00     0.050 C 
HETATM   25  O6  UNL     1      28.689  41.823   9.504  1.00  0.00    -0.376 OA
HETATM   26  C10 UNL     1      29.047  42.889   8.725  1.00  0.00     0.189 C 
BRANCH  20  27
HETATM   27  N1  UNL     1      32.288  41.073   7.871  1.00  0.00    -0.273 N 
ATOM     28  H1  UNL     1      33.206  41.028   8.314  1.00  0.00     0.194 HD
BRANCH  27  29
HETATM   29  O1  UNL     1      32.125  40.639   6.607  1.00  0.00    -0.290 OA
ATOM     30  H1  UNL     1      32.597  39.872   6.308  1.00  0.00     0.244 HD
ENDBRANCH  27  29
ENDBRANCH  20  27
ENDBRANCH   1  19
TORSDOF 8
ENDMDL
MODEL 4
REMARK VINA RESULT: -7.154274883      1.489      1.852
REMARK  8 active torsions:
REMARK  status: ('A' for Active; 'I' for Inactive)
REMARK    1  A    between atoms: C5_5  and  N1_6 
REMARK    2  A    between atoms: N1_6  and  O1_8 
REMARK    3  A    between atoms: C6_10  and  C7_11 
REMARK       I    between atoms: C7_11  and  N2_13 
REMARK    4  A    between atoms: N2_13  and  N3_15 
REMARK    5  A    between atoms: C8_17  and  N4_18 
REMARK    6  A    between atoms: C8_17  and  C9_23 
REMARK    7  A    between atoms: N4_18  and  N5_20 
REMARK       I    between atoms: C9_23  and  N6_25 
REMARK    8  A    between atoms: N6_25  and  N7_26 
ROOT
HETATM    1  C7  UNL     1      31.061  40.396   6.180  1.00  0.00     0.248 C 
HETATM    2  O2  UNL     1      30.907  39.175   5.910  1.00  0.00    -0.271 OA
HETATM    3  N2  UNL     1      30.989  41.350   5.160  1.00  0.00    -0.268 N 
ATOM      4  H2  UNL     1      31.095  42.339   5.387  1.00  0.00     0.190 HD
ENDROOT
BRANCH   3   5
HETATM    5  N3  UNL     1      30.772  40.965   3.837  1.00  0.00    -0.276 N 
HETATM    6  C8  UNL     1      29.632  41.297   3.301  1.00  0.00     0.225 C 
ATOM      7  H3  UNL     1      31.476  40.446   3.312  1.00  0.00     0.189 HD
BRANCH   6   8
HETATM    8  N4  UNL     1      28.661  42.005   3.996  1.00  0.00    -0.218 N 
ATOM      9  H4  UNL     1      28.009  41.488   4.586  1.00  0.00     0.195 HD
BRANCH   8  10
HETATM   10  N5  UNL     1      28.537  43.410   3.920  1.00  0.00    -0.037 N 
HETATM   11  O3  UNL     1      29.099  44.166   4.704  1.00  0.00    -0.516 OA
HETATM   12  O4  UNL     1      27.745  43.917   2.913  1.00  0.00    -0.516 OA
ENDBRANCH   8  10
ENDBRANCH   6   8
BRANCH   6  13
HETATM   13  C9  UNL     1      29.434  40.847   1.860  1.00  0.00     0.381 C 
HETATM   14  O5  UNL     1      29.501  39.671   1.683  1.00  0.00    -0.246 OA
HETATM   15  N6  UNL     1      29.203  41.884   0.970  1.00  0.00    -0.285 NA
BRANCH  15  16
HETATM   16  N7  UNL     1      28.993  42.827   0.160  1.00  0.00    -0.276 N 
ATOM     17  H72 UNL     1      29.165  42.065   0.815  1.00  0.00     0.191 HD
ATOM     18  H71 UNL     1      28.824  43.591  -0.494  1.00  0.00     0.191 HD
ENDBRANCH  15  16
ENDBRANCH   6  13
ENDBRANCH   3   5
BRANCH   1  19
HETATM   19  C6  UNL     1      31.328  40.821   7.572  1.00  0.00     0.155 C 
HETATM   20  C5  UNL     1      30.140  40.581   8.408  1.00  0.00     0.046 C 
HETATM   21  C4  UNL     1      29.820  41.446   9.386  1.00  0.00     0.038 C 
HETATM   22  C2  UNL     1      30.704  42.611   9.579  1.00  0.00     0.073 C 
HETATM   23  C1  UNL     1      31.967  42.259  10.352  1.00  0.00     0.050 C 
HETATM   24  C3  UNL     1      30.037  43.725  10.341  1.00  0.00     0.050 C 
HETATM   25  O6  UNL     1      31.008  43.099   8.322  1.00  0.00    -0.376 OA
HETATM   26  C10 UNL     1      31.779  42.266   7.558  1.00  0.00     0.189 C 
BRANCH  20  27
HETATM   27  N1  UNL     1      29.283  39.466   8.237  1.00  0.00    -0.273 N 
ATOM     28  H1  UNL     1      28.294  39.607   8.031  1.00  0.00     0.194 HD
BRANCH  27  29
HETATM   29  O1  UNL     1      29.779  38.219   8.349  1.00  0.00    -0.290 OA
ATOM     30  H1  UNL     1      29.453  37.530   7.783  1.00  0.00     0.244 HD
ENDBRANCH  27  29
ENDBRANCH  20  27
ENDBRANCH   1  19
TORSDOF 8
ENDMDL
MODEL 5
REMARK VINA RESULT: -6.956371010      1.897      2.739
REMARK  8 active torsions:
REMARK  status: ('A' for Active; 'I' for Inactive)
REMARK    1  A    between atoms: C5_5  and  N1_6 
REMARK    2  A    between atoms: N1_6  and  O1_8 
REMARK    3  A    between atoms: C6_10  and  C7_11 
REMARK       I    between atoms: C7_11  and  N2_13 
REMARK    4  A    between atoms: N2_13  and  N3_15 
REMARK    5  A    between atoms: C8_17  and  N4_18 
REMARK    6  A    between atoms: C8_17  and  C9_23 
REMARK    7  A    between atoms: N4_18  and  N5_20 
REMARK       I    between atoms: C9_23  and  N6_25 
REMARK    8  A    between atoms: N6_25  and  N7_26 
ROOT
HETATM    1  C7  UNL     1      30.220  41.606   6.950  1.00  0.00     0.248 C 
HETATM    2  O2  UNL     1      29.034  42.019   6.845  1.00  0.00    -0.271 OA
HETATM    3  N2  UNL     1      31.025  41.500   5.811  1.00  0.00    -0.268 N 
ATOM      4  H2  UNL     1      31.990  41.183   5.904  1.00  0.00     0.190 HD
ENDROOT
BRANCH   3   5
HETATM    5  N3  UNL     1      30.523  41.824   4.551  1.00  0.00    -0.276 N 
HETATM    6  C8  UNL     1      30.244  40.834   3.751  1.00  0.00     0.225 C 
ATOM      7  H3  UNL     1      30.381  42.794   4.268  1.00  0.00     0.189 HD
BRANCH   6   8
HETATM    8  N4  UNL     1      30.427  39.508   4.115  1.00  0.00    -0.218 N 
ATOM      9  H4  UNL     1      31.366  39.114   4.066  1.00  0.00     0.195 HD
BRANCH   8  10
HETATM   10  N5  UNL     1      29.369  38.681   4.552  1.00  0.00    -0.037 N 
HETATM   11  O3  UNL     1      28.200  38.884   4.243  1.00  0.00    -0.516 OA
HETATM   12  O4  UNL     1      29.698  37.611   5.356  1.00  0.00    -0.516 OA
ENDBRANCH   8  10
ENDBRANCH   6   8
BRANCH   6  13
HETATM   13  C9  UNL     1      29.710  41.234   2.382  1.00  0.00     0.381 C 
HETATM   14  O5  UNL     1      30.043  42.314   2.003  1.00  0.00    -0.246 OA
HETATM   15  N6  UNL     1      28.914  40.271   1.782  1.00  0.00    -0.285 NA
BRANCH  15  16
HETATM   16  N7  UNL     1      28.189  39.395   1.237  1.00  0.00    -0.276 N 
ATOM     17  H72 UNL     1      28.776  40.103   1.676  1.00  0.00     0.191 HD
ATOM     18  H71 UNL     1      27.603  38.687   0.795  1.00  0.00     0.191 HD
ENDBRANCH  15  16
ENDBRANCH   6  13
ENDBRANCH   3   5
BRANCH   1  19
HETATM   19  C6  UNL     1      30.758  41.223   8.274  1.00  0.00     0.155 C 
HETATM   20  C5  UNL     1      29.971  40.113   8.836  1.00  0.00     0.046 C 
HETATM   21  C4  UNL     1      29.733  40.059  10.158  1.00  0.00     0.038 C 
HETATM   22  C2  UNL     1      30.297  41.135  10.994  1.00  0.00     0.073 C 
HETATM   23  C1  UNL     1      31.776  40.928  11.287  1.00  0.00     0.050 C 
HETATM   24  C3  UNL     1      29.611  41.251  12.331  1.00  0.00     0.050 C 
HETATM   25  O6  UNL     1      30.084  42.324  10.321  1.00  0.00    -0.376 OA
HETATM   26  C10 UNL     1      30.790  42.453   9.156  1.00  0.00     0.189 C 
BRANCH  20  27
HETATM   27  N1  UNL     1      29.425  39.071   8.046  1.00  0.00    -0.273 N 
ATOM     28  H1  UNL     1      28.622  39.252   7.443  1.00  0.00     0.194 HD
BRANCH  27  29
HETATM   29  O1  UNL     1      29.970  37.841   8.096  1.00  0.00    -0.290 OA
ATOM     30  H1  UNL     1      30.654  37.604   7.480  1.00  0.00     0.244 HD
ENDBRANCH  27  29
ENDBRANCH  20  27
ENDBRANCH   1  19
TORSDOF 8
ENDMDL
