MODEL 1
REMARK VINA RESULT: -6.977512634      0.000      0.000
REMARK  6 active torsions:
REMARK  status: ('A' for Active; 'I' for Inactive)
REMARK    1  A    between atoms: C3_5  and  S1_6 
REMARK    2  A    between atoms: S1_6  and  C4_7 
REMARK    3  A    between atoms: C4_7  and  C5_8 
REMARK       I    between atoms: C5_8  and  N2_10 
REMARK    4  A    between atoms: N2_10  and  N3_12 
REMARK    5  A    between atoms: N3_12  and  N4_13 
REMARK       I    between atoms: N4_13  and  C6_15 
REMARK       I    between atoms: C6_15  and  N5_17 
REMARK    6  A    between atoms: N5_17  and  N6_19 
ROOT
HETATM    1  C1  UNL     1      27.537  41.677   9.606  1.00  0.00     0.089 C 
HETATM    2  C2  UNL     1      28.698  40.749   9.625  1.00  0.00     0.080 A 
HETATM    3  N1  UNL     1      29.050  40.080   8.513  1.00  0.00    -0.326 N 
ATOM      4  H1  UNL     1      28.515  40.213   7.655  1.00  0.00     0.169 HD
HETATM    5  C3  UNL     1      30.106  39.231   8.520  1.00  0.00     0.171 A 
HETATM    6  N7  UNL     1      30.838  39.026   9.623  1.00  0.00    -0.110 N 
HETATM    7  C7  UNL     1      31.906  38.263   9.905  1.00  0.00     0.685 A 
HETATM    8  N8  UNL     1      32.561  37.472   9.145  1.00  0.00    -0.234 N 
ATOM      9  H81 UNL     1      33.373  36.892   9.359  1.00  0.00     0.174 HD
ATOM     10  H82 UNL     1      32.303  37.340   8.167  1.00  0.00     0.174 HD
HETATM   11  N9  UNL     1      32.256  38.440  11.225  1.00  0.00    -0.198 N 
ATOM     12  H9  UNL     1      33.027  37.990  11.718  1.00  0.00     0.183 HD
HETATM   13  C8  UNL     1      31.396  39.306  11.725  1.00  0.00     0.155 A 
HETATM   14  C9  UNL     1      30.496  39.695  10.758  1.00  0.00     0.148 A 
HETATM   15  N10 UNL     1      29.451  40.521  10.712  1.00  0.00    -0.330 N 
ATOM     16  H10 UNL     1      29.204  41.017  11.568  1.00  0.00     0.168 HD
ENDROOT
BRANCH   5  17
HETATM   17  S1  UNL     1      30.458  38.414   6.982  1.00  0.00    -0.083 SA
BRANCH  17  18
HETATM   18  C4  UNL     1      30.667  39.707   5.699  1.00  0.00     0.186 C 
BRANCH  18  19
HETATM   19  C5  UNL     1      29.671  39.411   4.653  1.00  0.00     0.244 C 
HETATM   20  O1  UNL     1      28.965  38.391   4.758  1.00  0.00    -0.271 OA
HETATM   21  N2  UNL     1      29.518  40.271   3.545  1.00  0.00    -0.253 N 
ATOM     22  H2  UNL     1      30.108  41.101   3.479  1.00  0.00     0.187 HD
BRANCH  21  23
HETATM   23  N3  UNL     1      28.593  40.023   2.544  1.00  0.00    -0.016 NA
BRANCH  23  24
HETATM   24  N4  UNL     1      28.994  40.669   1.374  1.00  0.00    -0.234 N 
HETATM   25  C6  UNL     1      29.067  42.088   1.383  1.00  0.00     0.351 C 
HETATM   26  O2  UNL     1      28.772  42.737   2.435  1.00  0.00    -0.244 OA
HETATM   27  N5  UNL     1      29.474  42.740   0.197  1.00  0.00    -0.257 N 
ATOM     28  H5  UNL     1      29.706  42.198  -0.635  1.00  0.00     0.191 HD
ATOM     29  H4  UNL     1      29.229  40.138   0.535  1.00  0.00     0.189 HD
BRANCH  27  30
HETATM   30  N6  UNL     1      29.555  44.128   0.176  1.00  0.00    -0.341 N 
ATOM     31  H62 UNL     1      28.702  44.681   0.265  1.00  0.00     0.177 HD
ATOM     32  H61 UNL     1      30.466  44.575   0.072  1.00  0.00     0.177 HD
ENDBRANCH  27  30
ENDBRANCH  23  24
ENDBRANCH  21  23
ENDBRANCH  18  19
ENDBRANCH  17  18
ENDBRANCH   5  17
TORSDOF 6
ENDMDL
MODEL 2
REMARK VINA RESULT: -6.905491421      2.776      3.738
REMARK  6 active torsions:
REMARK  status: ('A' for Active; 'I' for Inactive)
REMARK    1  A    between atoms: C3_5  and  S1_6 
REMARK    2  A    between atoms: S1_6  and  C4_7 
REMARK    3  A    between atoms: C4_7  and  C5_8 
REMARK       I    between atoms: C5_8  and  N2_10 
REMARK    4  A    between atoms: N2_10  and  N3_12 
REMARK    5  A    between atoms: N3_12  and  N4_13 
REMARK       I    between atoms: N4_13  and  C6_15 
REMARK       I    between atoms: C6_15  and  N5_17 
REMARK    6  A    between atoms: N5_17  and  N6_19 
ROOT
HETATM    1  C1  UNL     1      32.975  42.573   8.216  1.00  0.00     0.089 C 
HETATM    2  C2  UNL     1      32.049  41.580   7.612  1.00  0.00     0.080 A 
HETATM    3  N1  UNL     1      31.356  41.887   6.501  1.00  0.00    -0.326 N 
ATOM      4  H1  UNL     1      31.470  42.806   6.074  1.00  0.00     0.169 HD
HETATM    5  C3  UNL     1      30.508  40.990   5.942  1.00  0.00     0.171 A 
HETATM    6  N7  UNL     1      30.327  39.770   6.468  1.00  0.00    -0.110 N 
HETATM    7  C7  UNL     1      29.571  38.714   6.132  1.00  0.00     0.685 A 
HETATM    8  N8  UNL     1      28.763  38.572   5.151  1.00  0.00    -0.234 N 
ATOM      9  H81 UNL     1      28.189  37.769   4.896  1.00  0.00     0.174 HD
ATOM     10  H82 UNL     1      28.611  39.322   4.477  1.00  0.00     0.174 HD
HETATM   11  N9  UNL     1      29.776  37.700   7.041  1.00  0.00    -0.198 N 
ATOM     12  H9  UNL     1      29.337  36.779   7.038  1.00  0.00     0.183 HD
HETATM   13  C8  UNL     1      30.652  38.156   7.915  1.00  0.00     0.155 A 
HETATM   14  C9  UNL     1      31.019  39.443   7.593  1.00  0.00     0.148 A 
HETATM   15  N10 UNL     1      31.844  40.352   8.112  1.00  0.00    -0.330 N 
ATOM     16  H10 UNL     1      32.358  40.096   8.955  1.00  0.00     0.168 HD
ENDROOT
BRANCH   5  17
HETATM   17  S1  UNL     1      29.658  41.528   4.478  1.00  0.00    -0.083 SA
BRANCH  17  18
HETATM   18  C4  UNL     1      30.284  40.529   3.072  1.00  0.00     0.186 C 
BRANCH  18  19
HETATM   19  C5  UNL     1      29.361  40.777   1.951  1.00  0.00     0.244 C 
HETATM   20  O1  UNL     1      28.528  39.903   1.645  1.00  0.00    -0.271 OA
HETATM   21  N2  UNL     1      29.418  41.988   1.229  1.00  0.00    -0.253 N 
ATOM     22  H2  UNL     1      30.108  42.689   1.497  1.00  0.00     0.187 HD
BRANCH  21  23
HETATM   23  N3  UNL     1      28.565  42.253   0.170  1.00  0.00    -0.016 NA
BRANCH  23  24
HETATM   24  N4  UNL     1      28.737  43.577  -0.240  1.00  0.00    -0.234 N 
HETATM   25  C6  UNL     1      28.212  44.606   0.586  1.00  0.00     0.351 C 
HETATM   26  O2  UNL     1      27.606  44.316   1.665  1.00  0.00    -0.244 OA
HETATM   27  N5  UNL     1      28.387  45.946   0.170  1.00  0.00    -0.257 N 
ATOM     28  H5  UNL     1      28.876  46.155  -0.700  1.00  0.00     0.191 HD
ATOM     29  H4  UNL     1      29.225  43.798  -1.108  1.00  0.00     0.189 HD
BRANCH  27  30
HETATM   30  N6  UNL     1      27.884  46.976   0.957  1.00  0.00    -0.341 N 
ATOM     31  H62 UNL     1      27.137  46.778   1.623  1.00  0.00     0.177 HD
ATOM     32  H61 UNL     1      28.269  47.915   0.858  1.00  0.00     0.177 HD
ENDBRANCH  27  30
ENDBRANCH  23  24
ENDBRANCH  21  23
ENDBRANCH  18  19
ENDBRANCH  17  18
ENDBRANCH   5  17
TORSDOF 6
ENDMDL
MODEL 3
REMARK VINA RESULT: -6.808950727      2.587      3.308
REMARK  6 active torsions:
REMARK  status: ('A' for Active; 'I' for Inactive)
REMARK    1  A    between atoms: C3_5  and  S1_6 
REMARK    2  A    between atoms: S1_6  and  C4_7 
REMARK    3  A    between atoms: C4_7  and  C5_8 
REMARK       I    between atoms: C5_8  and  N2_10 
REMARK    4  A    between atoms: N2_10  and  N3_12 
REMARK    5  A    between atoms: N3_12  and  N4_13 
REMARK       I    between atoms: N4_13  and  C6_15 
REMARK       I    between atoms: C6_15  and  N5_17 
REMARK    6  A    between atoms: N5_17  and  N6_19 
ROOT
HETATM    1  C1  UNL     1      33.136  43.930   7.794  1.00  0.00     0.089 C 
HETATM    2  C2  UNL     1      32.326  42.696   7.621  1.00  0.00     0.080 A 
HETATM    3  N1  UNL     1      31.499  42.569   6.569  1.00  0.00    -0.326 N 
ATOM      4  H1  UNL     1      31.431  43.325   5.888  1.00  0.00     0.169 HD
HETATM    5  C3  UNL     1      30.756  41.448   6.402  1.00  0.00     0.171 A 
HETATM    6  N7  UNL     1      30.814  40.429   7.270  1.00  0.00    -0.110 N 
HETATM    7  C7  UNL     1      30.205  39.235   7.347  1.00  0.00     0.685 A 
HETATM    8  N8  UNL     1      29.347  38.708   6.560  1.00  0.00    -0.234 N 
ATOM      9  H81 UNL     1      28.884  37.801   6.619  1.00  0.00     0.174 HD
ATOM     10  H82 UNL     1      29.021  39.199   5.727  1.00  0.00     0.174 HD
HETATM   11  N9  UNL     1      30.645  38.573   8.471  1.00  0.00    -0.198 N 
ATOM     12  H9  UNL     1      30.357  37.646   8.787  1.00  0.00     0.183 HD
HETATM   13  C8  UNL     1      31.512  39.373   9.060  1.00  0.00     0.155 A 
HETATM   14  C9  UNL     1      31.645  40.540   8.342  1.00  0.00     0.148 A 
HETATM   15  N10 UNL     1      32.360  41.658   8.471  1.00  0.00    -0.330 N 
ATOM     16  H10 UNL     1      32.980  41.730   9.278  1.00  0.00     0.168 HD
ENDROOT
BRANCH   5  17
HETATM   17  S1  UNL     1      29.707  41.415   4.968  1.00  0.00    -0.083 SA
BRANCH  17  18
HETATM   18  C4  UNL     1      30.500  40.326   3.723  1.00  0.00     0.186 C 
BRANCH  18  19
HETATM   19  C5  UNL     1      29.787  40.566   2.456  1.00  0.00     0.244 C 
HETATM   20  O1  UNL     1      29.586  39.612   1.682  1.00  0.00    -0.271 OA
HETATM   21  N2  UNL     1      29.337  41.860   2.120  1.00  0.00    -0.253 N 
ATOM     22  H2  UNL     1      29.513  42.628   2.768  1.00  0.00     0.187 HD
BRANCH  21  23
HETATM   23  N3  UNL     1      28.664  42.121   0.938  1.00  0.00    -0.016 NA
BRANCH  23  24
HETATM   24  N4  UNL     1      29.450  42.947   0.132  1.00  0.00    -0.234 N 
HETATM   25  C6  UNL     1      29.710  44.269   0.581  1.00  0.00     0.351 C 
HETATM   26  O2  UNL     1      29.234  44.674   1.688  1.00  0.00    -0.244 OA
HETATM   27  N5  UNL     1      30.506  45.104  -0.236  1.00  0.00    -0.257 N 
ATOM     28  H5  UNL     1      30.877  44.757  -1.120  1.00  0.00     0.191 HD
ATOM     29  H4  UNL     1      29.827  42.611  -0.755  1.00  0.00     0.189 HD
BRANCH  27  30
HETATM   30  N6  UNL     1      30.778  46.404   0.178  1.00  0.00    -0.341 N 
ATOM     31  H62 UNL     1      31.479  46.563   0.901  1.00  0.00     0.177 HD
ATOM     32  H61 UNL     1      30.272  47.180  -0.249  1.00  0.00     0.177 HD
ENDBRANCH  27  30
ENDBRANCH  23  24
ENDBRANCH  21  23
ENDBRANCH  18  19
ENDBRANCH  17  18
ENDBRANCH   5  17
TORSDOF 6
ENDMDL
MODEL 4
REMARK VINA RESULT: -6.765708529      1.225      1.290
REMARK  6 active torsions:
REMARK  status: ('A' for Active; 'I' for Inactive)
REMARK    1  A    between atoms: C3_5  and  S1_6 
REMARK    2  A    between atoms: S1_6  and  C4_7 
REMARK    3  A    between atoms: C4_7  and  C5_8 
REMARK       I    between atoms: C5_8  and  N2_10 
REMARK    4  A    between atoms: N2_10  and  N3_12 
REMARK    5  A    between atoms: N3_12  and  N4_13 
REMARK       I    between atoms: N4_13  and  C6_15 
REMARK       I    between atoms: C6_15  and  N5_17 
REMARK    6  A    between atoms: N5_17  and  N6_19 
ROOT
HETATM    1  C1  UNL     1      27.481  42.355   9.245  1.00  0.00     0.089 C 
HETATM    2  C2  UNL     1      28.553  41.327   9.206  1.00  0.00     0.080 A 
HETATM    3  N1  UNL     1      28.830  40.678   8.062  1.00  0.00    -0.326 N 
ATOM      4  H1  UNL     1      28.299  40.896   7.218  1.00  0.00     0.169 HD
HETATM    5  C3  UNL     1      29.805  39.738   8.015  1.00  0.00     0.171 A 
HETATM    6  N7  UNL     1      30.529  39.420   9.098  1.00  0.00    -0.110 N 
HETATM    7  C7  UNL     1      31.527  38.553   9.330  1.00  0.00     0.685 A 
HETATM    8  N8  UNL     1      32.099  37.740   8.527  1.00  0.00    -0.234 N 
ATOM      9  H81 UNL     1      32.857  37.081   8.703  1.00  0.00     0.174 HD
ATOM     10  H82 UNL     1      31.818  37.676   7.548  1.00  0.00     0.174 HD
HETATM   11  N9  UNL     1      31.907  38.640  10.650  1.00  0.00    -0.198 N 
ATOM     12  H9  UNL     1      32.641  38.102  11.111  1.00  0.00     0.183 HD
HETATM   13  C8  UNL     1      31.134  39.557  11.200  1.00  0.00     0.155 A 
HETATM   14  C9  UNL     1      30.262  40.067  10.266  1.00  0.00     0.148 A 
HETATM   15  N10 UNL     1      29.295  40.984  10.271  1.00  0.00    -0.330 N 
ATOM     16  H10 UNL     1      29.104  41.462  11.151  1.00  0.00     0.168 HD
ENDROOT
BRANCH   5  17
HETATM   17  S1  UNL     1      30.064  38.961   6.439  1.00  0.00    -0.083 SA
BRANCH  17  18
HETATM   18  C4  UNL     1      31.058  40.108   5.409  1.00  0.00     0.186 C 
BRANCH  18  19
HETATM   19  C5  UNL     1      30.099  40.815   4.542  1.00  0.00     0.244 C 
HETATM   20  O1  UNL     1      29.449  41.769   5.007  1.00  0.00    -0.271 OA
HETATM   21  N2  UNL     1      29.917  40.417   3.200  1.00  0.00    -0.253 N 
ATOM     22  H2  UNL     1      30.460  39.632   2.840  1.00  0.00     0.187 HD
BRANCH  21  23
HETATM   23  N3  UNL     1      29.024  41.060   2.358  1.00  0.00    -0.016 NA
BRANCH  23  24
HETATM   24  N4  UNL     1      29.567  42.282   1.956  1.00  0.00    -0.234 N 
HETATM   25  C6  UNL     1      29.181  42.803   0.692  1.00  0.00     0.351 C 
HETATM   26  O2  UNL     1      28.363  42.163  -0.041  1.00  0.00    -0.244 OA
HETATM   27  N5  UNL     1      29.732  44.040   0.287  1.00  0.00    -0.257 N 
ATOM     28  H5  UNL     1      30.387  44.535   0.893  1.00  0.00     0.191 HD
ATOM     29  H4  UNL     1      30.223  42.786   2.553  1.00  0.00     0.189 HD
BRANCH  27  30
HETATM   30  N6  UNL     1      29.372  44.575  -0.945  1.00  0.00    -0.341 N 
ATOM     31  H62 UNL     1      29.192  43.949  -1.729  1.00  0.00     0.177 HD
ATOM     32  H61 UNL     1      29.294  45.587  -1.047  1.00  0.00     0.177 HD
ENDBRANCH  27  30
ENDBRANCH  23  24
ENDBRANCH  21  23
ENDBRANCH  18  19
ENDBRANCH  17  18
ENDBRANCH   5  17
TORSDOF 6
ENDMDL
MODEL 5
REMARK VINA RESULT: -6.734251646      2.506      3.196
REMARK  6 active torsions:
REMARK  status: ('A' for Active; 'I' for Inactive)
REMARK    1  A    between atoms: C3_5  and  S1_6 
REMARK    2  A    between atoms: S1_6  and  C4_7 
REMARK    3  A    between atoms: C4_7  and  C5_8 
REMARK       I    between atoms: C5_8  and  N2_10 
REMARK    4  A    between atoms: N2_10  and  N3_12 
REMARK    5  A    between atoms: N3_12  and  N4_13 
REMARK       I    between atoms: N4_13  and  C6_15 
REMARK       I    between atoms: C6_15  and  N5_17 
REMARK    6  A    between atoms: N5_17  and  N6_19 
ROOT
HETATM    1  C1  UNL     1      27.555  41.420  10.468  1.00  0.00     0.089 C 
HETATM    2  C2  UNL     1      28.462  41.036   9.355  1.00  0.00     0.080 A 
HETATM    3  N1  UNL     1      28.762  41.922   8.389  1.00  0.00    -0.326 N 
ATOM      4  H1  UNL     1      28.363  42.860   8.424  1.00  0.00     0.169 HD
HETATM    5  C3  UNL     1      29.587  41.582   7.369  1.00  0.00     0.171 A 
HETATM    6  N7  UNL     1      30.134  40.361   7.282  1.00  0.00    -0.110 N 
HETATM    7  C7  UNL     1      30.962  39.772   6.406  1.00  0.00     0.685 A 
HETATM    8  N8  UNL     1      31.492  40.245   5.344  1.00  0.00    -0.234 N 
ATOM      9  H81 UNL     1      32.121  39.797   4.678  1.00  0.00     0.174 HD
ATOM     10  H82 UNL     1      31.312  41.204   5.044  1.00  0.00     0.174 HD
HETATM   11  N9  UNL     1      31.206  38.478   6.811  1.00  0.00    -0.198 N 
ATOM     12  H9  UNL     1      31.798  37.792   6.341  1.00  0.00     0.183 HD
HETATM   13  C8  UNL     1      30.522  38.301   7.925  1.00  0.00     0.155 A 
HETATM   14  C9  UNL     1      29.841  39.452   8.252  1.00  0.00     0.148 A 
HETATM   15  N10 UNL     1      29.026  39.824   9.238  1.00  0.00    -0.330 N 
ATOM     16  H10 UNL     1      28.813  39.135   9.959  1.00  0.00     0.168 HD
ENDROOT
BRANCH   5  17
HETATM   17  S1  UNL     1      29.897  42.848   6.163  1.00  0.00    -0.083 SA
BRANCH  17  18
HETATM   18  C4  UNL     1      28.274  43.443   5.550  1.00  0.00     0.186 C 
BRANCH  18  19
HETATM   19  C5  UNL     1      28.257  43.170   4.101  1.00  0.00     0.244 C 
HETATM   20  O1  UNL     1      27.594  43.909   3.351  1.00  0.00    -0.271 OA
HETATM   21  N2  UNL     1      28.983  42.084   3.569  1.00  0.00    -0.253 N 
ATOM     22  H2  UNL     1      29.519  41.491   4.202  1.00  0.00     0.187 HD
BRANCH  21  23
HETATM   23  N3  UNL     1      28.989  41.798   2.213  1.00  0.00    -0.016 NA
BRANCH  23  24
HETATM   24  N4  UNL     1      29.571  42.862   1.521  1.00  0.00    -0.234 N 
HETATM   25  C6  UNL     1      29.030  43.213   0.255  1.00  0.00     0.351 C 
HETATM   26  O2  UNL     1      28.043  42.568  -0.220  1.00  0.00    -0.244 OA
HETATM   27  N5  UNL     1      29.620  44.290  -0.444  1.00  0.00    -0.257 N 
ATOM     28  H5  UNL     1      30.411  44.793  -0.042  1.00  0.00     0.191 HD
ATOM     29  H4  UNL     1      30.363  43.373   1.912  1.00  0.00     0.189 HD
BRANCH  27  30
HETATM   30  N6  UNL     1      29.112  44.658  -1.686  1.00  0.00    -0.341 N 
ATOM     31  H62 UNL     1      29.276  44.055  -2.491  1.00  0.00     0.177 HD
ATOM     32  H61 UNL     1      28.582  45.525  -1.772  1.00  0.00     0.177 HD
ENDBRANCH  27  30
ENDBRANCH  23  24
ENDBRANCH  21  23
ENDBRANCH  18  19
ENDBRANCH  17  18
ENDBRANCH   5  17
TORSDOF 6
ENDMDL
