MODEL 1
REMARK VINA RESULT: -10.374871470      0.000      0.000
REMARK  8 active torsions:
REMARK  status: ('A' for Active; 'I' for Inactive)
REMARK    1  A    between atoms: C2_2  and  O1_4 
REMARK    2  A    between atoms: C2_2  and  C4_6 
REMARK    3  A    between atoms: C7_9  and  N1_10 
REMARK    4  A    between atoms: N1_10  and  C8_12 
REMARK    5  A    between atoms: C8_12  and  C9_13 
REMARK    6  A    between atoms: C9_13  and  N2_14 
REMARK    7  A    between atoms: N2_14  and  C10_16 
REMARK    8  A    between atoms: C22_37  and  C24_39 
ROOT
HETATM    1  C10 UNL     1     -10.222 -39.961  27.775  1.00  0.00     0.037 A 
HETATM    2  C11 UNL     1      -9.787 -39.284  28.877  1.00  0.00     0.061 A 
HETATM    3  C12 UNL     1      -9.832 -39.927  30.089  1.00  0.00     0.063 A 
HETATM    4  N3  UNL     1      -9.471 -39.479  31.318  1.00  0.00    -0.299 N 
ATOM      5  H3  UNL     1      -9.093 -38.552  31.512  1.00  0.00     0.187 HD
HETATM    6  N4  UNL     1      -9.673 -40.393  32.207  1.00  0.00    -0.297 N 
ATOM      7  H4  UNL     1      -9.480 -40.292  33.204  1.00  0.00     0.187 HD
HETATM    8  C13 UNL     1     -10.199 -41.549  31.602  1.00  0.00     0.096 A 
HETATM    9  C14 UNL     1     -10.490 -42.728  32.370  1.00  0.00     0.121 A 
HETATM   10  C15 UNL     1     -10.990 -42.585  33.698  1.00  0.00     0.129 A 
HETATM   11  N5  UNL     1     -11.171 -43.780  34.225  1.00  0.00    -0.354 N 
ATOM     12  H5  UNL     1     -11.521 -43.986  35.160  1.00  0.00     0.166 HD
HETATM   13  C16 UNL     1     -10.806 -44.675  33.289  1.00  0.00     0.233 A 
HETATM   14  O2  UNL     1     -10.430 -44.002  32.261  1.00  0.00    -0.302 OA
HETATM   15  C17 UNL     1     -10.298 -41.233  30.291  1.00  0.00     0.031 A 
HETATM   16  C18 UNL     1     -10.761 -41.938  29.161  1.00  0.00    -0.011 A 
HETATM   17  C19 UNL     1     -10.687 -41.241  27.924  1.00  0.00    -0.017 A 
HETATM   18  C20 UNL     1     -11.065 -42.194  26.806  1.00  0.00     0.122 C 
HETATM   19  C21 UNL     1     -10.796 -43.497  27.517  1.00  0.00     0.267 C 
HETATM   20  F1  UNL     1     -11.370 -44.486  26.851  1.00  0.00    -0.204 F 
HETATM   21  F2  UNL     1      -9.451 -43.685  27.755  1.00  0.00    -0.204 F 
HETATM   22  C22 UNL     1     -11.489 -43.104  28.878  1.00  0.00     0.148 C 
HETATM   23  C23 UNL     1     -12.843 -42.480  28.341  1.00  0.00     0.036 C 
ENDROOT
BRANCH   1  24
HETATM   24  N2  UNL     1     -10.172 -39.325  26.513  1.00  0.00    -0.388 N 
ATOM     25  H2  UNL     1      -9.313 -39.331  25.963  1.00  0.00     0.159 HD
BRANCH  24  26
HETATM   26  C9  UNL     1     -11.356 -38.668  26.017  1.00  0.00     0.139 C 
BRANCH  26  27
HETATM   27  C8  UNL     1     -11.017 -37.275  25.474  1.00  0.00     0.133 C 
BRANCH  27  28
HETATM   28  N1  UNL     1     -10.077 -37.449  24.403  1.00  0.00    -0.416 N 
ATOM     29  H1  UNL     1      -9.965 -38.338  23.916  1.00  0.00     0.153 HD
BRANCH  28  30
HETATM   30  C7  UNL     1      -9.310 -36.294  24.066  1.00  0.00     0.076 C 
HETATM   31  C6  UNL     1      -8.522 -36.533  22.827  1.00  0.00     0.025 C 
HETATM   32  C5  UNL     1      -7.550 -35.425  22.478  1.00  0.00     0.009 C 
HETATM   33  C4  UNL     1      -6.862 -34.825  23.658  1.00  0.00     0.019 C 
HETATM   34  C26 UNL     1      -7.839 -34.475  24.770  1.00  0.00     0.009 C 
HETATM   35  C25 UNL     1      -8.450 -35.811  25.211  1.00  0.00     0.025 C 
BRANCH  33  36
HETATM   36  C2  UNL     1      -6.168 -33.554  23.223  1.00  0.00     0.054 C 
HETATM   37  C1  UNL     1      -6.244 -32.481  24.290  1.00  0.00     0.045 C 
HETATM   38  C3  UNL     1      -4.711 -33.916  22.937  1.00  0.00     0.045 C 
BRANCH  36  39
HETATM   39  O1  UNL     1      -6.731 -33.154  22.017  1.00  0.00    -0.390 OA
ATOM     40  H1  UNL     1      -6.600 -33.787  21.321  1.00  0.00     0.210 HD
ENDBRANCH  36  39
ENDBRANCH  33  36
ENDBRANCH  28  30
ENDBRANCH  27  28
ENDBRANCH  26  27
ENDBRANCH  24  26
ENDBRANCH   1  24
BRANCH  22  41
HETATM   41  C24 UNL     1     -11.952 -44.310  29.415  1.00  0.00     0.404 C 
HETATM   42  F3  UNL     1     -12.745 -43.958  30.603  1.00  0.00    -0.170 F 
HETATM   43  F4  UNL     1     -11.091 -45.161  30.111  1.00  0.00    -0.170 F 
HETATM   44  F5  UNL     1     -13.030 -44.984  28.817  1.00  0.00    -0.170 F 
ENDBRANCH  22  41
TORSDOF 8
ENDMDL
MODEL 2
REMARK VINA RESULT: -10.103715619      1.425      2.129
REMARK  8 active torsions:
REMARK  status: ('A' for Active; 'I' for Inactive)
REMARK    1  A    between atoms: C2_2  and  O1_4 
REMARK    2  A    between atoms: C2_2  and  C4_6 
REMARK    3  A    between atoms: C7_9  and  N1_10 
REMARK    4  A    between atoms: N1_10  and  C8_12 
REMARK    5  A    between atoms: C8_12  and  C9_13 
REMARK    6  A    between atoms: C9_13  and  N2_14 
REMARK    7  A    between atoms: N2_14  and  C10_16 
REMARK    8  A    between atoms: C22_37  and  C24_39 
ROOT
HETATM    1  C10 UNL     1     -11.516 -39.305  25.808  1.00  0.00     0.037 A 
HETATM    2  C11 UNL     1     -10.907 -38.457  26.688  1.00  0.00     0.061 A 
HETATM    3  C12 UNL     1     -10.538 -38.954  27.913  1.00  0.00     0.063 A 
HETATM    4  N3  UNL     1      -9.933 -38.326  28.953  1.00  0.00    -0.299 N 
ATOM      5  H3  UNL     1      -9.654 -37.345  28.959  1.00  0.00     0.187 HD
HETATM    6  N4  UNL     1      -9.759 -39.147  29.935  1.00  0.00    -0.297 N 
ATOM      7  H4  UNL     1      -9.326 -38.908  30.827  1.00  0.00     0.187 HD
HETATM    8  C13 UNL     1     -10.255 -40.418  29.595  1.00  0.00     0.096 A 
HETATM    9  C14 UNL     1     -10.160 -41.525  30.507  1.00  0.00     0.121 A 
HETATM   10  C15 UNL     1     -10.307 -41.287  31.906  1.00  0.00     0.129 A 
HETATM   11  N5  UNL     1     -10.169 -42.424  32.558  1.00  0.00    -0.354 N 
ATOM     12  H5  UNL     1     -10.226 -42.558  33.567  1.00  0.00     0.166 HD
HETATM   13  C16 UNL     1      -9.939 -43.375  31.633  1.00  0.00     0.233 A 
HETATM   14  O2  UNL     1      -9.949 -42.788  30.490  1.00  0.00    -0.302 OA
HETATM   15  C17 UNL     1     -10.740 -40.272  28.342  1.00  0.00     0.031 A 
HETATM   16  C18 UNL     1     -11.380 -41.155  27.446  1.00  0.00    -0.011 A 
HETATM   17  C19 UNL     1     -11.736 -40.603  26.184  1.00  0.00    -0.017 A 
HETATM   18  C20 UNL     1     -12.254 -41.718  25.297  1.00  0.00     0.122 C 
HETATM   19  C21 UNL     1     -11.623 -42.889  26.009  1.00  0.00     0.267 C 
HETATM   20  F1  UNL     1     -12.204 -44.010  25.610  1.00  0.00    -0.204 F 
HETATM   21  F2  UNL     1     -10.251 -42.890  25.879  1.00  0.00    -0.204 F 
HETATM   22  C22 UNL     1     -11.981 -42.423  27.472  1.00  0.00     0.148 C 
HETATM   23  C23 UNL     1     -13.504 -42.027  27.283  1.00  0.00     0.036 C 
ENDROOT
BRANCH   1  24
HETATM   24  N2  UNL     1     -11.892 -38.820  24.536  1.00  0.00    -0.388 N 
ATOM     25  H2  UNL     1     -12.091 -39.467  23.772  1.00  0.00     0.159 HD
BRANCH  24  26
HETATM   26  C9  UNL     1     -11.992 -37.395  24.334  1.00  0.00     0.139 C 
BRANCH  26  27
HETATM   27  C8  UNL     1     -11.117 -36.951  23.156  1.00  0.00     0.133 C 
BRANCH  27  28
HETATM   28  N1  UNL     1      -9.855 -37.624  23.281  1.00  0.00    -0.416 N 
ATOM     29  H1  UNL     1      -9.780 -38.641  23.298  1.00  0.00     0.153 HD
BRANCH  28  30
HETATM   30  C7  UNL     1      -8.713 -36.775  23.377  1.00  0.00     0.076 C 
HETATM   31  C6  UNL     1      -8.773 -35.956  24.618  1.00  0.00     0.025 C 
HETATM   32  C5  UNL     1      -7.688 -34.905  24.729  1.00  0.00     0.009 C 
HETATM   33  C4  UNL     1      -7.363 -34.228  23.440  1.00  0.00     0.019 C 
HETATM   34  C26 UNL     1      -7.157 -35.224  22.309  1.00  0.00     0.009 C 
HETATM   35  C25 UNL     1      -8.508 -35.932  22.140  1.00  0.00     0.025 C 
BRANCH  33  36
HETATM   36  C2  UNL     1      -6.084 -33.441  23.613  1.00  0.00     0.054 C 
HETATM   37  C1  UNL     1      -5.251 -33.971  24.763  1.00  0.00     0.045 C 
HETATM   38  C3  UNL     1      -5.308 -33.554  22.302  1.00  0.00     0.045 C 
BRANCH  36  39
HETATM   39  O1  UNL     1      -6.425 -32.102  23.769  1.00  0.00    -0.390 OA
ATOM     40  H1  UNL     1      -7.363 -31.966  23.826  1.00  0.00     0.210 HD
ENDBRANCH  36  39
ENDBRANCH  33  36
ENDBRANCH  28  30
ENDBRANCH  27  28
ENDBRANCH  26  27
ENDBRANCH  24  26
ENDBRANCH   1  24
BRANCH  22  41
HETATM   41  C24 UNL     1     -12.107 -43.602  28.212  1.00  0.00     0.404 C 
HETATM   42  F3  UNL     1     -13.199 -44.368  27.589  1.00  0.00    -0.170 F 
HETATM   43  F4  UNL     1     -12.695 -43.593  29.479  1.00  0.00    -0.170 F 
HETATM   44  F5  UNL     1     -11.188 -44.650  28.038  1.00  0.00    -0.170 F 
ENDBRANCH  22  41
TORSDOF 8
ENDMDL
MODEL 3
REMARK VINA RESULT: -10.050304273      1.566      2.034
REMARK  8 active torsions:
REMARK  status: ('A' for Active; 'I' for Inactive)
REMARK    1  A    between atoms: C2_2  and  O1_4 
REMARK    2  A    between atoms: C2_2  and  C4_6 
REMARK    3  A    between atoms: C7_9  and  N1_10 
REMARK    4  A    between atoms: N1_10  and  C8_12 
REMARK    5  A    between atoms: C8_12  and  C9_13 
REMARK    6  A    between atoms: C9_13  and  N2_14 
REMARK    7  A    between atoms: N2_14  and  C10_16 
REMARK    8  A    between atoms: C22_37  and  C24_39 
ROOT
HETATM    1  C10 UNL     1     -11.735 -39.179  25.937  1.00  0.00     0.037 A 
HETATM    2  C11 UNL     1     -11.173 -38.451  26.946  1.00  0.00     0.061 A 
HETATM    3  C12 UNL     1     -10.769 -39.119  28.075  1.00  0.00     0.063 A 
HETATM    4  N3  UNL     1     -10.198 -38.634  29.207  1.00  0.00    -0.299 N 
ATOM      5  H3  UNL     1      -9.978 -37.652  29.374  1.00  0.00     0.187 HD
HETATM    6  N4  UNL     1      -9.971 -39.592  30.042  1.00  0.00    -0.297 N 
ATOM      7  H4  UNL     1      -9.549 -39.476  30.963  1.00  0.00     0.187 HD
HETATM    8  C13 UNL     1     -10.392 -40.818  29.497  1.00  0.00     0.096 A 
HETATM    9  C14 UNL     1     -10.227 -42.051  30.217  1.00  0.00     0.121 A 
HETATM   10  C15 UNL     1     -10.381 -42.053  31.635  1.00  0.00     0.129 A 
HETATM   11  N5  UNL     1     -10.172 -43.271  32.093  1.00  0.00    -0.354 N 
ATOM     12  H5  UNL     1     -10.216 -43.571  33.067  1.00  0.00     0.166 HD
HETATM   13  C16 UNL     1      -9.891 -44.043  31.028  1.00  0.00     0.233 A 
HETATM   14  O2  UNL     1      -9.941 -43.280  29.996  1.00  0.00    -0.302 OA
HETATM   15  C17 UNL     1     -10.891 -40.499  28.283  1.00  0.00     0.031 A 
HETATM   16  C18 UNL     1     -11.481 -41.260  27.251  1.00  0.00    -0.011 A 
HETATM   17  C19 UNL     1     -11.876 -40.532  26.095  1.00  0.00    -0.017 A 
HETATM   18  C20 UNL     1     -12.332 -41.516  25.035  1.00  0.00     0.122 C 
HETATM   19  C21 UNL     1     -11.628 -42.748  25.549  1.00  0.00     0.267 C 
HETATM   20  F1  UNL     1     -12.144 -43.821  24.971  1.00  0.00    -0.204 F 
HETATM   21  F2  UNL     1     -10.259 -42.646  25.428  1.00  0.00    -0.204 F 
HETATM   22  C22 UNL     1     -12.006 -42.548  27.067  1.00  0.00     0.148 C 
HETATM   23  C23 UNL     1     -13.551 -42.219  26.938  1.00  0.00     0.036 C 
ENDROOT
BRANCH   1  24
HETATM   24  N2  UNL     1     -12.146 -38.517  24.758  1.00  0.00    -0.388 N 
ATOM     25  H2  UNL     1     -13.091 -38.139  24.678  1.00  0.00     0.159 HD
BRANCH  24  26
HETATM   26  C9  UNL     1     -11.208 -38.383  23.670  1.00  0.00     0.139 C 
BRANCH  26  27
HETATM   27  C8  UNL     1     -10.777 -36.922  23.503  1.00  0.00     0.133 C 
BRANCH  27  28
HETATM   28  N1  UNL     1      -9.519 -36.922  22.811  1.00  0.00    -0.416 N 
ATOM     29  H1  UNL     1      -9.231 -37.692  22.207  1.00  0.00     0.153 HD
BRANCH  28  30
HETATM   30  C7  UNL     1      -8.700 -35.774  23.023  1.00  0.00     0.076 C 
HETATM   31  C6  UNL     1      -7.546 -35.772  22.084  1.00  0.00     0.025 C 
HETATM   32  C5  UNL     1      -6.529 -34.679  22.340  1.00  0.00     0.009 C 
HETATM   33  C4  UNL     1      -6.274 -34.414  23.786  1.00  0.00     0.019 C 
HETATM   34  C26 UNL     1      -7.566 -34.266  24.576  1.00  0.00     0.009 C 
HETATM   35  C25 UNL     1      -8.268 -35.625  24.464  1.00  0.00     0.025 C 
BRANCH  33  36
HETATM   36  C2  UNL     1      -5.494 -33.125  23.914  1.00  0.00     0.054 C 
HETATM   37  C1  UNL     1      -4.636 -33.111  25.162  1.00  0.00     0.045 C 
HETATM   38  C3  UNL     1      -4.617 -33.008  22.668  1.00  0.00     0.045 C 
BRANCH  36  39
HETATM   39  O1  UNL     1      -6.400 -32.072  23.872  1.00  0.00    -0.390 OA
ATOM     40  H1  UNL     1      -7.034 -32.104  24.579  1.00  0.00     0.210 HD
ENDBRANCH  36  39
ENDBRANCH  33  36
ENDBRANCH  28  30
ENDBRANCH  27  28
ENDBRANCH  26  27
ENDBRANCH  24  26
ENDBRANCH   1  24
BRANCH  22  41
HETATM   41  C24 UNL     1     -12.059 -43.838  27.604  1.00  0.00     0.404 C 
HETATM   42  F3  UNL     1     -12.504 -43.689  28.999  1.00  0.00    -0.170 F 
HETATM   43  F4  UNL     1     -10.889 -44.523  27.940  1.00  0.00    -0.170 F 
HETATM   44  F5  UNL     1     -13.127 -44.695  27.289  1.00  0.00    -0.170 F 
ENDBRANCH  22  41
TORSDOF 8
ENDMDL
MODEL 4
REMARK VINA RESULT: -9.890459750      1.550      2.433
REMARK  8 active torsions:
REMARK  status: ('A' for Active; 'I' for Inactive)
REMARK    1  A    between atoms: C2_2  and  O1_4 
REMARK    2  A    between atoms: C2_2  and  C4_6 
REMARK    3  A    between atoms: C7_9  and  N1_10 
REMARK    4  A    between atoms: N1_10  and  C8_12 
REMARK    5  A    between atoms: C8_12  and  C9_13 
REMARK    6  A    between atoms: C9_13  and  N2_14 
REMARK    7  A    between atoms: N2_14  and  C10_16 
REMARK    8  A    between atoms: C22_37  and  C24_39 
ROOT
HETATM    1  C10 UNL     1     -11.058 -38.669  26.237  1.00  0.00     0.037 A 
HETATM    2  C11 UNL     1     -10.570 -38.056  27.355  1.00  0.00     0.061 A 
HETATM    3  C12 UNL     1     -10.350 -38.827  28.469  1.00  0.00     0.063 A 
HETATM    4  N3  UNL     1      -9.884 -38.466  29.692  1.00  0.00    -0.299 N 
ATOM      5  H3  UNL     1      -9.618 -37.517  29.956  1.00  0.00     0.187 HD
HETATM    6  N4  UNL     1      -9.826 -39.493  30.472  1.00  0.00    -0.297 N 
ATOM      7  H4  UNL     1      -9.509 -39.472  31.442  1.00  0.00     0.187 HD
HETATM    8  C13 UNL     1     -10.264 -40.643  29.792  1.00  0.00     0.096 A 
HETATM    9  C14 UNL     1     -10.273 -41.930  30.431  1.00  0.00     0.121 A 
HETATM   10  C15 UNL     1     -10.594 -42.015  31.818  1.00  0.00     0.129 A 
HETATM   11  N5  UNL     1     -10.527 -43.274  32.204  1.00  0.00    -0.354 N 
ATOM     12  H5  UNL     1     -10.707 -43.634  33.140  1.00  0.00     0.166 HD
HETATM   13  C16 UNL     1     -10.176 -43.992  31.121  1.00  0.00     0.233 A 
HETATM   14  O2  UNL     1     -10.050 -43.160  30.151  1.00  0.00    -0.302 OA
HETATM   15  C17 UNL     1     -10.593 -40.205  28.557  1.00  0.00     0.031 A 
HETATM   16  C18 UNL     1     -11.108 -40.846  27.410  1.00  0.00    -0.011 A 
HETATM   17  C19 UNL     1     -11.311 -40.014  26.275  1.00  0.00    -0.017 A 
HETATM   18  C20 UNL     1     -11.706 -40.886  25.099  1.00  0.00     0.122 C 
HETATM   19  C21 UNL     1     -11.156 -42.200  25.595  1.00  0.00     0.267 C 
HETATM   20  F1  UNL     1     -11.674 -43.189  24.882  1.00  0.00    -0.204 F 
HETATM   21  F2  UNL     1      -9.778 -42.199  25.638  1.00  0.00    -0.204 F 
HETATM   22  C22 UNL     1     -11.696 -42.074  27.071  1.00  0.00     0.148 C 
HETATM   23  C23 UNL     1     -13.188 -41.616  26.793  1.00  0.00     0.036 C 
ENDROOT
BRANCH   1  24
HETATM   24  N2  UNL     1     -11.279 -37.898  25.073  1.00  0.00    -0.388 N 
ATOM     25  H2  UNL     1     -12.196 -37.492  24.886  1.00  0.00     0.159 HD
BRANCH  24  26
HETATM   26  C9  UNL     1     -10.186 -37.696  24.153  1.00  0.00     0.139 C 
BRANCH  26  27
HETATM   27  C8  UNL     1      -9.673 -36.253  24.229  1.00  0.00     0.133 C 
BRANCH  27  28
HETATM   28  N1  UNL     1      -8.973 -35.981  23.005  1.00  0.00    -0.416 N 
ATOM     29  H1  UNL     1      -9.403 -36.120  22.091  1.00  0.00     0.153 HD
BRANCH  28  30
HETATM   30  C7  UNL     1      -7.638 -35.503  23.154  1.00  0.00     0.076 C 
HETATM   31  C6  UNL     1      -7.519 -34.651  24.368  1.00  0.00     0.025 C 
HETATM   32  C5  UNL     1      -6.178 -33.963  24.523  1.00  0.00     0.009 C 
HETATM   33  C4  UNL     1      -5.597 -33.466  23.242  1.00  0.00     0.019 C 
HETATM   34  C26 UNL     1      -5.636 -34.525  22.150  1.00  0.00     0.009 C 
HETATM   35  C25 UNL     1      -7.125 -34.810  21.912  1.00  0.00     0.025 C 
BRANCH  33  36
HETATM   36  C2  UNL     1      -4.154 -33.085  23.477  1.00  0.00     0.054 C 
HETATM   37  C1  UNL     1      -3.516 -33.942  24.551  1.00  0.00     0.045 C 
HETATM   38  C3  UNL     1      -3.421 -33.269  22.149  1.00  0.00     0.045 C 
BRANCH  36  39
HETATM   39  O1  UNL     1      -4.115 -31.728  23.778  1.00  0.00    -0.390 OA
ATOM     40  H1  UNL     1      -4.960 -31.306  23.682  1.00  0.00     0.210 HD
ENDBRANCH  36  39
ENDBRANCH  33  36
ENDBRANCH  28  30
ENDBRANCH  27  28
ENDBRANCH  26  27
ENDBRANCH  24  26
ENDBRANCH   1  24
BRANCH  22  41
HETATM   41  C24 UNL     1     -11.902 -43.389  27.500  1.00  0.00     0.404 C 
HETATM   42  F3  UNL     1     -12.956 -43.947  26.636  1.00  0.00    -0.170 F 
HETATM   43  F4  UNL     1     -12.588 -43.656  28.687  1.00  0.00    -0.170 F 
HETATM   44  F5  UNL     1     -10.992 -44.400  27.150  1.00  0.00    -0.170 F 
ENDBRANCH  22  41
TORSDOF 8
ENDMDL
MODEL 5
REMARK VINA RESULT: -9.805012001      2.849      4.310
REMARK  8 active torsions:
REMARK  status: ('A' for Active; 'I' for Inactive)
REMARK    1  A    between atoms: C2_2  and  O1_4 
REMARK    2  A    between atoms: C2_2  and  C4_6 
REMARK    3  A    between atoms: C7_9  and  N1_10 
REMARK    4  A    between atoms: N1_10  and  C8_12 
REMARK    5  A    between atoms: C8_12  and  C9_13 
REMARK    6  A    between atoms: C9_13  and  N2_14 
REMARK    7  A    between atoms: N2_14  and  C10_16 
REMARK    8  A    between atoms: C22_37  and  C24_39 
ROOT
HETATM    1  C10 UNL     1     -12.662 -40.319  24.333  1.00  0.00     0.037 A 
HETATM    2  C11 UNL     1     -12.507 -41.622  23.956  1.00  0.00     0.061 A 
HETATM    3  C12 UNL     1     -11.976 -42.499  24.869  1.00  0.00     0.063 A 
HETATM    4  N3  UNL     1     -11.716 -43.825  24.743  1.00  0.00    -0.299 N 
ATOM      5  H3  UNL     1     -11.895 -44.376  23.903  1.00  0.00     0.187 HD
HETATM    6  N4  UNL     1     -11.209 -44.290  25.836  1.00  0.00    -0.297 N 
ATOM      7  H4  UNL     1     -10.930 -45.260  25.984  1.00  0.00     0.187 HD
HETATM    8  C13 UNL     1     -11.099 -43.265  26.792  1.00  0.00     0.096 A 
HETATM    9  C14 UNL     1     -10.588 -43.525  28.110  1.00  0.00     0.121 A 
HETATM   10  C15 UNL     1      -9.539 -44.477  28.272  1.00  0.00     0.129 A 
HETATM   11  N5  UNL     1      -9.234 -44.575  29.551  1.00  0.00    -0.354 N 
ATOM     12  H5  UNL     1      -8.521 -45.177  29.962  1.00  0.00     0.166 HD
HETATM   13  C16 UNL     1     -10.046 -43.726  30.208  1.00  0.00     0.233 A 
HETATM   14  O2  UNL     1     -10.787 -43.164  29.322  1.00  0.00    -0.302 OA
HETATM   15  C17 UNL     1     -11.571 -42.163  26.167  1.00  0.00     0.031 A 
HETATM   16  C18 UNL     1     -11.716 -40.816  26.563  1.00  0.00    -0.011 A 
HETATM   17  C19 UNL     1     -12.279 -39.944  25.593  1.00  0.00    -0.017 A 
HETATM   18  C20 UNL     1     -12.513 -38.590  26.235  1.00  0.00     0.122 C 
HETATM   19  C21 UNL     1     -12.537 -39.025  27.680  1.00  0.00     0.267 C 
HETATM   20  F1  UNL     1     -12.398 -37.963  28.459  1.00  0.00    -0.204 F 
HETATM   21  F2  UNL     1     -13.644 -39.793  27.968  1.00  0.00    -0.204 F 
HETATM   22  C22 UNL     1     -11.282 -39.976  27.601  1.00  0.00     0.148 C 
HETATM   23  C23 UNL     1     -10.265 -39.046  26.817  1.00  0.00     0.036 C 
ENDROOT
BRANCH   1  24
HETATM   24  N2  UNL     1     -13.220 -39.400  23.415  1.00  0.00    -0.388 N 
ATOM     25  H2  UNL     1     -14.206 -39.145  23.471  1.00  0.00     0.159 HD
BRANCH  24  26
HETATM   26  C9  UNL     1     -12.371 -38.830  22.398  1.00  0.00     0.139 C 
BRANCH  26  27
HETATM   27  C8  UNL     1     -11.810 -37.478  22.854  1.00  0.00     0.133 C 
BRANCH  27  28
HETATM   28  N1  UNL     1     -10.419 -37.670  23.153  1.00  0.00    -0.416 N 
ATOM     29  H1  UNL     1     -10.013 -38.596  23.283  1.00  0.00     0.153 HD
BRANCH  28  30
HETATM   30  C7  UNL     1      -9.643 -36.477  23.258  1.00  0.00     0.076 C 
HETATM   31  C6  UNL     1      -8.400 -36.589  22.448  1.00  0.00     0.025 C 
HETATM   32  C5  UNL     1      -7.431 -35.438  22.624  1.00  0.00     0.009 C 
HETATM   33  C4  UNL     1      -7.328 -34.939  24.026  1.00  0.00     0.019 C 
HETATM   34  C26 UNL     1      -8.696 -34.707  24.650  1.00  0.00     0.009 C 
HETATM   35  C25 UNL     1      -9.363 -36.088  24.691  1.00  0.00     0.025 C 
BRANCH  33  36
HETATM   36  C2  UNL     1      -6.584 -33.623  24.020  1.00  0.00     0.054 C 
HETATM   37  C1  UNL     1      -5.261 -33.724  24.751  1.00  0.00     0.045 C 
HETATM   38  C3  UNL     1      -6.353 -33.247  22.557  1.00  0.00     0.045 C 
BRANCH  36  39
HETATM   39  O1  UNL     1      -7.425 -32.656  24.559  1.00  0.00    -0.390 OA
ATOM     40  H1  UNL     1      -7.051 -31.784  24.527  1.00  0.00     0.210 HD
ENDBRANCH  36  39
ENDBRANCH  33  36
ENDBRANCH  28  30
ENDBRANCH  27  28
ENDBRANCH  26  27
ENDBRANCH  24  26
ENDBRANCH   1  24
BRANCH  22  41
HETATM   41  C24 UNL     1     -10.723 -39.953  28.882  1.00  0.00     0.404 C 
HETATM   42  F3  UNL     1     -10.280 -38.569  29.116  1.00  0.00    -0.170 F 
HETATM   43  F4  UNL     1      -9.465 -40.508  29.124  1.00  0.00    -0.170 F 
HETATM   44  F5  UNL     1     -11.551 -39.947  30.017  1.00  0.00    -0.170 F 
ENDBRANCH  22  41
TORSDOF 8
ENDMDL
