MODEL 1
REMARK VINA RESULT: -6.619422103      0.000      0.000
REMARK  2 active torsions:
REMARK  status: ('A' for Active; 'I' for Inactive)
REMARK    1  A    between atoms: C3_4  and  O1_5 
REMARK    2  A    between atoms: C6_9  and  C7_10 
ROOT
HETATM    1  N1  UNL     1       8.031  11.273   0.731  1.00  0.00    -0.197 NA
HETATM    2  C1  UNL     1       8.283  10.535   1.594  1.00  0.00     0.067 C 
HETATM    3  C2  UNL     1       8.612   9.611   2.647  1.00  0.00     0.126 C 
HETATM    4  C3  UNL     1       9.751  10.141   3.505  1.00  0.00     0.136 C 
HETATM    5  C4  UNL     1       9.441   9.723   4.914  1.00  0.00     0.033 C 
HETATM    6  C5  UNL     1       7.990   9.300   4.958  1.00  0.00     0.009 C 
HETATM    7  C6  UNL     1       7.469   9.354   3.538  1.00  0.00     0.010 C 
ENDROOT
BRANCH   4   8
HETATM    8  O1  UNL     1      10.982   9.598   3.131  1.00  0.00    -0.394 OA
ATOM      9  H1  UNL     1      11.610   9.619   3.843  1.00  0.00     0.210 HD
ENDBRANCH   4   8
BRANCH   7  10
HETATM   10  C7  UNL     1       6.278  10.258   3.422  1.00  0.00    -0.009 C 
HETATM   11  C8  UNL     1       5.636  10.682   4.674  1.00  0.00     0.005 C 
HETATM   12  C9  UNL     1       4.270  10.149   4.945  1.00  0.00     0.000 C 
HETATM   13  C10 UNL     1       3.382  10.021   3.767  1.00  0.00     0.000 C 
HETATM   14  C11 UNL     1       4.040  10.398   2.460  1.00  0.00     0.000 C 
HETATM   15  C12 UNL     1       5.341   9.625   2.415  1.00  0.00     0.005 C 
ENDBRANCH   7  10
TORSDOF 2
ENDMDL
MODEL 2
REMARK VINA RESULT: -6.519927043      1.640      2.708
REMARK  2 active torsions:
REMARK  status: ('A' for Active; 'I' for Inactive)
REMARK    1  A    between atoms: C3_4  and  O1_5 
REMARK    2  A    between atoms: C6_9  and  C7_10 
ROOT
HETATM    1  N1  UNL     1       8.463   8.330   5.210  1.00  0.00    -0.197 NA
HETATM    2  C1  UNL     1       8.470   9.238   4.481  1.00  0.00     0.067 C 
HETATM    3  C2  UNL     1       8.502  10.367   3.591  1.00  0.00     0.126 C 
HETATM    4  C3  UNL     1       9.188  10.013   2.280  1.00  0.00     0.136 C 
HETATM    5  C4  UNL     1       8.443  10.752   1.206  1.00  0.00     0.033 C 
HETATM    6  C5  UNL     1       7.131  11.217   1.796  1.00  0.00     0.009 C 
HETATM    7  C6  UNL     1       7.152  10.856   3.266  1.00  0.00     0.010 C 
ENDROOT
BRANCH   4   8
HETATM    8  O1  UNL     1      10.525  10.418   2.266  1.00  0.00    -0.394 OA
ATOM      9  H1  UNL     1      10.869  10.472   1.382  1.00  0.00     0.210 HD
ENDBRANCH   4   8
BRANCH   7  10
HETATM   10  C7  UNL     1       5.988   9.986   3.636  1.00  0.00    -0.009 C 
HETATM   11  C8  UNL     1       5.109   9.545   2.545  1.00  0.00     0.005 C 
HETATM   12  C9  UNL     1       3.727  10.105   2.524  1.00  0.00     0.000 C 
HETATM   13  C10 UNL     1       3.085  10.287   3.847  1.00  0.00     0.000 C 
HETATM   14  C11 UNL     1       3.975   9.928   5.013  1.00  0.00     0.000 C 
HETATM   15  C12 UNL     1       5.275  10.669   4.784  1.00  0.00     0.005 C 
ENDBRANCH   7  10
TORSDOF 2
ENDMDL
MODEL 3
REMARK VINA RESULT: -6.371615357      1.804      2.572
REMARK  2 active torsions:
REMARK  status: ('A' for Active; 'I' for Inactive)
REMARK    1  A    between atoms: C3_4  and  O1_5 
REMARK    2  A    between atoms: C6_9  and  C7_10 
ROOT
HETATM    1  N1  UNL     1      11.188  11.202   1.829  1.00  0.00    -0.197 NA
HETATM    2  C1  UNL     1      11.113  10.578   2.808  1.00  0.00     0.067 C 
HETATM    3  C2  UNL     1      11.043   9.794   4.012  1.00  0.00     0.126 C 
HETATM    4  C3  UNL     1      11.804  10.462   5.147  1.00  0.00     0.136 C 
HETATM    5  C4  UNL     1      11.013  10.195   6.395  1.00  0.00     0.033 C 
HETATM    6  C5  UNL     1       9.639   9.724   5.974  1.00  0.00     0.009 C 
HETATM    7  C6  UNL     1       9.657   9.595   4.466  1.00  0.00     0.010 C 
ENDROOT
BRANCH   4   8
HETATM    8  O1  UNL     1      13.086   9.928   5.301  1.00  0.00    -0.394 OA
ATOM      9  H1  UNL     1      13.307   9.793   6.214  1.00  0.00     0.210 HD
ENDBRANCH   4   8
BRANCH   7  10
HETATM   10  C7  UNL     1       8.588  10.433   3.828  1.00  0.00    -0.009 C 
HETATM   11  C8  UNL     1       7.754  11.246   4.723  1.00  0.00     0.005 C 
HETATM   12  C9  UNL     1       6.322  10.849   4.854  1.00  0.00     0.000 C 
HETATM   13  C10 UNL     1       5.672  10.365   3.615  1.00  0.00     0.000 C 
HETATM   14  C11 UNL     1       6.599  10.294   2.424  1.00  0.00     0.000 C 
HETATM   15  C12 UNL     1       7.816   9.526   2.894  1.00  0.00     0.005 C 
ENDBRANCH   7  10
TORSDOF 2
ENDMDL
MODEL 4
REMARK VINA RESULT: -6.342021382      7.804      9.990
REMARK  2 active torsions:
REMARK  status: ('A' for Active; 'I' for Inactive)
REMARK    1  A    between atoms: C3_4  and  O1_5 
REMARK    2  A    between atoms: C6_9  and  C7_10 
ROOT
HETATM    1  N1  UNL     1      16.902  14.354  -1.112  1.00  0.00    -0.197 NA
HETATM    2  C1  UNL     1      16.096  13.738  -0.542  1.00  0.00     0.067 C 
HETATM    3  C2  UNL     1      15.108  12.986   0.185  1.00  0.00     0.126 C 
HETATM    4  C3  UNL     1      13.834  13.795   0.375  1.00  0.00     0.136 C 
HETATM    5  C4  UNL     1      12.699  12.819   0.255  1.00  0.00     0.033 C 
HETATM    6  C5  UNL     1      13.246  11.554  -0.366  1.00  0.00     0.009 C 
HETATM    7  C6  UNL     1      14.742  11.738  -0.504  1.00  0.00     0.010 C 
ENDROOT
BRANCH   4   8
HETATM    8  O1  UNL     1      13.782  14.398   1.634  1.00  0.00    -0.394 OA
ATOM      9  H1  UNL     1      13.151  13.975   2.204  1.00  0.00     0.210 HD
ENDBRANCH   4   8
BRANCH   7  10
HETATM   10  C7  UNL     1      15.190  11.569  -1.925  1.00  0.00    -0.009 C 
HETATM   11  C8  UNL     1      14.164  11.700  -2.969  1.00  0.00     0.005 C 
HETATM   12  C9  UNL     1      13.804  10.462  -3.719  1.00  0.00     0.000 C 
HETATM   13  C10 UNL     1      14.925   9.540  -4.015  1.00  0.00     0.000 C 
HETATM   14  C11 UNL     1      16.251   9.985  -3.446  1.00  0.00     0.000 C 
HETATM   15  C12 UNL     1      15.992  10.287  -1.985  1.00  0.00     0.005 C 
ENDBRANCH   7  10
TORSDOF 2
ENDMDL
MODEL 5
REMARK VINA RESULT: -6.260730121      7.308      9.707
REMARK  2 active torsions:
REMARK  status: ('A' for Active; 'I' for Inactive)
REMARK    1  A    between atoms: C3_4  and  O1_5 
REMARK    2  A    between atoms: C6_9  and  C7_10 
ROOT
HETATM    1  N1  UNL     1      12.096  11.360   0.720  1.00  0.00    -0.197 NA
HETATM    2  C1  UNL     1      12.704  12.258   0.298  1.00  0.00     0.067 C 
HETATM    3  C2  UNL     1      13.443  13.383  -0.207  1.00  0.00     0.126 C 
HETATM    4  C3  UNL     1      14.676  13.657   0.641  1.00  0.00     0.136 C 
HETATM    5  C4  UNL     1      15.750  14.093  -0.313  1.00  0.00     0.033 C 
HETATM    6  C5  UNL     1      15.301  13.723  -1.709  1.00  0.00     0.009 C 
HETATM    7  C6  UNL     1      13.896  13.174  -1.592  1.00  0.00     0.010 C 
ENDROOT
BRANCH   4   8
HETATM    8  O1  UNL     1      14.454  14.675   1.570  1.00  0.00    -0.394 OA
ATOM      9  H1  UNL     1      14.650  14.396   2.456  1.00  0.00     0.210 HD
ENDBRANCH   4   8
BRANCH   7  10
HETATM   10  C7  UNL     1      13.798  11.787  -2.155  1.00  0.00    -0.009 C 
HETATM   11  C8  UNL     1      14.830  10.825  -1.746  1.00  0.00     0.005 C 
HETATM   12  C9  UNL     1      15.791  10.380  -2.796  1.00  0.00     0.000 C 
HETATM   13  C10 UNL     1      15.223  10.192  -4.151  1.00  0.00     0.000 C 
HETATM   14  C11 UNL     1      13.758  10.548  -4.256  1.00  0.00     0.000 C 
HETATM   15  C12 UNL     1      13.625  11.930  -3.652  1.00  0.00     0.005 C 
ENDBRANCH   7  10
TORSDOF 2
ENDMDL
