MODEL 1
REMARK VINA RESULT: -5.962494909      0.000      0.000
REMARK  2 active torsions:
REMARK  status: ('A' for Active; 'I' for Inactive)
REMARK    1  A    between atoms: C2_2  and  C3_3 
REMARK    2  A    between atoms: N1_13  and  N2_14 
ROOT
HETATM    1  C3  UNL     1      14.630   9.079  -3.354  1.00  0.00     0.101 C 
HETATM    2  C4  UNL     1      15.887   9.138  -2.546  1.00  0.00     0.025 C 
HETATM    3  C5  UNL     1      15.694   9.562  -1.129  1.00  0.00     0.002 C 
HETATM    4  C6  UNL     1      16.901  10.349  -0.606  1.00  0.00     0.000 C 
HETATM    5  C7  UNL     1      16.478  11.573   0.157  1.00  0.00     0.000 C 
HETATM    6  C8  UNL     1      16.471  12.817  -0.729  1.00  0.00     0.000 C 
HETATM    7  C9  UNL     1      15.089  13.435  -0.794  1.00  0.00     0.000 C 
HETATM    8  C10 UNL     1      14.601  13.569  -2.214  1.00  0.00     0.001 C 
HETATM    9  C11 UNL     1      13.608  12.514  -2.587  1.00  0.00     0.016 C 
HETATM   10  C12 UNL     1      14.274  11.385  -3.356  1.00  0.00     0.114 C 
HETATM   11  N1  UNL     1      13.677  10.102  -3.025  1.00  0.00    -0.230 NA
ENDROOT
BRANCH  11  12
HETATM   12  N2  UNL     1      12.596   9.951  -3.934  1.00  0.00    -0.363 NA
ATOM     13  H22 UNL     1      12.764   9.061  -4.402  1.00  0.00     0.171 HD
ATOM     14  H21 UNL     1      11.754   9.848  -3.367  1.00  0.00     0.171 HD
ENDBRANCH  11  12
BRANCH   1  15
HETATM   15  C2  UNL     1      14.071   7.710  -3.301  1.00  0.00    -0.016 C 
HETATM   16  C1  UNL     1      14.424   6.719  -4.074  1.00  0.00     0.008 C 
ENDBRANCH   1  15
TORSDOF 2
ENDMDL
MODEL 2
REMARK VINA RESULT: -5.463481819      2.336      3.421
REMARK  2 active torsions:
REMARK  status: ('A' for Active; 'I' for Inactive)
REMARK    1  A    between atoms: C2_2  and  C3_3 
REMARK    2  A    between atoms: N1_13  and  N2_14 
ROOT
HETATM    1  C3  UNL     1      14.293   9.593  -1.281  1.00  0.00     0.101 C 
HETATM    2  C4  UNL     1      14.167  10.776  -2.188  1.00  0.00     0.025 C 
HETATM    3  C5  UNL     1      15.112  11.890  -1.889  1.00  0.00     0.002 C 
HETATM    4  C6  UNL     1      14.495  13.256  -2.213  1.00  0.00     0.000 C 
HETATM    5  C7  UNL     1      14.749  14.254  -1.119  1.00  0.00     0.000 C 
HETATM    6  C8  UNL     1      13.580  14.331  -0.139  1.00  0.00     0.000 C 
HETATM    7  C9  UNL     1      14.019  13.972   1.266  1.00  0.00     0.000 C 
HETATM    8  C10 UNL     1      13.202  12.841   1.838  1.00  0.00     0.001 C 
HETATM    9  C11 UNL     1      13.927  11.532   1.808  1.00  0.00     0.016 C 
HETATM   10  C12 UNL     1      13.495  10.697   0.614  1.00  0.00     0.114 C 
HETATM   11  N1  UNL     1      14.610   9.932   0.079  1.00  0.00    -0.230 NA
ENDROOT
BRANCH  11  12
HETATM   12  N2  UNL     1      14.606   8.713   0.808  1.00  0.00    -0.363 NA
ATOM     13  H22 UNL     1      13.645   8.597   1.126  1.00  0.00     0.171 HD
ATOM     14  H21 UNL     1      14.801   7.973   0.133  1.00  0.00     0.171 HD
ENDBRANCH  11  12
BRANCH   1  15
HETATM   15  C2  UNL     1      15.223   8.609  -1.876  1.00  0.00    -0.016 C 
HETATM   16  C1  UNL     1      14.955   7.837  -2.895  1.00  0.00     0.008 C 
ENDBRANCH   1  15
TORSDOF 2
ENDMDL
MODEL 3
REMARK VINA RESULT: -5.434860647      1.013      1.045
REMARK  2 active torsions:
REMARK  status: ('A' for Active; 'I' for Inactive)
REMARK    1  A    between atoms: C2_2  and  C3_3 
REMARK    2  A    between atoms: N1_13  and  N2_14 
ROOT
HETATM    1  C3  UNL     1      14.512   9.385  -2.914  1.00  0.00     0.101 C 
HETATM    2  C4  UNL     1      15.387   9.230  -1.711  1.00  0.00     0.025 C 
HETATM    3  C5  UNL     1      14.725   9.561  -0.416  1.00  0.00     0.002 C 
HETATM    4  C6  UNL     1      15.717  10.155   0.590  1.00  0.00     0.000 C 
HETATM    5  C7  UNL     1      15.146  11.357   1.289  1.00  0.00     0.000 C 
HETATM    6  C8  UNL     1      15.566  12.659   0.610  1.00  0.00     0.000 C 
HETATM    7  C9  UNL     1      14.360  13.440   0.130  1.00  0.00     0.000 C 
HETATM    8  C10 UNL     1      14.439  13.743  -1.345  1.00  0.00     0.001 C 
HETATM    9  C11 UNL     1      13.567  12.847  -2.167  1.00  0.00     0.016 C 
HETATM   10  C12 UNL     1      14.374  11.710  -2.774  1.00  0.00     0.114 C 
HETATM   11  N1  UNL     1      13.593  10.485  -2.829  1.00  0.00    -0.230 NA
ENDROOT
BRANCH  11  12
HETATM   12  N2  UNL     1      12.911  10.536  -4.074  1.00  0.00    -0.363 NA
ATOM     13  H22 UNL     1      12.868   9.569  -4.394  1.00  0.00     0.171 HD
ATOM     14  H21 UNL     1      11.958  10.837  -3.870  1.00  0.00     0.171 HD
ENDBRANCH  11  12
BRANCH   1  15
HETATM   15  C2  UNL     1      13.862   8.093  -3.224  1.00  0.00    -0.016 C 
HETATM   16  C1  UNL     1      14.408   7.114  -3.894  1.00  0.00     0.008 C 
ENDBRANCH   1  15
TORSDOF 2
ENDMDL
MODEL 4
REMARK VINA RESULT: -5.376306965      2.103      5.283
REMARK  2 active torsions:
REMARK  status: ('A' for Active; 'I' for Inactive)
REMARK    1  A    between atoms: C2_2  and  C3_3 
REMARK    2  A    between atoms: N1_13  and  N2_14 
ROOT
HETATM    1  C3  UNL     1      15.150  13.159  -0.517  1.00  0.00     0.101 C 
HETATM    2  C4  UNL     1      14.525  13.410  -1.853  1.00  0.00     0.025 C 
HETATM    3  C5  UNL     1      13.639  12.313  -2.338  1.00  0.00     0.002 C 
HETATM    4  C6  UNL     1      13.676  12.191  -3.866  1.00  0.00     0.000 C 
HETATM    5  C7  UNL     1      13.794  10.758  -4.306  1.00  0.00     0.000 C 
HETATM    6  C8  UNL     1      15.245  10.365  -4.571  1.00  0.00     0.000 C 
HETATM    7  C9  UNL     1      15.675   9.223  -3.673  1.00  0.00     0.000 C 
HETATM    8  C10 UNL     1      16.902   9.573  -2.869  1.00  0.00     0.001 C 
HETATM    9  C11 UNL     1      16.582   9.917  -1.448  1.00  0.00     0.016 C 
HETATM   10  C12 UNL     1      16.524  11.423  -1.251  1.00  0.00     0.114 C 
HETATM   11  N1  UNL     1      15.500  11.786  -0.285  1.00  0.00    -0.230 NA
ENDROOT
BRANCH  11  12
HETATM   12  N2  UNL     1      16.150  11.745   0.977  1.00  0.00    -0.363 NA
ATOM     13  H22 UNL     1      15.744  12.513   1.510  1.00  0.00     0.171 HD
ATOM     14  H21 UNL     1      15.862  10.873   1.422  1.00  0.00     0.171 HD
ENDBRANCH  11  12
BRANCH   1  15
HETATM   15  C2  UNL     1      14.298  13.740   0.545  1.00  0.00    -0.016 C 
HETATM   16  C1  UNL     1      13.113  14.257   0.364  1.00  0.00     0.008 C 
ENDBRANCH   1  15
TORSDOF 2
ENDMDL
MODEL 5
REMARK VINA RESULT: -5.347475675      3.179      4.980
REMARK  2 active torsions:
REMARK  status: ('A' for Active; 'I' for Inactive)
REMARK    1  A    between atoms: C2_2  and  C3_3 
REMARK    2  A    between atoms: N1_13  and  N2_14 
ROOT
HETATM    1  C3  UNL     1      14.364  10.426   2.304  1.00  0.00     0.101 C 
HETATM    2  C4  UNL     1      14.096  11.872   2.579  1.00  0.00     0.025 C 
HETATM    3  C5  UNL     1      13.066  12.490   1.695  1.00  0.00     0.002 C 
HETATM    4  C6  UNL     1      13.364  13.970   1.429  1.00  0.00     0.000 C 
HETATM    5  C7  UNL     1      13.187  14.320  -0.022  1.00  0.00     0.000 C 
HETATM    6  C8  UNL     1      14.509  14.259  -0.784  1.00  0.00     0.000 C 
HETATM    7  C9  UNL     1      14.444  13.248  -1.911  1.00  0.00     0.000 C 
HETATM    8  C10 UNL     1      15.540  12.217  -1.803  1.00  0.00     0.001 C 
HETATM    9  C11 UNL     1      15.053  10.910  -1.263  1.00  0.00     0.016 C 
HETATM   10  C12 UNL     1      15.353  10.788   0.223  1.00  0.00     0.114 C 
HETATM   11  N1  UNL     1      14.293  10.073   0.914  1.00  0.00    -0.230 NA
ENDROOT
BRANCH  11  12
HETATM   12  N2  UNL     1      14.653   8.702   0.829  1.00  0.00    -0.363 NA
ATOM     13  H22 UNL     1      13.883   8.255   0.332  1.00  0.00     0.171 HD
ATOM     14  H21 UNL     1      15.477   8.657   0.228  1.00  0.00     0.171 HD
ENDBRANCH  11  12
BRANCH   1  15
HETATM   15  C2  UNL     1      13.505   9.590   3.172  1.00  0.00    -0.016 C 
HETATM   16  C1  UNL     1      13.189   9.861   4.409  1.00  0.00     0.008 C 
ENDBRANCH   1  15
TORSDOF 2
ENDMDL
