MODEL 1
REMARK VINA RESULT: -7.333059881      0.000      0.000
REMARK  12 active torsions:
REMARK  status: ('A' for Active; 'I' for Inactive)
REMARK    1  A    between atoms: C3_3  and  N1_4 
REMARK    2  A    between atoms: C8_13  and  N4_14 
REMARK    3  A    between atoms: N4_14  and  N5_16 
REMARK    4  A    between atoms: N5_16  and  O1_20 
REMARK    5  A    between atoms: C9_22  and  C10_23 
REMARK    6  A    between atoms: C10_23  and  C11_24 
REMARK    7  A    between atoms: C10_23  and  O3_27 
REMARK    8  A    between atoms: C11_24  and  O2_25 
REMARK    9  A    between atoms: O3_27  and  C12_28 
REMARK   10  A    between atoms: C13_29  and  O4_30 
REMARK   11  A    between atoms: C13_29  and  C14_32 
REMARK   12  A    between atoms: C14_32  and  N7_33 
ROOT
HETATM    1  N7  UNL     1      -2.746  10.813  51.409  1.00  0.00    -0.268 N 
HETATM    2  N8  UNL     1      -2.323  11.428  52.504  1.00  0.00    -0.282 N 
ATOM      3  H8  UNL     1      -2.180  12.434  52.592  1.00  0.00     0.188 HD
HETATM    4  C15 UNL     1      -2.108  10.522  53.493  1.00  0.00     0.155 A 
HETATM    5  N9  UNL     1      -1.662  10.733  54.809  1.00  0.00    -0.080 NA
HETATM    6  C16 UNL     1      -2.417   9.304  52.971  1.00  0.00     0.132 A 
HETATM    7  C17 UNL     1      -2.341   8.022  53.643  1.00  0.00     0.107 C 
HETATM    8  N10 UNL     1      -2.300   6.986  54.187  1.00  0.00    -0.191 NA
HETATM    9  C18 UNL     1      -2.821   9.502  51.644  1.00  0.00     0.140 A 
HETATM   10  N11 UNL     1      -3.163   8.525  50.892  1.00  0.00    -0.383 N 
ATOM     11 1H11 UNL     1      -3.221   7.523  51.072  1.00  0.00     0.157 HD
ATOM     12 2H11 UNL     1      -3.457   8.670  49.926  1.00  0.00     0.157 HD
ENDROOT
BRANCH   1  13
HETATM   13  C14 UNL     1      -3.090  11.378  50.084  1.00  0.00     0.217 C 
BRANCH  13  14
HETATM   14  C13 UNL     1      -3.405  12.777  50.165  1.00  0.00     0.085 C 
HETATM   15  C12 UNL     1      -3.758  13.783  49.231  1.00  0.00     0.176 C 
BRANCH  15  16
HETATM   16  O3  UNL     1      -3.830  13.815  47.900  1.00  0.00    -0.320 OA
BRANCH  16  17
HETATM   17  C10 UNL     1      -4.955  13.660  47.216  1.00  0.00     0.106 C 
BRANCH  17  18
HETATM   18  C9  UNL     1      -5.086  14.029  45.832  1.00  0.00     0.111 A 
HETATM   19  C3  UNL     1      -5.168  15.342  45.356  1.00  0.00     0.128 A 
HETATM   20  C2  UNL     1      -5.463  15.293  44.020  1.00  0.00     0.056 A 
HETATM   21  C1  UNL     1      -5.622  16.422  43.069  1.00  0.00     0.072 C 
HETATM   22  N13 UNL     1      -5.557  13.998  43.673  1.00  0.00    -0.298 N 
HETATM   23  N12 UNL     1      -5.334  13.270  44.731  1.00  0.00    -0.294 N 
HETATM   24  C19 UNL     1      -5.846  13.444  42.354  1.00  0.00     0.177 C 
ATOM     25  H12 UNL     1      -5.344  12.250  44.733  1.00  0.00     0.187 HD
BRANCH  19  26
HETATM   26  N1  UNL     1      -4.755  16.491  46.075  1.00  0.00    -0.085 N 
HETATM   27  N2  UNL     1      -5.831  17.075  46.789  1.00  0.00    -0.308 N 
HETATM   28  C4  UNL     1      -5.533  17.956  47.812  1.00  0.00     0.123 C 
ATOM     29  H2  UNL     1      -6.798  16.852  46.555  1.00  0.00     0.181 HD
HETATM   30  C5  UNL     1      -5.219  17.311  49.132  1.00  0.00     0.031 C 
HETATM   31  C7  UNL     1      -4.185  18.605  47.781  1.00  0.00     0.123 C 
HETATM   32  C6  UNL     1      -4.041  18.240  49.241  1.00  0.00     0.030 C 
HETATM   33  N3  UNL     1      -3.207  18.022  46.956  1.00  0.00    -0.216 N 
HETATM   34  C8  UNL     1      -3.482  17.013  46.141  1.00  0.00     0.717 C 
ATOM     35  H3  UNL     1      -2.255  18.388  46.985  1.00  0.00     0.178 HD
BRANCH  34  36
HETATM   36  N4  UNL     1      -2.368  16.586  45.396  1.00  0.00    -0.089 N 
ATOM     37  H4  UNL     1      -2.260  15.599  45.161  1.00  0.00     0.210 HD
BRANCH  36  38
HETATM   38  N5  UNL     1      -1.411  17.511  44.978  1.00  0.00    -0.087 N 
HETATM   39  N6  UNL     1      -1.426  18.148  43.901  1.00  0.00    -0.303 N 
ATOM     40  H62 UNL     1      -2.199  17.992  43.254  1.00  0.00     0.181 HD
ATOM     41  H61 UNL     1      -0.726  18.825  43.595  1.00  0.00     0.181 HD
BRANCH  38  42
HETATM   42  O1  UNL     1      -0.359  17.724  45.857  1.00  0.00    -0.253 OA
ATOM     43  H1  UNL     1       0.430  18.089  45.473  1.00  0.00     0.248 HD
ENDBRANCH  38  42
ENDBRANCH  36  38
ENDBRANCH  34  36
ENDBRANCH  19  26
ENDBRANCH  17  18
BRANCH  17  44
HETATM   44  C11 UNL     1      -5.994  12.633  47.712  1.00  0.00     0.231 C 
BRANCH  44  45
HETATM   45  O2  UNL     1      -7.139  12.853  46.977  1.00  0.00    -0.394 OA
ATOM     46  H2  UNL     1      -7.782  12.228  47.290  1.00  0.00     0.209 HD
ENDBRANCH  44  45
ENDBRANCH  17  44
ENDBRANCH  16  17
ENDBRANCH  15  16
BRANCH  14  47
HETATM   47  O4  UNL     1      -3.349  13.249  51.389  1.00  0.00    -0.361 OA
ATOM     48  H4  UNL     1      -3.554  12.582  52.033  1.00  0.00     0.217 HD
ENDBRANCH  14  47
ENDBRANCH  13  14
ENDBRANCH   1  13
TORSDOF 12
ENDMDL
MODEL 2
REMARK VINA RESULT: -7.036185112      1.567      2.508
REMARK  12 active torsions:
REMARK  status: ('A' for Active; 'I' for Inactive)
REMARK    1  A    between atoms: C3_3  and  N1_4 
REMARK    2  A    between atoms: C8_13  and  N4_14 
REMARK    3  A    between atoms: N4_14  and  N5_16 
REMARK    4  A    between atoms: N5_16  and  O1_20 
REMARK    5  A    between atoms: C9_22  and  C10_23 
REMARK    6  A    between atoms: C10_23  and  C11_24 
REMARK    7  A    between atoms: C10_23  and  O3_27 
REMARK    8  A    between atoms: C11_24  and  O2_25 
REMARK    9  A    between atoms: O3_27  and  C12_28 
REMARK   10  A    between atoms: C13_29  and  O4_30 
REMARK   11  A    between atoms: C13_29  and  C14_32 
REMARK   12  A    between atoms: C14_32  and  N7_33 
ROOT
HETATM    1  N7  UNL     1      -2.740  10.623  51.578  1.00  0.00    -0.268 N 
HETATM    2  N8  UNL     1      -2.497  11.216  52.738  1.00  0.00    -0.282 N 
ATOM      3  H8  UNL     1      -2.446  12.226  52.880  1.00  0.00     0.188 HD
HETATM    4  C15 UNL     1      -2.326  10.285  53.711  1.00  0.00     0.155 A 
HETATM    5  N9  UNL     1      -2.053  10.467  55.077  1.00  0.00    -0.080 NA
HETATM    6  C16 UNL     1      -2.474   9.072  53.111  1.00  0.00     0.132 A 
HETATM    7  C17 UNL     1      -2.374   7.770  53.739  1.00  0.00     0.107 C 
HETATM    8  N10 UNL     1      -2.313   6.716  54.245  1.00  0.00    -0.191 NA
HETATM    9  C18 UNL     1      -2.737   9.301  51.754  1.00  0.00     0.140 A 
HETATM   10  N11 UNL     1      -2.911   8.337  50.930  1.00  0.00    -0.383 N 
ATOM     11 1H11 UNL     1      -2.909   7.326  51.065  1.00  0.00     0.157 HD
ATOM     12 2H11 UNL     1      -3.102   8.504  49.942  1.00  0.00     0.157 HD
ENDROOT
BRANCH   1  13
HETATM   13  C14 UNL     1      -2.974  11.221  50.244  1.00  0.00     0.217 C 
BRANCH  13  14
HETATM   14  C13 UNL     1      -3.345  12.607  50.336  1.00  0.00     0.085 C 
HETATM   15  C12 UNL     1      -3.763  13.599  49.414  1.00  0.00     0.176 C 
BRANCH  15  16
HETATM   16  O3  UNL     1      -3.869  13.630  48.086  1.00  0.00    -0.320 OA
BRANCH  16  17
HETATM   17  C10 UNL     1      -4.984  13.348  47.425  1.00  0.00     0.106 C 
BRANCH  17  18
HETATM   18  C9  UNL     1      -5.163  13.650  46.030  1.00  0.00     0.111 A 
HETATM   19  C3  UNL     1      -5.224  14.938  45.490  1.00  0.00     0.128 A 
HETATM   20  C2  UNL     1      -5.579  14.831  44.171  1.00  0.00     0.056 A 
HETATM   21  C1  UNL     1      -5.744  15.914  43.170  1.00  0.00     0.072 C 
HETATM   22  N13 UNL     1      -5.729  13.524  43.898  1.00  0.00    -0.298 N 
HETATM   23  N12 UNL     1      -5.483  12.844  44.983  1.00  0.00    -0.294 N 
HETATM   24  C19 UNL     1      -6.094  12.912  42.624  1.00  0.00     0.177 C 
ATOM     25  H12 UNL     1      -5.526  11.827  45.039  1.00  0.00     0.187 HD
BRANCH  19  26
HETATM   26  N1  UNL     1      -4.743  16.109  46.129  1.00  0.00    -0.085 N 
HETATM   27  N2  UNL     1      -3.393  15.966  46.533  1.00  0.00    -0.308 N 
HETATM   28  C4  UNL     1      -2.675  17.111  46.825  1.00  0.00     0.123 C 
ATOM     29  H2  UNL     1      -2.963  15.044  46.607  1.00  0.00     0.181 HD
HETATM   30  C5  UNL     1      -2.077  17.804  45.633  1.00  0.00     0.031 C 
HETATM   31  C7  UNL     1      -3.460  18.337  47.173  1.00  0.00     0.123 C 
HETATM   32  C6  UNL     1      -2.589  19.099  46.200  1.00  0.00     0.030 C 
HETATM   33  N3  UNL     1      -4.824  18.347  46.835  1.00  0.00    -0.216 N 
HETATM   34  C8  UNL     1      -5.436  17.281  46.338  1.00  0.00     0.717 C 
ATOM     35  H3  UNL     1      -5.361  19.203  46.978  1.00  0.00     0.178 HD
BRANCH  34  36
HETATM   36  N4  UNL     1      -6.801  17.499  46.079  1.00  0.00    -0.089 N 
ATOM     37  H4  UNL     1      -7.365  16.759  45.660  1.00  0.00     0.210 HD
BRANCH  36  38
HETATM   38  N5  UNL     1      -7.385  18.727  46.395  1.00  0.00    -0.087 N 
HETATM   39  N6  UNL     1      -7.856  19.548  45.577  1.00  0.00    -0.303 N 
ATOM     40  H62 UNL     1      -7.820  19.321  44.583  1.00  0.00     0.181 HD
ATOM     41  H61 UNL     1      -8.283  20.446  45.808  1.00  0.00     0.181 HD
BRANCH  38  42
HETATM   42  O1  UNL     1      -7.433  19.037  47.746  1.00  0.00    -0.253 OA
ATOM     43  H1  UNL     1      -8.115  19.648  48.003  1.00  0.00     0.248 HD
ENDBRANCH  38  42
ENDBRANCH  36  38
ENDBRANCH  34  36
ENDBRANCH  19  26
ENDBRANCH  17  18
BRANCH  17  44
HETATM   44  C11 UNL     1      -5.920  12.254  47.976  1.00  0.00     0.231 C 
BRANCH  44  45
HETATM   45  O2  UNL     1      -7.076  12.894  48.368  1.00  0.00    -0.394 OA
ATOM     46  H2  UNL     1      -7.156  13.664  47.818  1.00  0.00     0.209 HD
ENDBRANCH  44  45
ENDBRANCH  17  44
ENDBRANCH  16  17
ENDBRANCH  15  16
BRANCH  14  47
HETATM   47  O4  UNL     1      -3.278  13.078  51.560  1.00  0.00    -0.361 OA
ATOM     48  H4  UNL     1      -3.542  12.429  52.202  1.00  0.00     0.217 HD
ENDBRANCH  14  47
ENDBRANCH  13  14
ENDBRANCH   1  13
TORSDOF 12
ENDMDL
MODEL 3
REMARK VINA RESULT: -6.943678176      1.835      4.318
REMARK  12 active torsions:
REMARK  status: ('A' for Active; 'I' for Inactive)
REMARK    1  A    between atoms: C3_3  and  N1_4 
REMARK    2  A    between atoms: C8_13  and  N4_14 
REMARK    3  A    between atoms: N4_14  and  N5_16 
REMARK    4  A    between atoms: N5_16  and  O1_20 
REMARK    5  A    between atoms: C9_22  and  C10_23 
REMARK    6  A    between atoms: C10_23  and  C11_24 
REMARK    7  A    between atoms: C10_23  and  O3_27 
REMARK    8  A    between atoms: C11_24  and  O2_25 
REMARK    9  A    between atoms: O3_27  and  C12_28 
REMARK   10  A    between atoms: C13_29  and  O4_30 
REMARK   11  A    between atoms: C13_29  and  C14_32 
REMARK   12  A    between atoms: C14_32  and  N7_33 
ROOT
HETATM    1  N7  UNL     1      -3.061  10.636  51.872  1.00  0.00    -0.268 N 
HETATM    2  N8  UNL     1      -3.112  11.056  53.128  1.00  0.00    -0.282 N 
ATOM      3  H8  UNL     1      -3.300  12.016  53.417  1.00  0.00     0.188 HD
HETATM    4  C15 UNL     1      -2.879  10.020  53.974  1.00  0.00     0.155 A 
HETATM    5  N9  UNL     1      -2.840  10.013  55.380  1.00  0.00    -0.080 NA
HETATM    6  C16 UNL     1      -2.679   8.924  53.194  1.00  0.00     0.132 A 
HETATM    7  C17 UNL     1      -2.387   7.576  53.640  1.00  0.00     0.107 C 
HETATM    8  N10 UNL     1      -2.169   6.482  53.996  1.00  0.00    -0.191 NA
HETATM    9  C18 UNL     1      -2.797   9.329  51.858  1.00  0.00     0.140 A 
HETATM   10  N11 UNL     1      -2.644   8.506  50.889  1.00  0.00    -0.383 N 
ATOM     11 1H11 UNL     1      -2.443   7.507  50.878  1.00  0.00     0.157 HD
ATOM     12 2H11 UNL     1      -2.730   8.801  49.916  1.00  0.00     0.157 HD
ENDROOT
BRANCH   1  13
HETATM   13  C14 UNL     1      -3.233  11.400  50.615  1.00  0.00     0.217 C 
BRANCH  13  14
HETATM   14  C13 UNL     1      -2.860  12.779  50.771  1.00  0.00     0.085 C 
HETATM   15  C12 UNL     1      -3.308  14.009  50.228  1.00  0.00     0.176 C 
BRANCH  15  16
HETATM   16  O3  UNL     1      -4.191  14.326  49.281  1.00  0.00    -0.320 OA
BRANCH  16  17
HETATM   17  C10 UNL     1      -4.442  15.568  48.890  1.00  0.00     0.106 C 
BRANCH  17  18
HETATM   18  C9  UNL     1      -3.855  16.150  47.713  1.00  0.00     0.111 A 
HETATM   19  C3  UNL     1      -4.067  15.701  46.405  1.00  0.00     0.128 A 
HETATM   20  C2  UNL     1      -3.212  16.379  45.578  1.00  0.00     0.056 A 
HETATM   21  C1  UNL     1      -3.079  16.275  44.103  1.00  0.00     0.072 C 
HETATM   22  N13 UNL     1      -2.496  17.223  46.341  1.00  0.00    -0.298 N 
HETATM   23  N12 UNL     1      -2.877  17.086  47.579  1.00  0.00    -0.294 N 
HETATM   24  C19 UNL     1      -1.463  18.160  45.910  1.00  0.00     0.177 C 
ATOM     25  H12 UNL     1      -2.488  17.618  48.358  1.00  0.00     0.187 HD
BRANCH  19  26
HETATM   26  N1  UNL     1      -5.155  14.891  45.993  1.00  0.00    -0.085 N 
HETATM   27  N2  UNL     1      -6.125  15.641  45.284  1.00  0.00    -0.308 N 
HETATM   28  C4  UNL     1      -7.040  14.954  44.508  1.00  0.00     0.123 C 
ATOM     29  H2  UNL     1      -6.149  16.658  45.345  1.00  0.00     0.181 HD
HETATM   30  C5  UNL     1      -6.556  14.586  43.134  1.00  0.00     0.031 C 
HETATM   31  C7  UNL     1      -7.269  13.513  44.839  1.00  0.00     0.123 C 
HETATM   32  C6  UNL     1      -7.120  13.212  43.365  1.00  0.00     0.030 C 
HETATM   33  N3  UNL     1      -6.309  12.876  45.644  1.00  0.00    -0.216 N 
HETATM   34  C8  UNL     1      -5.300  13.536  46.195  1.00  0.00     0.717 C 
ATOM     35  H3  UNL     1      -6.391  11.872  45.809  1.00  0.00     0.178 HD
BRANCH  34  36
HETATM   36  N4  UNL     1      -4.462  12.715  46.971  1.00  0.00    -0.089 N 
ATOM     37  H4  UNL     1      -3.473  12.945  47.069  1.00  0.00     0.210 HD
BRANCH  36  38
HETATM   38  N5  UNL     1      -4.982  11.587  47.607  1.00  0.00    -0.087 N 
HETATM   39  N6  UNL     1      -4.625  10.403  47.410  1.00  0.00    -0.303 N 
ATOM     40  H62 UNL     1      -3.889  10.224  46.727  1.00  0.00     0.181 HD
ATOM     41  H61 UNL     1      -5.006   9.578  47.875  1.00  0.00     0.181 HD
BRANCH  38  42
HETATM   42  O1  UNL     1      -5.983  11.831  48.535  1.00  0.00    -0.253 OA
ATOM     43  H1  UNL     1      -5.974  12.694  48.932  1.00  0.00     0.248 HD
ENDBRANCH  38  42
ENDBRANCH  36  38
ENDBRANCH  34  36
ENDBRANCH  19  26
ENDBRANCH  17  18
BRANCH  17  44
HETATM   44  C11 UNL     1      -5.733  16.256  49.376  1.00  0.00     0.231 C 
BRANCH  44  45
HETATM   45  O2  UNL     1      -5.934  17.337  48.545  1.00  0.00    -0.394 OA
ATOM     46  H2  UNL     1      -5.295  17.992  48.798  1.00  0.00     0.209 HD
ENDBRANCH  44  45
ENDBRANCH  17  44
ENDBRANCH  16  17
ENDBRANCH  15  16
BRANCH  14  47
HETATM   47  O4  UNL     1      -1.864  12.951  51.608  1.00  0.00    -0.361 OA
ATOM     48  H4  UNL     1      -1.310  12.181  51.660  1.00  0.00     0.217 HD
ENDBRANCH  14  47
ENDBRANCH  13  14
ENDBRANCH   1  13
TORSDOF 12
ENDMDL
MODEL 4
REMARK VINA RESULT: -6.777007398      1.517      2.517
REMARK  12 active torsions:
REMARK  status: ('A' for Active; 'I' for Inactive)
REMARK    1  A    between atoms: C3_3  and  N1_4 
REMARK    2  A    between atoms: C8_13  and  N4_14 
REMARK    3  A    between atoms: N4_14  and  N5_16 
REMARK    4  A    between atoms: N5_16  and  O1_20 
REMARK    5  A    between atoms: C9_22  and  C10_23 
REMARK    6  A    between atoms: C10_23  and  C11_24 
REMARK    7  A    between atoms: C10_23  and  O3_27 
REMARK    8  A    between atoms: C11_24  and  O2_25 
REMARK    9  A    between atoms: O3_27  and  C12_28 
REMARK   10  A    between atoms: C13_29  and  O4_30 
REMARK   11  A    between atoms: C13_29  and  C14_32 
REMARK   12  A    between atoms: C14_32  and  N7_33 
ROOT
HETATM    1  N7  UNL     1      -2.744  10.776  51.491  1.00  0.00    -0.268 N 
HETATM    2  N8  UNL     1      -2.401  11.400  52.609  1.00  0.00    -0.282 N 
ATOM      3  H8  UNL     1      -2.304  12.411  52.708  1.00  0.00     0.188 HD
HETATM    4  C15 UNL     1      -2.197  10.498  53.603  1.00  0.00     0.155 A 
HETATM    5  N9  UNL     1      -1.824  10.719  54.940  1.00  0.00    -0.080 NA
HETATM    6  C16 UNL     1      -2.430   9.272  53.061  1.00  0.00     0.132 A 
HETATM    7  C17 UNL     1      -2.334   7.990  53.730  1.00  0.00     0.107 C 
HETATM    8  N10 UNL     1      -2.276   6.953  54.271  1.00  0.00    -0.191 NA
HETATM    9  C18 UNL     1      -2.777   9.462  51.717  1.00  0.00     0.140 A 
HETATM   10  N11 UNL     1      -3.041   8.477  50.944  1.00  0.00    -0.383 N 
ATOM     11 1H11 UNL     1      -3.066   7.472  51.117  1.00  0.00     0.157 HD
ATOM     12 2H11 UNL     1      -3.294   8.615  49.966  1.00  0.00     0.157 HD
ENDROOT
BRANCH   1  13
HETATM   13  C14 UNL     1      -3.047  11.335  50.154  1.00  0.00     0.217 C 
BRANCH  13  14
HETATM   14  C13 UNL     1      -3.245  12.757  50.201  1.00  0.00     0.085 C 
HETATM   15  C12 UNL     1      -3.659  13.745  49.272  1.00  0.00     0.176 C 
BRANCH  15  16
HETATM   16  O3  UNL     1      -3.923  13.724  47.966  1.00  0.00    -0.320 OA
BRANCH  16  17
HETATM   17  C10 UNL     1      -5.114  13.440  47.457  1.00  0.00     0.106 C 
BRANCH  17  18
HETATM   18  C9  UNL     1      -5.554  13.930  46.178  1.00  0.00     0.111 A 
HETATM   19  C3  UNL     1      -5.283  15.205  45.672  1.00  0.00     0.128 A 
HETATM   20  C2  UNL     1      -6.008  15.371  44.522  1.00  0.00     0.056 A 
HETATM   21  C1  UNL     1      -6.035  16.540  43.609  1.00  0.00     0.072 C 
HETATM   22  N13 UNL     1      -6.703  14.239  44.316  1.00  0.00    -0.298 N 
HETATM   23  N12 UNL     1      -6.432  13.406  45.281  1.00  0.00    -0.294 N 
HETATM   24  C19 UNL     1      -7.612  13.935  43.215  1.00  0.00     0.177 C 
ATOM     25  H12 UNL     1      -6.831  12.470  45.355  1.00  0.00     0.187 HD
BRANCH  19  26
HETATM   26  N1  UNL     1      -4.243  16.054  46.129  1.00  0.00    -0.085 N 
HETATM   27  N2  UNL     1      -3.123  16.019  45.262  1.00  0.00    -0.308 N 
HETATM   28  C4  UNL     1      -2.197  17.042  45.352  1.00  0.00     0.123 C 
ATOM     29  H2  UNL     1      -3.002  15.261  44.591  1.00  0.00     0.181 HD
HETATM   30  C5  UNL     1      -2.549  18.285  44.584  1.00  0.00     0.031 C 
HETATM   31  C7  UNL     1      -2.160  17.816  46.632  1.00  0.00     0.123 C 
HETATM   32  C6  UNL     1      -2.162  19.079  45.801  1.00  0.00     0.030 C 
HETATM   33  N3  UNL     1      -3.269  17.703  47.488  1.00  0.00    -0.216 N 
HETATM   34  C8  UNL     1      -4.263  16.860  47.246  1.00  0.00     0.717 C 
ATOM     35  H3  UNL     1      -3.311  18.289  48.322  1.00  0.00     0.178 HD
BRANCH  34  36
HETATM   36  N4  UNL     1      -5.268  16.895  48.229  1.00  0.00    -0.089 N 
ATOM     37  H4  UNL     1      -5.884  16.091  48.358  1.00  0.00     0.210 HD
BRANCH  36  38
HETATM   38  N5  UNL     1      -5.424  18.028  49.028  1.00  0.00    -0.087 N 
HETATM   39  N6  UNL     1      -6.361  18.855  48.956  1.00  0.00    -0.303 N 
ATOM     40  H62 UNL     1      -7.087  18.707  48.255  1.00  0.00     0.181 HD
ATOM     41  H61 UNL     1      -6.475  19.683  49.540  1.00  0.00     0.181 HD
BRANCH  38  42
HETATM   42  O1  UNL     1      -4.436  18.230  49.981  1.00  0.00    -0.253 OA
ATOM     43  H1  UNL     1      -4.270  17.496  50.562  1.00  0.00     0.248 HD
ENDBRANCH  38  42
ENDBRANCH  36  38
ENDBRANCH  34  36
ENDBRANCH  19  26
ENDBRANCH  17  18
BRANCH  17  44
HETATM   44  C11 UNL     1      -5.863  12.190  47.962  1.00  0.00     0.231 C 
BRANCH  44  45
HETATM   45  O2  UNL     1      -7.056  12.638  48.486  1.00  0.00    -0.394 OA
ATOM     46  H2  UNL     1      -7.442  11.899  48.942  1.00  0.00     0.209 HD
ENDBRANCH  44  45
ENDBRANCH  17  44
ENDBRANCH  16  17
ENDBRANCH  15  16
BRANCH  14  47
HETATM   47  O4  UNL     1      -2.976  13.277  51.376  1.00  0.00    -0.361 OA
ATOM     48  H4  UNL     1      -3.407  12.803  52.078  1.00  0.00     0.217 HD
ENDBRANCH  14  47
ENDBRANCH  13  14
ENDBRANCH   1  13
TORSDOF 12
ENDMDL
MODEL 5
REMARK VINA RESULT: -6.722240580      1.818      2.907
REMARK  12 active torsions:
REMARK  status: ('A' for Active; 'I' for Inactive)
REMARK    1  A    between atoms: C3_3  and  N1_4 
REMARK    2  A    between atoms: C8_13  and  N4_14 
REMARK    3  A    between atoms: N4_14  and  N5_16 
REMARK    4  A    between atoms: N5_16  and  O1_20 
REMARK    5  A    between atoms: C9_22  and  C10_23 
REMARK    6  A    between atoms: C10_23  and  C11_24 
REMARK    7  A    between atoms: C10_23  and  O3_27 
REMARK    8  A    between atoms: C11_24  and  O2_25 
REMARK    9  A    between atoms: O3_27  and  C12_28 
REMARK   10  A    between atoms: C13_29  and  O4_30 
REMARK   11  A    between atoms: C13_29  and  C14_32 
REMARK   12  A    between atoms: C14_32  and  N7_33 
ROOT
HETATM    1  N7  UNL     1      -2.299  10.266  51.746  1.00  0.00    -0.268 N 
HETATM    2  N8  UNL     1      -1.918  10.648  52.956  1.00  0.00    -0.282 N 
ATOM      3  H8  UNL     1      -1.687  11.606  53.222  1.00  0.00     0.188 HD
HETATM    4  C15 UNL     1      -1.879   9.579  53.792  1.00  0.00     0.155 A 
HETATM    5  N9  UNL     1      -1.532   9.528  55.153  1.00  0.00    -0.080 NA
HETATM    6  C16 UNL     1      -2.257   8.501  53.053  1.00  0.00     0.132 A 
HETATM    7  C17 UNL     1      -2.364   7.128  53.504  1.00  0.00     0.107 C 
HETATM    8  N10 UNL     1      -2.471   6.020  53.868  1.00  0.00    -0.191 NA
HETATM    9  C18 UNL     1      -2.521   8.951  51.753  1.00  0.00     0.140 A 
HETATM   10  N11 UNL     1      -2.887   8.150  50.825  1.00  0.00    -0.383 N 
ATOM     11 1H11 UNL     1      -3.057   7.144  50.830  1.00  0.00     0.157 HD
ATOM     12 2H11 UNL     1      -3.080   8.477  49.878  1.00  0.00     0.157 HD
ENDROOT
BRANCH   1  13
HETATM   13  C14 UNL     1      -2.469  11.069  50.513  1.00  0.00     0.217 C 
BRANCH  13  14
HETATM   14  C13 UNL     1      -3.192  12.286  50.763  1.00  0.00     0.085 C 
HETATM   15  C12 UNL     1      -3.646  13.366  49.966  1.00  0.00     0.176 C 
BRANCH  15  16
HETATM   16  O3  UNL     1      -3.475  13.698  48.687  1.00  0.00    -0.320 OA
BRANCH  16  17
HETATM   17  C10 UNL     1      -4.038  14.753  48.113  1.00  0.00     0.106 C 
BRANCH  17  18
HETATM   18  C9  UNL     1      -4.715  14.685  46.846  1.00  0.00     0.111 A 
HETATM   19  C3  UNL     1      -4.790  15.732  45.921  1.00  0.00     0.128 A 
HETATM   20  C2  UNL     1      -5.657  15.361  44.928  1.00  0.00     0.056 A 
HETATM   21  C1  UNL     1      -6.043  16.117  43.710  1.00  0.00     0.072 C 
HETATM   22  N13 UNL     1      -6.102  14.127  45.220  1.00  0.00    -0.298 N 
HETATM   23  N12 UNL     1      -5.548  13.740  46.334  1.00  0.00    -0.294 N 
HETATM   24  C19 UNL     1      -7.037  13.309  44.453  1.00  0.00     0.177 C 
ATOM     25  H12 UNL     1      -5.719  12.835  46.772  1.00  0.00     0.187 HD
BRANCH  19  26
HETATM   26  N1  UNL     1      -3.920  16.851  45.891  1.00  0.00    -0.085 N 
HETATM   27  N2  UNL     1      -2.628  16.495  45.431  1.00  0.00    -0.308 N 
HETATM   28  C4  UNL     1      -1.791  17.505  44.995  1.00  0.00     0.123 C 
ATOM     29  H2  UNL     1      -2.324  15.522  45.422  1.00  0.00     0.181 HD
HETATM   30  C5  UNL     1      -2.004  17.933  43.570  1.00  0.00     0.031 C 
HETATM   31  C7  UNL     1      -2.084  18.890  45.479  1.00  0.00     0.123 C 
HETATM   32  C6  UNL     1      -1.943  19.357  44.048  1.00  0.00     0.030 C 
HETATM   33  N3  UNL     1      -3.357  19.126  46.026  1.00  0.00    -0.216 N 
HETATM   34  C8  UNL     1      -4.232  18.151  46.223  1.00  0.00     0.717 C 
ATOM     35  H3  UNL     1      -3.616  20.080  46.279  1.00  0.00     0.178 HD
BRANCH  34  36
HETATM   36  N4  UNL     1      -5.440  18.598  46.789  1.00  0.00    -0.089 N 
ATOM     37  H4  UNL     1      -6.301  18.567  46.243  1.00  0.00     0.210 HD
BRANCH  36  38
HETATM   38  N5  UNL     1      -5.460  19.084  48.097  1.00  0.00    -0.087 N 
HETATM   39  N6  UNL     1      -6.472  19.183  48.828  1.00  0.00    -0.303 N 
ATOM     40  H62 UNL     1      -7.373  18.887  48.454  1.00  0.00     0.181 HD
ATOM     41  H61 UNL     1      -6.487  19.538  49.784  1.00  0.00     0.181 HD
BRANCH  38  42
HETATM   42  O1  UNL     1      -4.234  19.486  48.606  1.00  0.00    -0.253 OA
ATOM     43  H1  UNL     1      -3.781  18.843  49.139  1.00  0.00     0.248 HD
ENDBRANCH  38  42
ENDBRANCH  36  38
ENDBRANCH  34  36
ENDBRANCH  19  26
ENDBRANCH  17  18
BRANCH  17  44
HETATM   44  C11 UNL     1      -4.430  15.958  48.992  1.00  0.00     0.231 C 
BRANCH  44  45
HETATM   45  O2  UNL     1      -5.806  16.033  48.957  1.00  0.00    -0.394 OA
ATOM     46  H2  UNL     1      -6.076  16.380  49.799  1.00  0.00     0.209 HD
ENDBRANCH  44  45
ENDBRANCH  17  44
ENDBRANCH  16  17
ENDBRANCH  15  16
BRANCH  14  47
HETATM   47  O4  UNL     1      -3.507  12.449  52.027  1.00  0.00    -0.361 OA
ATOM     48  H4  UNL     1      -2.810  12.877  52.511  1.00  0.00     0.217 HD
ENDBRANCH  14  47
ENDBRANCH  13  14
ENDBRANCH   1  13
TORSDOF 12
ENDMDL
