MODEL 1
REMARK VINA RESULT: -5.245525088      0.000      0.000
REMARK  4 active torsions:
REMARK  status: ('A' for Active; 'I' for Inactive)
REMARK    1  A    between atoms: N1_1  and  C1_5 
REMARK    2  A    between atoms: C1_5  and  C2_6 
REMARK    3  A    between atoms: C2_6  and  N2_7 
REMARK    4  A    between atoms: N3_10  and  C5_11 
ROOT
HETATM    1  N2  UNL     1      20.699  18.747  15.820  1.00  0.00     0.109 N 
HETATM    2  C3  UNL     1      21.605  17.640  15.700  1.00  0.00     0.294 C 
HETATM    3  C4  UNL     1      22.710  18.234  14.848  1.00  0.00     0.157 C 
HETATM    4  N3  UNL     1      22.848  19.539  15.454  1.00  0.00    -0.333 N 
HETATM    5  C6  UNL     1      21.478  19.954  15.750  1.00  0.00     0.399 C 
ENDROOT
BRANCH   1   6
HETATM    6  C2  UNL     1      19.693  18.677  14.787  1.00  0.00     0.301 C 
BRANCH   6   7
HETATM    7  C1  UNL     1      19.301  20.054  14.307  1.00  0.00     0.260 C 
BRANCH   7   8
HETATM    8  N1  UNL     1      20.302  20.462  13.329  1.00  0.00    -0.078 N 
ATOM      9  H13 UNL     1      19.926  20.557  12.385  1.00  0.00     0.274 HD
ATOM     10  H12 UNL     1      20.606  21.428  13.445  1.00  0.00     0.274 HD
ATOM     11  H11 UNL     1      21.067  19.790  13.390  1.00  0.00     0.274 HD
ENDBRANCH   7   8
ENDBRANCH   6   7
ENDBRANCH   1   6
BRANCH   4  12
HETATM   12  C5  UNL     1      24.059  20.227  15.691  1.00  0.00     0.184 C 
HETATM   13  N4  UNL     1      25.311  19.656  15.342  1.00  0.00    -0.070 NA
HETATM   14  S1  UNL     1      23.995  21.702  16.378  1.00  0.00    -0.044 SA
ENDBRANCH   4  12
TORSDOF 4
ENDMDL
MODEL 2
REMARK VINA RESULT: -5.237924753      2.559      4.022
REMARK  4 active torsions:
REMARK  status: ('A' for Active; 'I' for Inactive)
REMARK    1  A    between atoms: N1_1  and  C1_5 
REMARK    2  A    between atoms: C1_5  and  C2_6 
REMARK    3  A    between atoms: C2_6  and  N2_7 
REMARK    4  A    between atoms: N3_10  and  C5_11 
ROOT
HETATM    1  N2  UNL     1      23.625  21.028  15.267  1.00  0.00     0.109 N 
HETATM    2  C3  UNL     1      24.466  19.871  15.382  1.00  0.00     0.294 C 
HETATM    3  C4  UNL     1      23.600  18.939  16.208  1.00  0.00     0.157 C 
HETATM    4  N3  UNL     1      22.312  19.143  15.585  1.00  0.00    -0.333 N 
HETATM    5  C6  UNL     1      22.260  20.578  15.310  1.00  0.00     0.399 C 
ENDROOT
BRANCH   1   6
HETATM    6  C2  UNL     1      23.932  21.968  16.318  1.00  0.00     0.301 C 
BRANCH   6   7
HETATM    7  C1  UNL     1      23.550  23.376  15.926  1.00  0.00     0.260 C 
BRANCH   7   8
HETATM    8  N1  UNL     1      23.610  23.440  14.470  1.00  0.00    -0.078 N 
ATOM      9  H13 UNL     1      24.556  23.339  14.102  1.00  0.00     0.274 HD
ATOM     10  H12 UNL     1      23.206  22.622  14.016  1.00  0.00     0.274 HD
ATOM     11  H11 UNL     1      23.163  24.314  14.194  1.00  0.00     0.274 HD
ENDBRANCH   7   8
ENDBRANCH   6   7
ENDBRANCH   1   6
BRANCH   4  12
HETATM   12  C5  UNL     1      21.344  18.149  15.319  1.00  0.00     0.184 C 
HETATM   13  N4  UNL     1      21.714  16.790  15.142  1.00  0.00    -0.070 NA
HETATM   14  S1  UNL     1      19.780  18.592  15.215  1.00  0.00    -0.044 SA
ENDBRANCH   4  12
TORSDOF 4
ENDMDL
MODEL 3
REMARK VINA RESULT: -5.231247042      1.813      3.143
REMARK  4 active torsions:
REMARK  status: ('A' for Active; 'I' for Inactive)
REMARK    1  A    between atoms: N1_1  and  C1_5 
REMARK    2  A    between atoms: C1_5  and  C2_6 
REMARK    3  A    between atoms: C2_6  and  N2_7 
REMARK    4  A    between atoms: N3_10  and  C5_11 
ROOT
HETATM    1  N2  UNL     1      22.286  18.275  14.792  1.00  0.00     0.109 N 
HETATM    2  C3  UNL     1      21.293  19.260  14.468  1.00  0.00     0.294 C 
HETATM    3  C4  UNL     1      21.456  20.250  15.606  1.00  0.00     0.157 C 
HETATM    4  N3  UNL     1      22.896  20.319  15.702  1.00  0.00    -0.333 N 
HETATM    5  C6  UNL     1      23.345  18.943  15.500  1.00  0.00     0.399 C 
ENDROOT
BRANCH   1   6
HETATM    6  C2  UNL     1      21.691  17.210  15.564  1.00  0.00     0.301 C 
BRANCH   6   7
HETATM    7  C1  UNL     1      22.719  16.514  16.424  1.00  0.00     0.260 C 
BRANCH   7   8
HETATM    8  N1  UNL     1      22.147  15.230  16.813  1.00  0.00    -0.078 N 
ATOM      9  H13 UNL     1      21.804  14.688  16.021  1.00  0.00     0.274 HD
ATOM     10  H12 UNL     1      22.845  14.561  17.136  1.00  0.00     0.274 HD
ATOM     11  H11 UNL     1      21.427  15.426  17.508  1.00  0.00     0.274 HD
ENDBRANCH   7   8
ENDBRANCH   6   7
ENDBRANCH   1   6
BRANCH   4  12
HETATM   12  C5  UNL     1      23.663  21.481  15.940  1.00  0.00     0.184 C 
HETATM   13  N4  UNL     1      24.781  21.460  16.815  1.00  0.00    -0.070 NA
HETATM   14  S1  UNL     1      23.241  22.862  15.185  1.00  0.00    -0.044 SA
ENDBRANCH   4  12
TORSDOF 4
ENDMDL
MODEL 4
REMARK VINA RESULT: -5.222057124      2.548      4.088
REMARK  4 active torsions:
REMARK  status: ('A' for Active; 'I' for Inactive)
REMARK    1  A    between atoms: N1_1  and  C1_5 
REMARK    2  A    between atoms: C1_5  and  C2_6 
REMARK    3  A    between atoms: C2_6  and  N2_7 
REMARK    4  A    between atoms: N3_10  and  C5_11 
ROOT
HETATM    1  N2  UNL     1      23.765  20.763  15.327  1.00  0.00     0.109 N 
HETATM    2  C3  UNL     1      24.753  19.723  15.374  1.00  0.00     0.294 C 
HETATM    3  C4  UNL     1      24.102  18.718  16.305  1.00  0.00     0.157 C 
HETATM    4  N3  UNL     1      22.741  18.742  15.820  1.00  0.00    -0.333 N 
HETATM    5  C6  UNL     1      22.480  20.149  15.525  1.00  0.00     0.399 C 
ENDROOT
BRANCH   1   6
HETATM    6  C2  UNL     1      24.058  21.767  16.322  1.00  0.00     0.301 C 
BRANCH   6   7
HETATM    7  C1  UNL     1      23.501  23.113  15.925  1.00  0.00     0.260 C 
BRANCH   7   8
HETATM    8  N1  UNL     1      23.586  23.195  14.472  1.00  0.00    -0.078 N 
ATOM      9  H13 UNL     1      23.185  22.384  14.000  1.00  0.00     0.274 HD
ATOM     10  H12 UNL     1      22.965  23.898  14.072  1.00  0.00     0.274 HD
ATOM     11  H11 UNL     1      24.567  23.348  14.241  1.00  0.00     0.274 HD
ENDBRANCH   7   8
ENDBRANCH   6   7
ENDBRANCH   1   6
BRANCH   4  12
HETATM   12  C5  UNL     1      21.884  17.627  15.677  1.00  0.00     0.184 C 
HETATM   13  N4  UNL     1      20.709  17.699  14.883  1.00  0.00    -0.070 NA
HETATM   14  S1  UNL     1      22.269  16.245  16.446  1.00  0.00    -0.044 SA
ENDBRANCH   4  12
TORSDOF 4
ENDMDL
MODEL 5
REMARK VINA RESULT: -5.054155938      2.985      3.953
REMARK  4 active torsions:
REMARK  status: ('A' for Active; 'I' for Inactive)
REMARK    1  A    between atoms: N1_1  and  C1_5 
REMARK    2  A    between atoms: C1_5  and  C2_6 
REMARK    3  A    between atoms: C2_6  and  N2_7 
REMARK    4  A    between atoms: N3_10  and  C5_11 
ROOT
HETATM    1  N2  UNL     1      24.094  20.934  15.396  1.00  0.00     0.109 N 
HETATM    2  C3  UNL     1      25.423  20.485  15.699  1.00  0.00     0.294 C 
HETATM    3  C4  UNL     1      25.163  19.448  16.775  1.00  0.00     0.157 C 
HETATM    4  N3  UNL     1      24.011  18.769  16.224  1.00  0.00    -0.333 N 
HETATM    5  C6  UNL     1      23.198  19.836  15.643  1.00  0.00     0.399 C 
ENDROOT
BRANCH   1   6
HETATM    6  C2  UNL     1      23.774  22.098  16.187  1.00  0.00     0.301 C 
BRANCH   6   7
HETATM    7  C1  UNL     1      23.380  23.265  15.313  1.00  0.00     0.260 C 
BRANCH   7   8
HETATM    8  N1  UNL     1      22.396  22.767  14.359  1.00  0.00    -0.078 N 
ATOM      9  H13 UNL     1      22.270  21.756  14.405  1.00  0.00     0.274 HD
ATOM     10  H12 UNL     1      21.439  23.028  14.596  1.00  0.00     0.274 HD
ATOM     11  H11 UNL     1      22.685  23.094  13.438  1.00  0.00     0.274 HD
ENDBRANCH   7   8
ENDBRANCH   6   7
ENDBRANCH   1   6
BRANCH   4  12
HETATM   12  C5  UNL     1      23.764  17.379  16.260  1.00  0.00     0.184 C 
HETATM   13  N4  UNL     1      24.820  16.447  16.436  1.00  0.00    -0.070 NA
HETATM   14  S1  UNL     1      22.230  16.856  16.093  1.00  0.00    -0.044 SA
ENDBRANCH   4  12
TORSDOF 4
ENDMDL
