MODEL 1
REMARK VINA RESULT: -6.962072922      0.000      0.000
REMARK  0 active torsions:
REMARK  status: ('A' for Active; 'I' for Inactive)
ROOT
HETATM    1  N1  UNL     1      29.465  64.378  10.264  1.00  0.00    -0.233 N 
ATOM      2  H11 UNL     1      28.469  64.352  10.049  1.00  0.00     0.174 HD
ATOM      3  H12 UNL     1      29.937  63.768  10.932  1.00  0.00     0.174 HD
HETATM    4  C1  UNL     1      30.203  65.259   9.641  1.00  0.00     0.694 C 
HETATM    5  N2  UNL     1      31.592  65.295   9.942  1.00  0.00    -0.118 N 
ATOM      6  H2  UNL     1      31.811  64.733  10.764  1.00  0.00     0.207 HD
HETATM    7  N3  UNL     1      32.704  65.876   9.430  1.00  0.00    -0.225 N 
ATOM      8  H3  UNL     1      33.592  65.815   9.928  1.00  0.00     0.209 HD
HETATM    9  N4  UNL     1      32.628  66.537   8.254  1.00  0.00    -0.247 N 
ATOM     10  H4  UNL     1      33.552  66.710   7.858  1.00  0.00     0.192 HD
HETATM   11  C2  UNL     1      31.588  67.059   7.419  1.00  0.00     0.329 C 
HETATM   12  O1  UNL     1      31.925  67.677   6.372  1.00  0.00    -0.261 OA
HETATM   13  C3  UNL     1      30.160  66.927   7.691  1.00  0.00     0.329 C 
HETATM   14  O2  UNL     1      29.388  67.584   6.975  1.00  0.00    -0.261 OA
HETATM   15  N5  UNL     1      29.544  66.110   8.710  1.00  0.00    -0.150 N 
ATOM     16  H5  UNL     1      28.526  66.146   8.770  1.00  0.00     0.188 HD
ENDROOT
TORSDOF 0
ENDMDL
MODEL 2
REMARK VINA RESULT: -6.655739930      1.701      2.495
REMARK  0 active torsions:
REMARK  status: ('A' for Active; 'I' for Inactive)
ROOT
HETATM    1  N1  UNL     1      32.803  65.497   9.930  1.00  0.00    -0.233 N 
ATOM      2  H11 UNL     1      32.344  65.115  10.757  1.00  0.00     0.174 HD
ATOM      3  H12 UNL     1      33.793  65.395   9.709  1.00  0.00     0.174 HD
HETATM    4  C1  UNL     1      32.072  66.172   9.083  1.00  0.00     0.694 C 
HETATM    5  N2  UNL     1      32.712  66.705   7.930  1.00  0.00    -0.118 N 
ATOM      6  H2  UNL     1      33.727  66.644   8.005  1.00  0.00     0.207 HD
HETATM    7  N3  UNL     1      32.335  67.272   6.758  1.00  0.00    -0.225 N 
ATOM      8  H3  UNL     1      33.034  67.675   6.134  1.00  0.00     0.209 HD
HETATM    9  N4  UNL     1      31.027  67.298   6.422  1.00  0.00    -0.247 N 
ATOM     10  H4  UNL     1      30.896  67.516   5.434  1.00  0.00     0.192 HD
HETATM   11  C2  UNL     1      29.777  67.101   7.092  1.00  0.00     0.329 C 
HETATM   12  O1  UNL     1      28.718  67.257   6.423  1.00  0.00    -0.261 OA
HETATM   13  C3  UNL     1      29.637  66.729   8.496  1.00  0.00     0.329 C 
HETATM   14  O2  UNL     1      28.493  66.770   8.977  1.00  0.00    -0.261 OA
HETATM   15  N5  UNL     1      30.691  66.315   9.393  1.00  0.00    -0.150 N 
ATOM     16  H5  UNL     1      30.416  66.103  10.351  1.00  0.00     0.188 HD
ENDROOT
TORSDOF 0
ENDMDL
MODEL 3
REMARK VINA RESULT: -6.508920848      1.352      3.035
REMARK  0 active torsions:
REMARK  status: ('A' for Active; 'I' for Inactive)
ROOT
HETATM    1  N1  UNL     1      33.638  67.313   7.879  1.00  0.00    -0.233 N 
ATOM      2  H11 UNL     1      33.602  67.979   7.108  1.00  0.00     0.174 HD
ATOM      3  H12 UNL     1      34.466  67.105   8.437  1.00  0.00     0.174 HD
HETATM    4  C1  UNL     1      32.541  66.671   8.183  1.00  0.00     0.694 C 
HETATM    5  N2  UNL     1      32.590  65.742   9.259  1.00  0.00    -0.118 N 
ATOM      6  H2  UNL     1      33.551  65.557   9.548  1.00  0.00     0.207 HD
HETATM    7  N3  UNL     1      31.705  65.037  10.004  1.00  0.00    -0.225 N 
ATOM      8  H3  UNL     1      32.035  64.336  10.667  1.00  0.00     0.209 HD
HETATM    9  N4  UNL     1      30.382  65.269   9.860  1.00  0.00    -0.247 N 
ATOM     10  H4  UNL     1      29.843  64.870  10.629  1.00  0.00     0.192 HD
HETATM   11  C2  UNL     1      29.538  65.928   8.909  1.00  0.00     0.329 C 
HETATM   12  O1  UNL     1      28.292  65.898   9.104  1.00  0.00    -0.261 OA
HETATM   13  C3  UNL     1      30.016  66.636   7.725  1.00  0.00     0.329 C 
HETATM   14  O2  UNL     1      29.160  66.999   6.904  1.00  0.00    -0.261 OA
HETATM   15  N5  UNL     1      31.386  66.961   7.404  1.00  0.00    -0.150 N 
ATOM     16  H5  UNL     1      31.544  67.451   6.524  1.00  0.00     0.188 HD
ENDROOT
TORSDOF 0
ENDMDL
MODEL 4
REMARK VINA RESULT: -6.318635687      2.443      3.985
REMARK  0 active torsions:
REMARK  status: ('A' for Active; 'I' for Inactive)
ROOT
HETATM    1  N1  UNL     1      32.718  66.512   6.809  1.00  0.00    -0.233 N 
ATOM      2  H11 UNL     1      33.420  65.907   7.235  1.00  0.00     0.174 HD
ATOM      3  H12 UNL     1      32.850  67.052   5.954  1.00  0.00     0.174 HD
HETATM    4  C1  UNL     1      31.556  66.609   7.399  1.00  0.00     0.694 C 
HETATM    5  N2  UNL     1      30.577  67.453   6.806  1.00  0.00    -0.118 N 
ATOM      6  H2  UNL     1      30.981  68.033   6.071  1.00  0.00     0.207 HD
HETATM    7  N3  UNL     1      29.252  67.693   6.954  1.00  0.00    -0.225 N 
ATOM      8  H3  UNL     1      28.808  68.458   6.447  1.00  0.00     0.209 HD
HETATM    9  N4  UNL     1      28.522  66.911   7.779  1.00  0.00    -0.247 N 
ATOM     10  H4  UNL     1      27.521  67.025   7.620  1.00  0.00     0.192 HD
HETATM   11  C2  UNL     1      28.788  65.963   8.820  1.00  0.00     0.329 C 
HETATM   12  O1  UNL     1      27.802  65.445   9.413  1.00  0.00    -0.261 OA
HETATM   13  C3  UNL     1      30.122  65.549   9.245  1.00  0.00     0.329 C 
HETATM   14  O2  UNL     1      30.195  64.860  10.274  1.00  0.00    -0.261 OA
HETATM   15  N5  UNL     1      31.374  65.856   8.593  1.00  0.00    -0.150 N 
ATOM     16  H5  UNL     1      32.218  65.495   9.036  1.00  0.00     0.188 HD
ENDROOT
TORSDOF 0
ENDMDL
MODEL 5
REMARK VINA RESULT: -6.281311126      1.839      3.230
REMARK  0 active torsions:
REMARK  status: ('A' for Active; 'I' for Inactive)
ROOT
HETATM    1  N1  UNL     1      32.257  67.506   6.692  1.00  0.00    -0.233 N 
ATOM      2  H11 UNL     1      31.719  67.992   5.974  1.00  0.00     0.174 HD
ATOM      3  H12 UNL     1      33.269  67.557   6.801  1.00  0.00     0.174 HD
HETATM    4  C1  UNL     1      31.605  66.758   7.543  1.00  0.00     0.694 C 
HETATM    5  N2  UNL     1      32.355  66.081   8.543  1.00  0.00    -0.118 N 
ATOM      6  H2  UNL     1      33.355  66.123   8.352  1.00  0.00     0.207 HD
HETATM    7  N3  UNL     1      32.097  65.394   9.683  1.00  0.00    -0.225 N 
ATOM      8  H3  UNL     1      32.849  64.904  10.169  1.00  0.00     0.209 HD
HETATM    9  N4  UNL     1      30.838  65.363  10.170  1.00  0.00    -0.247 N 
ATOM     10  H4  UNL     1      30.815  65.037  11.137  1.00  0.00     0.192 HD
HETATM   11  C2  UNL     1      29.526  65.668   9.684  1.00  0.00     0.329 C 
HETATM   12  O1  UNL     1      28.548  65.465  10.455  1.00  0.00    -0.261 OA
HETATM   13  C3  UNL     1      29.236  66.201   8.357  1.00  0.00     0.329 C 
HETATM   14  O2  UNL     1      28.043  66.245   8.017  1.00  0.00    -0.261 OA
HETATM   15  N5  UNL     1      30.192  66.687   7.389  1.00  0.00    -0.150 N 
ATOM     16  H5  UNL     1      29.814  67.015   6.500  1.00  0.00     0.188 HD
ENDROOT
TORSDOF 0
ENDMDL
