MODEL 1
REMARK VINA RESULT: -6.811689029      0.000      0.000
REMARK  5 active torsions:
REMARK  status: ('A' for Active; 'I' for Inactive)
REMARK    1  A    between atoms: N1_1  and  C1_5 
REMARK    2  A    between atoms: C1_5  and  N2_6 
REMARK    3  A    between atoms: C1_5  and  C2_10 
REMARK       I    between atoms: C2_10  and  N3_12 
REMARK    4  A    between atoms: N3_12  and  C3_14 
REMARK    5  A    between atoms: N6_20  and  O2_21 
ROOT
HETATM    1  C2  UNL     1      29.732  65.046  10.194  1.00  0.00     0.281 C 
HETATM    2  O1  UNL     1      29.816  63.973   9.589  1.00  0.00    -0.269 OA
HETATM    3  N3  UNL     1      30.341  66.226   9.764  1.00  0.00    -0.305 N 
ATOM      4  H3  UNL     1      30.185  67.034  10.367  1.00  0.00     0.170 HD
ENDROOT
BRANCH   1   5
HETATM    5  C1  UNL     1      28.924  65.028  11.454  1.00  0.00     0.468 C 
BRANCH   5   6
HETATM    6  N1  UNL     1      29.358  63.941  12.298  1.00  0.00    -0.042 N 
ATOM      7  H13 UNL     1      29.529  64.226  13.263  1.00  0.00     0.277 HD
ATOM      8  H12 UNL     1      28.619  63.265  12.492  1.00  0.00     0.277 HD
ATOM      9  H11 UNL     1      30.176  63.525  11.852  1.00  0.00     0.277 HD
ENDBRANCH   5   6
BRANCH   5  10
HETATM   10  N2  UNL     1      29.117  66.255  12.208  1.00  0.00    -0.042 N 
ATOM     11  H23 UNL     1      29.984  66.264  12.745  1.00  0.00     0.277 HD
ATOM     12  H22 UNL     1      29.322  67.061  11.617  1.00  0.00     0.277 HD
ATOM     13  H21 UNL     1      28.287  66.383  12.787  1.00  0.00     0.277 HD
ENDBRANCH   5  10
ENDBRANCH   1   5
BRANCH   3  14
HETATM   14  C3  UNL     1      31.138  66.477   8.628  1.00  0.00     0.173 A 
HETATM   15  C4  UNL     1      30.580  66.997   7.457  1.00  0.00     0.161 A 
HETATM   16  N4  UNL     1      31.569  67.126   6.564  1.00  0.00    -0.292 N 
HETATM   17  N5  UNL     1      32.678  66.716   7.129  1.00  0.00    -0.215 N 
ATOM     18  H4  UNL     1      31.475  67.481   5.612  1.00  0.00     0.187 HD
HETATM   19  N6  UNL     1      32.430  66.323   8.371  1.00  0.00    -0.130 N 
ATOM     20  H5  UNL     1      33.594  66.701   6.680  1.00  0.00     0.211 HD
BRANCH  19  21
HETATM   21  O2  UNL     1      33.297  65.876   9.170  1.00  0.00    -0.265 OA
ATOM     22  H2  UNL     1      34.101  65.430   8.931  1.00  0.00     0.247 HD
ENDBRANCH  19  21
ENDBRANCH   3  14
TORSDOF 5
ENDMDL
MODEL 2
REMARK VINA RESULT: -6.530074633      1.342      1.707
REMARK  5 active torsions:
REMARK  status: ('A' for Active; 'I' for Inactive)
REMARK    1  A    between atoms: N1_1  and  C1_5 
REMARK    2  A    between atoms: C1_5  and  N2_6 
REMARK    3  A    between atoms: C1_5  and  C2_10 
REMARK       I    between atoms: C2_10  and  N3_12 
REMARK    4  A    between atoms: N3_12  and  C3_14 
REMARK    5  A    between atoms: N6_20  and  O2_21 
ROOT
HETATM    1  C2  UNL     1      29.692  65.121  10.194  1.00  0.00     0.281 C 
HETATM    2  O1  UNL     1      29.793  64.072   9.549  1.00  0.00    -0.269 OA
HETATM    3  N3  UNL     1      30.223  66.341   9.774  1.00  0.00    -0.305 N 
ATOM      4  H3  UNL     1      30.061  67.122  10.411  1.00  0.00     0.170 HD
ENDROOT
BRANCH   1   5
HETATM    5  C1  UNL     1      28.950  65.026  11.491  1.00  0.00     0.468 C 
BRANCH   5   6
HETATM    6  N1  UNL     1      29.418  63.884  12.240  1.00  0.00    -0.042 N 
ATOM      7  H13 UNL     1      28.809  63.071  12.154  1.00  0.00     0.277 HD
ATOM      8  H12 UNL     1      30.256  63.461  11.842  1.00  0.00     0.277 HD
ATOM      9  H11 UNL     1      29.543  64.192  13.205  1.00  0.00     0.277 HD
ENDBRANCH   5   6
BRANCH   5  10
HETATM   10  N2  UNL     1      29.191  66.201  12.310  1.00  0.00    -0.042 N 
ATOM     11  H23 UNL     1      28.630  67.006  12.033  1.00  0.00     0.277 HD
ATOM     12  H22 UNL     1      28.827  66.109  13.259  1.00  0.00     0.277 HD
ATOM     13  H21 UNL     1      30.194  66.383  12.281  1.00  0.00     0.277 HD
ENDBRANCH   5  10
ENDBRANCH   1   5
BRANCH   3  14
HETATM   14  C3  UNL     1      30.949  66.665   8.609  1.00  0.00     0.173 A 
HETATM   15  C4  UNL     1      32.340  66.532   8.566  1.00  0.00     0.161 A 
HETATM   16  N4  UNL     1      32.741  66.909   7.346  1.00  0.00    -0.292 N 
HETATM   17  N5  UNL     1      31.680  67.258   6.662  1.00  0.00    -0.215 N 
ATOM     18  H4  UNL     1      33.704  66.923   7.009  1.00  0.00     0.187 HD
HETATM   19  N6  UNL     1      30.596  67.115   7.413  1.00  0.00    -0.130 N 
ATOM     20  H5  UNL     1      31.686  67.589   5.697  1.00  0.00     0.211 HD
BRANCH  19  21
HETATM   21  O2  UNL     1      29.420  67.370   7.033  1.00  0.00    -0.265 OA
ATOM     22  H2  UNL     1      28.995  68.219   7.062  1.00  0.00     0.247 HD
ENDBRANCH  19  21
ENDBRANCH   3  14
TORSDOF 5
ENDMDL
MODEL 3
REMARK VINA RESULT: -6.429220609      1.431      1.715
REMARK  5 active torsions:
REMARK  status: ('A' for Active; 'I' for Inactive)
REMARK    1  A    between atoms: N1_1  and  C1_5 
REMARK    2  A    between atoms: C1_5  and  N2_6 
REMARK    3  A    between atoms: C1_5  and  C2_10 
REMARK       I    between atoms: C2_10  and  N3_12 
REMARK    4  A    between atoms: N3_12  and  C3_14 
REMARK    5  A    between atoms: N6_20  and  O2_21 
ROOT
HETATM    1  C2  UNL     1      29.391  65.498   9.812  1.00  0.00     0.281 C 
HETATM    2  O1  UNL     1      29.822  64.344   9.899  1.00  0.00    -0.269 OA
HETATM    3  N3  UNL     1      30.037  66.514   9.105  1.00  0.00    -0.305 N 
ATOM      4  H3  UNL     1      29.562  67.417   9.121  1.00  0.00     0.170 HD
ENDROOT
BRANCH   1   5
HETATM    5  C1  UNL     1      28.102  65.773  10.521  1.00  0.00     0.468 C 
BRANCH   5   6
HETATM    6  N1  UNL     1      27.461  66.929   9.941  1.00  0.00    -0.042 N 
ATOM      7  H13 UNL     1      28.110  67.543   9.449  1.00  0.00     0.277 HD
ATOM      8  H12 UNL     1      26.868  66.700   9.144  1.00  0.00     0.277 HD
ATOM      9  H11 UNL     1      26.958  67.400  10.694  1.00  0.00     0.277 HD
ENDBRANCH   5   6
BRANCH   5  10
HETATM   10  N2  UNL     1      27.183  64.658  10.371  1.00  0.00    -0.042 N 
ATOM     11  H23 UNL     1      26.288  64.810  10.835  1.00  0.00     0.277 HD
ATOM     12  H22 UNL     1      26.822  64.561   9.422  1.00  0.00     0.277 HD
ATOM     13  H21 UNL     1      27.669  63.824  10.703  1.00  0.00     0.277 HD
ENDBRANCH   5  10
ENDBRANCH   1   5
BRANCH   3  14
HETATM   14  C3  UNL     1      31.241  66.488   8.372  1.00  0.00     0.173 A 
HETATM   15  C4  UNL     1      31.236  66.486   6.975  1.00  0.00     0.161 A 
HETATM   16  N4  UNL     1      32.510  66.460   6.568  1.00  0.00    -0.292 N 
HETATM   17  N5  UNL     1      33.274  66.445   7.633  1.00  0.00    -0.215 N 
ATOM     18  H4  UNL     1      32.831  66.452   5.600  1.00  0.00     0.187 HD
HETATM   19  N6  UNL     1      32.520  66.461   8.724  1.00  0.00    -0.130 N 
ATOM     20  H5  UNL     1      34.293  66.424   7.624  1.00  0.00     0.211 HD
BRANCH  19  21
HETATM   21  O2  UNL     1      32.965  66.454   9.905  1.00  0.00    -0.265 OA
ATOM     22  H2  UNL     1      33.843  66.698  10.173  1.00  0.00     0.247 HD
ENDBRANCH  19  21
ENDBRANCH   3  14
TORSDOF 5
ENDMDL
MODEL 4
REMARK VINA RESULT: -6.214770259      2.199      2.701
REMARK  5 active torsions:
REMARK  status: ('A' for Active; 'I' for Inactive)
REMARK    1  A    between atoms: N1_1  and  C1_5 
REMARK    2  A    between atoms: C1_5  and  N2_6 
REMARK    3  A    between atoms: C1_5  and  C2_10 
REMARK       I    between atoms: C2_10  and  N3_12 
REMARK    4  A    between atoms: N3_12  and  C3_14 
REMARK    5  A    between atoms: N6_20  and  O2_21 
ROOT
HETATM    1  C2  UNL     1      28.890  65.804   9.129  1.00  0.00     0.281 C 
HETATM    2  O1  UNL     1      29.308  64.754   9.629  1.00  0.00    -0.269 OA
HETATM    3  N3  UNL     1      29.700  66.711   8.446  1.00  0.00    -0.305 N 
ATOM      4  H3  UNL     1      29.215  67.534   8.088  1.00  0.00     0.170 HD
ENDROOT
BRANCH   1   5
HETATM    5  C1  UNL     1      27.426  66.072   9.294  1.00  0.00     0.468 C 
BRANCH   5   6
HETATM    6  N1  UNL     1      27.231  67.188  10.189  1.00  0.00    -0.042 N 
ATOM      7  H13 UNL     1      26.976  66.903  11.135  1.00  0.00     0.277 HD
ATOM      8  H12 UNL     1      28.100  67.666  10.428  1.00  0.00     0.277 HD
ATOM      9  H11 UNL     1      26.541  67.801   9.755  1.00  0.00     0.277 HD
ENDBRANCH   5   6
BRANCH   5  10
HETATM   10  N2  UNL     1      26.822  66.436   8.024  1.00  0.00    -0.042 N 
ATOM     11  H23 UNL     1      26.653  67.437   7.932  1.00  0.00     0.277 HD
ATOM     12  H22 UNL     1      27.462  66.339   7.234  1.00  0.00     0.277 HD
ATOM     13  H21 UNL     1      25.976  65.875   7.925  1.00  0.00     0.277 HD
ENDBRANCH   5  10
ENDBRANCH   1   5
BRANCH   3  14
HETATM   14  C3  UNL     1      31.083  66.670   8.172  1.00  0.00     0.173 A 
HETATM   15  C4  UNL     1      32.012  66.426   9.187  1.00  0.00     0.161 A 
HETATM   16  N4  UNL     1      33.229  66.447   8.630  1.00  0.00    -0.292 N 
HETATM   17  N5  UNL     1      33.083  66.687   7.350  1.00  0.00    -0.215 N 
ATOM     18  H4  UNL     1      34.114  66.301   9.116  1.00  0.00     0.187 HD
HETATM   19  N6  UNL     1      31.796  66.823   7.064  1.00  0.00    -0.130 N 
ATOM     20  H5  UNL     1      33.846  66.758   6.676  1.00  0.00     0.211 HD
BRANCH  19  21
HETATM   21  O2  UNL     1      31.337  67.060   5.913  1.00  0.00    -0.265 OA
ATOM     22  H2  UNL     1      31.747  67.601   5.248  1.00  0.00     0.247 HD
ENDBRANCH  19  21
ENDBRANCH   3  14
TORSDOF 5
ENDMDL
MODEL 5
REMARK VINA RESULT: -6.052429798      2.544      4.786
REMARK  5 active torsions:
REMARK  status: ('A' for Active; 'I' for Inactive)
REMARK    1  A    between atoms: N1_1  and  C1_5 
REMARK    2  A    between atoms: C1_5  and  N2_6 
REMARK    3  A    between atoms: C1_5  and  C2_10 
REMARK       I    between atoms: C2_10  and  N3_12 
REMARK    4  A    between atoms: N3_12  and  C3_14 
REMARK    5  A    between atoms: N6_20  and  O2_21 
ROOT
HETATM    1  C2  UNL     1      31.002  66.885   7.947  1.00  0.00     0.281 C 
HETATM    2  O1  UNL     1      30.600  67.287   6.850  1.00  0.00    -0.269 OA
HETATM    3  N3  UNL     1      30.156  66.523   8.996  1.00  0.00    -0.305 N 
ATOM      4  H3  UNL     1      30.631  66.210   9.843  1.00  0.00     0.170 HD
ENDROOT
BRANCH   1   5
HETATM    5  C1  UNL     1      32.488  66.800   8.111  1.00  0.00     0.468 C 
BRANCH   5   6
HETATM    6  N1  UNL     1      32.807  65.994   9.265  1.00  0.00    -0.042 N 
ATOM      7  H13 UNL     1      33.182  66.538  10.042  1.00  0.00     0.277 HD
ATOM      8  H12 UNL     1      31.982  65.635   9.744  1.00  0.00     0.277 HD
ATOM      9  H11 UNL     1      33.440  65.258   8.949  1.00  0.00     0.277 HD
ENDBRANCH   5   6
BRANCH   5  10
HETATM   10  N2  UNL     1      33.097  66.154   6.960  1.00  0.00    -0.042 N 
ATOM     11  H23 UNL     1      32.560  65.359   6.615  1.00  0.00     0.277 HD
ATOM     12  H22 UNL     1      33.050  66.720   6.112  1.00  0.00     0.277 HD
ATOM     13  H21 UNL     1      34.050  65.909   7.226  1.00  0.00     0.277 HD
ENDBRANCH   5  10
ENDBRANCH   1   5
BRANCH   3  14
HETATM   14  C3  UNL     1      28.747  66.522   9.070  1.00  0.00     0.173 A 
HETATM   15  C4  UNL     1      28.087  66.887  10.246  1.00  0.00     0.161 A 
HETATM   16  N4  UNL     1      26.772  66.790  10.014  1.00  0.00    -0.292 N 
HETATM   17  N5  UNL     1      26.608  66.391   8.777  1.00  0.00    -0.215 N 
ATOM     18  H4  UNL     1      26.029  66.991  10.684  1.00  0.00     0.187 HD
HETATM   19  N6  UNL     1      27.791  66.227   8.200  1.00  0.00    -0.130 N 
ATOM     20  H5  UNL     1      25.707  66.231   8.327  1.00  0.00     0.211 HD
BRANCH  19  21
HETATM   21  O2  UNL     1      27.962  65.848   7.008  1.00  0.00    -0.265 OA
ATOM     22  H2  UNL     1      27.696  66.321   6.228  1.00  0.00     0.247 HD
ENDBRANCH  19  21
ENDBRANCH   3  14
TORSDOF 5
ENDMDL
