MODEL 1
REMARK VINA RESULT: -6.430760963      0.000      0.000
REMARK  2 active torsions:
REMARK  status: ('A' for Active; 'I' for Inactive)
REMARK    1  A    between atoms: N1_1  and  N2_4 
REMARK       I    between atoms: N2_4  and  C1_6 
REMARK    2  A    between atoms: C1_6  and  C2_8 
ROOT
HETATM    1  C2  UNL     1      29.631  66.734   7.840  1.00  0.00     0.117 A 
HETATM    2  C3  UNL     1      28.705  66.622   6.803  1.00  0.00     0.115 A 
HETATM    3  N3  UNL     1      27.408  66.392   7.113  1.00  0.00    -0.318 N 
ATOM      4  H3  UNL     1      26.729  66.312   6.355  1.00  0.00     0.170 HD
HETATM    5  C4  UNL     1      26.974  66.265   8.395  1.00  0.00     0.327 A 
HETATM    6  O2  UNL     1      25.743  66.057   8.640  1.00  0.00    -0.247 OA
HETATM    7  N4  UNL     1      27.873  66.378   9.373  1.00  0.00    -0.275 N 
ATOM      8  H4  UNL     1      27.568  66.291  10.342  1.00  0.00     0.173 HD
HETATM    9  C5  UNL     1      29.186  66.607   9.111  1.00  0.00     0.266 A 
HETATM   10  O3  UNL     1      30.037  66.711  10.047  1.00  0.00    -0.267 OA
ENDROOT
BRANCH   1  11
HETATM   11  C1  UNL     1      31.028  66.882   7.413  1.00  0.00     0.276 C 
HETATM   12  N2  UNL     1      32.026  66.428   8.333  1.00  0.00    -0.272 N 
ATOM     13  H2  UNL     1      31.739  66.030   9.227  1.00  0.00     0.189 HD
HETATM   14  O1  UNL     1      31.288  67.370   6.288  1.00  0.00    -0.266 OA
BRANCH  12  15
HETATM   15  N1  UNL     1      33.385  66.522   8.026  1.00  0.00    -0.342 N 
ATOM     16  H12 UNL     1      34.057  66.536   8.793  1.00  0.00     0.176 HD
ATOM     17  H11 UNL     1      33.703  66.575   7.058  1.00  0.00     0.176 HD
ENDBRANCH  12  15
ENDBRANCH   1  11
TORSDOF 2
ENDMDL
MODEL 2
REMARK VINA RESULT: -6.231504722      1.673      4.441
REMARK  2 active torsions:
REMARK  status: ('A' for Active; 'I' for Inactive)
REMARK    1  A    between atoms: N1_1  and  N2_4 
REMARK       I    between atoms: N2_4  and  C1_6 
REMARK    2  A    between atoms: C1_6  and  C2_8 
ROOT
HETATM    1  C2  UNL     1      29.194  66.197   8.286  1.00  0.00     0.117 A 
HETATM    2  C3  UNL     1      29.766  67.032   7.327  1.00  0.00     0.115 A 
HETATM    3  N3  UNL     1      31.113  67.154   7.292  1.00  0.00    -0.318 N 
ATOM      4  H3  UNL     1      31.533  67.763   6.589  1.00  0.00     0.170 HD
HETATM    5  C4  UNL     1      31.929  66.496   8.157  1.00  0.00     0.327 A 
HETATM    6  O2  UNL     1      33.191  66.635   8.084  1.00  0.00    -0.247 OA
HETATM    7  N4  UNL     1      31.364  65.700   9.066  1.00  0.00    -0.275 N 
ATOM      8  H4  UNL     1      31.959  65.193   9.722  1.00  0.00     0.173 HD
HETATM    9  C5  UNL     1      30.017  65.547   9.140  1.00  0.00     0.266 A 
HETATM   10  O3  UNL     1      29.486  64.789  10.009  1.00  0.00    -0.267 OA
ENDROOT
BRANCH   1  11
HETATM   11  C1  UNL     1      27.725  66.200   8.318  1.00  0.00     0.276 C 
HETATM   12  N2  UNL     1      27.115  66.867   9.428  1.00  0.00    -0.272 N 
ATOM     13  H2  UNL     1      27.704  67.303  10.136  1.00  0.00     0.189 HD
HETATM   14  O1  UNL     1      27.081  65.651   7.395  1.00  0.00    -0.266 OA
BRANCH  12  15
HETATM   15  N1  UNL     1      25.726  66.929   9.555  1.00  0.00    -0.342 N 
ATOM     16  H12 UNL     1      25.326  66.989  10.491  1.00  0.00     0.176 HD
ATOM     17  H11 UNL     1      25.121  66.916   8.734  1.00  0.00     0.176 HD
ENDBRANCH  12  15
ENDBRANCH   1  11
TORSDOF 2
ENDMDL
MODEL 3
REMARK VINA RESULT: -6.133532230      1.753      4.823
REMARK  2 active torsions:
REMARK  status: ('A' for Active; 'I' for Inactive)
REMARK    1  A    between atoms: N1_1  and  N2_4 
REMARK       I    between atoms: N2_4  and  C1_6 
REMARK    2  A    between atoms: C1_6  and  C2_8 
ROOT
HETATM    1  C2  UNL     1      29.383  66.272   8.643  1.00  0.00     0.117 A 
HETATM    2  C3  UNL     1      30.366  65.921   9.568  1.00  0.00     0.115 A 
HETATM    3  N3  UNL     1      31.662  66.159   9.260  1.00  0.00    -0.318 N 
ATOM      4  H3  UNL     1      32.382  65.904   9.937  1.00  0.00     0.170 HD
HETATM    5  C4  UNL     1      32.043  66.725   8.084  1.00  0.00     0.327 A 
HETATM    6  O2  UNL     1      33.273  66.936   7.840  1.00  0.00    -0.247 OA
HETATM    7  N4  UNL     1      31.089  67.056   7.213  1.00  0.00    -0.275 N 
ATOM      8  H4  UNL     1      31.353  67.486   6.326  1.00  0.00     0.173 HD
HETATM    9  C5  UNL     1      29.775  66.835   7.477  1.00  0.00     0.266 A 
HETATM   10  O3  UNL     1      28.872  67.151   6.642  1.00  0.00    -0.267 OA
ENDROOT
BRANCH   1  11
HETATM   11  C1  UNL     1      28.015  65.889   9.012  1.00  0.00     0.276 C 
HETATM   12  N2  UNL     1      26.980  66.817   8.673  1.00  0.00    -0.272 N 
ATOM     13  H2  UNL     1      27.223  67.688   8.201  1.00  0.00     0.189 HD
HETATM   14  O1  UNL     1      27.807  64.790   9.578  1.00  0.00    -0.266 OA
BRANCH  12  15
HETATM   15  N1  UNL     1      25.644  66.550   8.978  1.00  0.00    -0.342 N 
ATOM     16  H12 UNL     1      25.315  65.586   8.917  1.00  0.00     0.176 HD
ATOM     17  H11 UNL     1      25.008  67.297   9.256  1.00  0.00     0.176 HD
ENDBRANCH  12  15
ENDBRANCH   1  11
TORSDOF 2
ENDMDL
MODEL 4
REMARK VINA RESULT: -5.936491679      1.324      2.033
REMARK  2 active torsions:
REMARK  status: ('A' for Active; 'I' for Inactive)
REMARK    1  A    between atoms: N1_1  and  N2_4 
REMARK       I    between atoms: N2_4  and  C1_6 
REMARK    2  A    between atoms: C1_6  and  C2_8 
ROOT
HETATM    1  C2  UNL     1      29.291  66.405   8.596  1.00  0.00     0.117 A 
HETATM    2  C3  UNL     1      28.743  66.756   9.829  1.00  0.00     0.115 A 
HETATM    3  N3  UNL     1      27.396  66.822   9.946  1.00  0.00    -0.318 N 
ATOM      4  H3  UNL     1      26.994  67.078  10.848  1.00  0.00     0.170 HD
HETATM    5  C4  UNL     1      26.559  66.561   8.908  1.00  0.00     0.327 A 
HETATM    6  O2  UNL     1      25.298  66.629   9.066  1.00  0.00    -0.247 OA
HETATM    7  N4  UNL     1      27.101  66.224   7.737  1.00  0.00    -0.275 N 
ATOM      8  H4  UNL     1      26.489  66.019   6.947  1.00  0.00     0.173 HD
HETATM    9  C5  UNL     1      28.446  66.146   7.571  1.00  0.00     0.266 A 
HETATM   10  O3  UNL     1      28.956  65.827   6.453  1.00  0.00    -0.267 OA
ENDROOT
BRANCH   1  11
HETATM   11  C1  UNL     1      30.757  66.455   8.529  1.00  0.00     0.276 C 
HETATM   12  N2  UNL     1      31.465  65.698   9.514  1.00  0.00    -0.272 N 
ATOM     13  H2  UNL     1      30.942  65.166  10.209  1.00  0.00     0.189 HD
HETATM   14  O1  UNL     1      31.317  67.125   7.629  1.00  0.00    -0.266 OA
BRANCH  12  15
HETATM   15  N1  UNL     1      32.861  65.676   9.540  1.00  0.00    -0.342 N 
ATOM     16  H12 UNL     1      33.339  64.807   9.298  1.00  0.00     0.176 HD
ATOM     17  H11 UNL     1      33.396  66.506   9.794  1.00  0.00     0.176 HD
ENDBRANCH  12  15
ENDBRANCH   1  11
TORSDOF 2
ENDMDL
MODEL 5
REMARK VINA RESULT: -5.916884794      1.375      2.162
REMARK  2 active torsions:
REMARK  status: ('A' for Active; 'I' for Inactive)
REMARK    1  A    between atoms: N1_1  and  N2_4 
REMARK       I    between atoms: N2_4  and  C1_6 
REMARK    2  A    between atoms: C1_6  and  C2_8 
ROOT
HETATM    1  C2  UNL     1      29.430  66.150   8.375  1.00  0.00     0.117 A 
HETATM    2  C3  UNL     1      29.088  65.676   9.641  1.00  0.00     0.115 A 
HETATM    3  N3  UNL     1      27.779  65.604   9.976  1.00  0.00    -0.318 N 
ATOM      4  H3  UNL     1      27.528  65.256  10.902  1.00  0.00     0.170 HD
HETATM    5  C4  UNL     1      26.785  65.977   9.127  1.00  0.00     0.327 A 
HETATM    6  O2  UNL     1      25.567  65.885   9.482  1.00  0.00    -0.247 OA
HETATM    7  N4  UNL     1      27.131  66.424   7.919  1.00  0.00    -0.275 N 
ATOM      8  H4  UNL     1      26.400  66.705   7.265  1.00  0.00     0.173 HD
HETATM    9  C5  UNL     1      28.432  66.516   7.539  1.00  0.00     0.266 A 
HETATM   10  O3  UNL     1      28.754  66.945   6.388  1.00  0.00    -0.267 OA
ENDROOT
BRANCH   1  11
HETATM   11  C1  UNL     1      30.871  66.290   8.130  1.00  0.00     0.276 C 
HETATM   12  N2  UNL     1      31.332  65.940   6.822  1.00  0.00    -0.272 N 
ATOM     13  H2  UNL     1      30.662  65.614   6.125  1.00  0.00     0.189 HD
HETATM   14  O1  UNL     1      31.619  66.714   9.042  1.00  0.00    -0.266 OA
BRANCH  12  15
HETATM   15  N1  UNL     1      32.683  66.038   6.484  1.00  0.00    -0.342 N 
ATOM     16  H12 UNL     1      32.956  66.702   5.759  1.00  0.00     0.176 HD
ATOM     17  H11 UNL     1      33.385  65.462   6.948  1.00  0.00     0.176 HD
ENDBRANCH  12  15
ENDBRANCH   1  11
TORSDOF 2
ENDMDL
