MODEL 1
REMARK VINA RESULT: -7.045344668      0.000      0.000
REMARK  13 active torsions:
REMARK  status: ('A' for Active; 'I' for Inactive)
REMARK    1  A    between atoms: N1_2  and  C2_5 
REMARK    2  A    between atoms: C2_5  and  C3_6 
REMARK    3  A    between atoms: C3_6  and  N2_7 
REMARK    4  A    between atoms: N2_7  and  C4_10 
REMARK    5  A    between atoms: C4_10  and  C5_11 
REMARK    6  A    between atoms: C5_11  and  O1_12 
REMARK    7  A    between atoms: O1_12  and  N3_13 
REMARK    8  A    between atoms: N3_13  and  C6_15 
REMARK    9  A    between atoms: C6_15  and  C7_21 
REMARK   10  A    between atoms: N4_16  and  N5_18 
REMARK   11  A    between atoms: C8_24  and  N7_25 
REMARK   12  A    between atoms: C9_30  and  N9_31 
REMARK   13  A    between atoms: C10_34  and  N10_35 
ROOT
HETATM    1  C6  UNL     1      34.646  51.463  18.250  1.00  0.00     0.170 C 
HETATM    2  N4  UNL     1      35.039  50.843  17.164  1.00  0.00    -0.289 N 
ATOM      3  H4  UNL     1      35.312  49.861  17.223  1.00  0.00     0.188 HD
ENDROOT
BRANCH   1   4
HETATM    4  N3  UNL     1      34.276  52.826  18.121  1.00  0.00    -0.247 N 
ATOM      5  H3  UNL     1      33.294  53.103  18.110  1.00  0.00     0.196 HD
BRANCH   4   6
HETATM    6  O1  UNL     1      35.245  53.738  18.013  1.00  0.00    -0.277 OA
BRANCH   6   7
HETATM    7  C5  UNL     1      35.930  54.018  19.174  1.00  0.00     0.228 C 
BRANCH   7   8
HETATM    8  C4  UNL     1      37.394  54.220  18.747  1.00  0.00     0.261 C 
BRANCH   8   9
HETATM    9  N2  UNL     1      37.525  55.409  17.969  1.00  0.00    -0.071 N 
ATOM     10  H22 UNL     1      37.937  56.161  18.521  1.00  0.00     0.277 HD
ATOM     11  H21 UNL     1      36.611  55.821  17.780  1.00  0.00     0.277 HD
BRANCH   9  12
HETATM   12  C3  UNL     1      38.255  55.211  16.754  1.00  0.00     0.259 C 
BRANCH  12  13
HETATM   13  C2  UNL     1      37.436  55.643  15.568  1.00  0.00     0.259 C 
BRANCH  13  14
HETATM   14  N1  UNL     1      36.322  54.730  15.340  1.00  0.00    -0.077 N 
HETATM   15  C1  UNL     1      36.224  54.390  13.941  1.00  0.00     0.267 C 
ATOM     16  H12 UNL     1      35.445  55.105  15.702  1.00  0.00     0.276 HD
ATOM     17  H11 UNL     1      36.387  53.900  15.928  1.00  0.00     0.276 HD
ENDBRANCH  13  14
ENDBRANCH  12  13
ENDBRANCH   9  12
ENDBRANCH   8   9
ENDBRANCH   7   8
ENDBRANCH   6   7
ENDBRANCH   4   6
ENDBRANCH   1   4
BRANCH   1  18
HETATM   18  C7  UNL     1      34.618  50.701  19.469  1.00  0.00     0.133 A 
HETATM   19  N6  UNL     1      35.757  50.468  20.177  1.00  0.00    -0.186 N 
HETATM   20  C8  UNL     1      35.724  49.760  21.311  1.00  0.00     0.678 A 
ATOM     21  H6  UNL     1      36.645  50.839  19.840  1.00  0.00     0.184 HD
HETATM   22  N8  UNL     1      34.556  49.258  21.784  1.00  0.00    -0.175 N 
HETATM   23  C9  UNL     1      33.394  49.450  21.137  1.00  0.00     0.150 A 
ATOM     24  H8  UNL     1      34.559  48.722  22.652  1.00  0.00     0.186 HD
HETATM   25  C10 UNL     1      33.439  50.194  19.947  1.00  0.00     0.177 A 
BRANCH  20  26
HETATM   26  N7  UNL     1      36.796  49.551  21.955  1.00  0.00    -0.234 N 
ATOM     27  H72 UNL     1      37.574  49.082  21.492  1.00  0.00     0.174 HD
ATOM     28  H71 UNL     1      36.871  49.853  22.927  1.00  0.00     0.174 HD
ENDBRANCH  20  26
BRANCH  23  29
HETATM   29  N9  UNL     1      32.271  48.982  21.573  1.00  0.00    -0.383 N 
ATOM     30  H92 UNL     1      32.123  48.842  22.573  1.00  0.00     0.157 HD
ATOM     31  H91 UNL     1      31.503  48.735  20.951  1.00  0.00     0.157 HD
ENDBRANCH  23  29
BRANCH  25  32
HETATM   32  N10 UNL     1      32.204  50.374  19.282  1.00  0.00    -0.109 N 
HETATM   33  O2  UNL     1      31.607  51.452  19.357  1.00  0.00    -0.532 OA
HETATM   34  O3  UNL     1      31.675  49.342  18.562  1.00  0.00    -0.532 OA
ENDBRANCH  25  32
ENDBRANCH   1  18
BRANCH   2  35
HETATM   35  N5  UNL     1      35.094  51.486  15.937  1.00  0.00    -0.344 N 
ATOM     36  H52 UNL     1      35.236  52.497  15.929  1.00  0.00     0.176 HD
ATOM     37  H51 UNL     1      34.997  50.976  15.060  1.00  0.00     0.176 HD
ENDBRANCH   2  35
TORSDOF 13
ENDMDL
MODEL 2
REMARK VINA RESULT: -7.031791775      1.553      2.261
REMARK  13 active torsions:
REMARK  status: ('A' for Active; 'I' for Inactive)
REMARK    1  A    between atoms: N1_2  and  C2_5 
REMARK    2  A    between atoms: C2_5  and  C3_6 
REMARK    3  A    between atoms: C3_6  and  N2_7 
REMARK    4  A    between atoms: N2_7  and  C4_10 
REMARK    5  A    between atoms: C4_10  and  C5_11 
REMARK    6  A    between atoms: C5_11  and  O1_12 
REMARK    7  A    between atoms: O1_12  and  N3_13 
REMARK    8  A    between atoms: N3_13  and  C6_15 
REMARK    9  A    between atoms: C6_15  and  C7_21 
REMARK   10  A    between atoms: N4_16  and  N5_18 
REMARK   11  A    between atoms: C8_24  and  N7_25 
REMARK   12  A    between atoms: C9_30  and  N9_31 
REMARK   13  A    between atoms: C10_34  and  N10_35 
ROOT
HETATM    1  C6  UNL     1      34.559  49.728  18.198  1.00  0.00     0.170 C 
HETATM    2  N4  UNL     1      34.166  48.507  17.925  1.00  0.00    -0.289 N 
ATOM      3  H4  UNL     1      33.898  47.887  18.691  1.00  0.00     0.188 HD
ENDROOT
BRANCH   1   4
HETATM    4  N3  UNL     1      34.920  50.554  17.103  1.00  0.00    -0.247 N 
ATOM      5  H3  UNL     1      35.588  50.231  16.403  1.00  0.00     0.196 HD
BRANCH   4   6
HETATM    6  O1  UNL     1      34.365  51.764  17.014  1.00  0.00    -0.277 OA
BRANCH   6   7
HETATM    7  C5  UNL     1      35.217  52.826  17.220  1.00  0.00     0.228 C 
BRANCH   7   8
HETATM    8  C4  UNL     1      34.563  53.669  18.328  1.00  0.00     0.261 C 
BRANCH   8   9
HETATM    9  N2  UNL     1      35.465  53.841  19.419  1.00  0.00    -0.071 N 
ATOM     10  H22 UNL     1      35.235  53.207  20.185  1.00  0.00     0.277 HD
ATOM     11  H21 UNL     1      35.304  54.733  19.886  1.00  0.00     0.277 HD
BRANCH   9  12
HETATM   12  C3  UNL     1      36.840  53.704  19.043  1.00  0.00     0.259 C 
BRANCH  12  13
HETATM   13  C2  UNL     1      37.560  55.018  19.183  1.00  0.00     0.259 C 
BRANCH  13  14
HETATM   14  N1  UNL     1      37.546  55.760  17.929  1.00  0.00    -0.077 N 
HETATM   15  C1  UNL     1      38.240  55.024  16.898  1.00  0.00     0.267 C 
ATOM     16  H12 UNL     1      37.922  56.701  18.041  1.00  0.00     0.276 HD
ATOM     17  H11 UNL     1      36.598  56.006  17.645  1.00  0.00     0.276 HD
ENDBRANCH  13  14
ENDBRANCH  12  13
ENDBRANCH   9  12
ENDBRANCH   8   9
ENDBRANCH   7   8
ENDBRANCH   6   7
ENDBRANCH   4   6
ENDBRANCH   1   4
BRANCH   1  18
HETATM   18  C7  UNL     1      34.577  50.118  19.582  1.00  0.00     0.133 A 
HETATM   19  N6  UNL     1      35.738  50.131  20.292  1.00  0.00    -0.186 N 
HETATM   20  C8  UNL     1      35.749  50.497  21.578  1.00  0.00     0.678 A 
ATOM     21  H6  UNL     1      36.610  49.859  19.838  1.00  0.00     0.184 HD
HETATM   22  N8  UNL     1      34.604  50.866  22.206  1.00  0.00    -0.175 N 
HETATM   23  C9  UNL     1      33.423  50.878  21.566  1.00  0.00     0.150 A 
ATOM     24  H8  UNL     1      34.641  51.142  23.188  1.00  0.00     0.186 HD
HETATM   25  C10 UNL     1      33.422  50.491  20.216  1.00  0.00     0.177 A 
BRANCH  20  26
HETATM   26  N7  UNL     1      36.840  50.499  22.224  1.00  0.00    -0.234 N 
ATOM     27  H72 UNL     1      37.687  50.151  21.775  1.00  0.00     0.174 HD
ATOM     28  H71 UNL     1      36.861  50.848  23.183  1.00  0.00     0.174 HD
ENDBRANCH  20  26
BRANCH  23  29
HETATM   29  N9  UNL     1      32.323  51.230  22.147  1.00  0.00    -0.383 N 
ATOM     30  H92 UNL     1      31.800  50.561  22.712  1.00  0.00     0.157 HD
ATOM     31  H91 UNL     1      31.937  52.170  22.065  1.00  0.00     0.157 HD
ENDBRANCH  23  29
BRANCH  25  32
HETATM   32  N10 UNL     1      32.165  50.506  19.569  1.00  0.00    -0.109 N 
HETATM   33  O2  UNL     1      31.694  51.564  19.143  1.00  0.00    -0.532 OA
HETATM   34  O3  UNL     1      31.473  49.337  19.425  1.00  0.00    -0.532 OA
ENDBRANCH  25  32
ENDBRANCH   1  18
BRANCH   2  35
HETATM   35  N5  UNL     1      34.105  48.036  16.623  1.00  0.00    -0.344 N 
ATOM     36  H52 UNL     1      33.236  47.606  16.306  1.00  0.00     0.176 HD
ATOM     37  H51 UNL     1      34.900  48.110  15.989  1.00  0.00     0.176 HD
ENDBRANCH   2  35
TORSDOF 13
ENDMDL
MODEL 3
REMARK VINA RESULT: -6.868024328      1.650      2.095
REMARK  13 active torsions:
REMARK  status: ('A' for Active; 'I' for Inactive)
REMARK    1  A    between atoms: N1_2  and  C2_5 
REMARK    2  A    between atoms: C2_5  and  C3_6 
REMARK    3  A    between atoms: C3_6  and  N2_7 
REMARK    4  A    between atoms: N2_7  and  C4_10 
REMARK    5  A    between atoms: C4_10  and  C5_11 
REMARK    6  A    between atoms: C5_11  and  O1_12 
REMARK    7  A    between atoms: O1_12  and  N3_13 
REMARK    8  A    between atoms: N3_13  and  C6_15 
REMARK    9  A    between atoms: C6_15  and  C7_21 
REMARK   10  A    between atoms: N4_16  and  N5_18 
REMARK   11  A    between atoms: C8_24  and  N7_25 
REMARK   12  A    between atoms: C9_30  and  N9_31 
REMARK   13  A    between atoms: C10_34  and  N10_35 
ROOT
HETATM    1  C6  UNL     1      34.502  49.714  18.203  1.00  0.00     0.170 C 
HETATM    2  N4  UNL     1      34.184  48.472  17.928  1.00  0.00    -0.289 N 
ATOM      3  H4  UNL     1      33.977  47.830  18.694  1.00  0.00     0.188 HD
ENDROOT
BRANCH   1   4
HETATM    4  N3  UNL     1      34.780  50.571  17.108  1.00  0.00    -0.247 N 
ATOM      5  H3  UNL     1      34.992  50.190  16.186  1.00  0.00     0.196 HD
BRANCH   4   6
HETATM    6  O1  UNL     1      34.756  51.889  17.315  1.00  0.00    -0.277 OA
BRANCH   6   7
HETATM    7  C5  UNL     1      35.987  52.494  17.437  1.00  0.00     0.228 C 
BRANCH   7   8
HETATM    8  C4  UNL     1      35.688  53.980  17.704  1.00  0.00     0.261 C 
BRANCH   8   9
HETATM    9  N2  UNL     1      34.982  54.550  16.603  1.00  0.00    -0.071 N 
ATOM     10  H22 UNL     1      34.651  55.488  16.830  1.00  0.00     0.277 HD
ATOM     11  H21 UNL     1      34.085  54.084  16.467  1.00  0.00     0.277 HD
BRANCH   9  12
HETATM   12  C3  UNL     1      35.740  54.559  15.388  1.00  0.00     0.259 C 
BRANCH  12  13
HETATM   13  C2  UNL     1      34.858  54.242  14.211  1.00  0.00     0.259 C 
BRANCH  13  14
HETATM   14  N1  UNL     1      34.217  52.943  14.372  1.00  0.00    -0.077 N 
HETATM   15  C1  UNL     1      34.978  51.916  13.703  1.00  0.00     0.267 C 
ATOM     16  H12 UNL     1      33.246  52.959  14.060  1.00  0.00     0.276 HD
ATOM     17  H11 UNL     1      34.058  52.718  15.354  1.00  0.00     0.276 HD
ENDBRANCH  13  14
ENDBRANCH  12  13
ENDBRANCH   9  12
ENDBRANCH   8   9
ENDBRANCH   7   8
ENDBRANCH   6   7
ENDBRANCH   4   6
ENDBRANCH   1   4
BRANCH   1  18
HETATM   18  C7  UNL     1      34.531  50.093  19.590  1.00  0.00     0.133 A 
HETATM   19  N6  UNL     1      35.698  50.104  20.290  1.00  0.00    -0.186 N 
HETATM   20  C8  UNL     1      35.719  50.459  21.579  1.00  0.00     0.678 A 
ATOM     21  H6  UNL     1      36.567  49.838  19.826  1.00  0.00     0.184 HD
HETATM   22  N8  UNL     1      34.578  50.820  22.220  1.00  0.00    -0.175 N 
HETATM   23  C9  UNL     1      33.391  50.833  21.590  1.00  0.00     0.150 A 
ATOM     24  H8  UNL     1      34.622  51.087  23.203  1.00  0.00     0.186 HD
HETATM   25  C10 UNL     1      33.380  50.457  20.237  1.00  0.00     0.177 A 
BRANCH  20  26
HETATM   26  N7  UNL     1      36.815  50.460  22.216  1.00  0.00    -0.234 N 
ATOM     27  H72 UNL     1      36.806  50.319  23.226  1.00  0.00     0.174 HD
ATOM     28  H71 UNL     1      37.693  50.601  21.715  1.00  0.00     0.174 HD
ENDBRANCH  20  26
BRANCH  23  29
HETATM   29  N9  UNL     1      32.295  51.175  22.183  1.00  0.00    -0.383 N 
ATOM     30  H92 UNL     1      32.141  50.936  23.162  1.00  0.00     0.157 HD
ATOM     31  H91 UNL     1      31.553  51.687  21.707  1.00  0.00     0.157 HD
ENDBRANCH  23  29
BRANCH  25  32
HETATM   32  N10 UNL     1      32.118  50.472  19.601  1.00  0.00    -0.109 N 
HETATM   33  O2  UNL     1      31.637  51.533  19.192  1.00  0.00    -0.532 OA
HETATM   34  O3  UNL     1      31.430  49.302  19.448  1.00  0.00    -0.532 OA
ENDBRANCH  25  32
ENDBRANCH   1  18
BRANCH   2  35
HETATM   35  N5  UNL     1      34.120  48.009  16.623  1.00  0.00    -0.344 N 
ATOM     36  H52 UNL     1      33.332  48.303  16.045  1.00  0.00     0.176 HD
ATOM     37  H51 UNL     1      34.834  47.391  16.238  1.00  0.00     0.176 HD
ENDBRANCH   2  35
TORSDOF 13
ENDMDL
MODEL 4
REMARK VINA RESULT: -6.866993589      0.987      1.261
REMARK  13 active torsions:
REMARK  status: ('A' for Active; 'I' for Inactive)
REMARK    1  A    between atoms: N1_2  and  C2_5 
REMARK    2  A    between atoms: C2_5  and  C3_6 
REMARK    3  A    between atoms: C3_6  and  N2_7 
REMARK    4  A    between atoms: N2_7  and  C4_10 
REMARK    5  A    between atoms: C4_10  and  C5_11 
REMARK    6  A    between atoms: C5_11  and  O1_12 
REMARK    7  A    between atoms: O1_12  and  N3_13 
REMARK    8  A    between atoms: N3_13  and  C6_15 
REMARK    9  A    between atoms: C6_15  and  C7_21 
REMARK   10  A    between atoms: N4_16  and  N5_18 
REMARK   11  A    between atoms: C8_24  and  N7_25 
REMARK   12  A    between atoms: C9_30  and  N9_31 
REMARK   13  A    between atoms: C10_34  and  N10_35 
ROOT
HETATM    1  C6  UNL     1      34.646  51.583  18.303  1.00  0.00     0.170 C 
HETATM    2  N4  UNL     1      35.081  51.009  17.207  1.00  0.00    -0.289 N 
ATOM      3  H4  UNL     1      35.395  50.039  17.244  1.00  0.00     0.188 HD
ENDROOT
BRANCH   1   4
HETATM    4  N3  UNL     1      34.218  52.931  18.205  1.00  0.00    -0.247 N 
ATOM      5  H3  UNL     1      33.234  53.178  18.315  1.00  0.00     0.196 HD
BRANCH   4   6
HETATM    6  O1  UNL     1      35.136  53.870  17.963  1.00  0.00    -0.277 OA
BRANCH   6   7
HETATM    7  C5  UNL     1      36.097  54.026  18.936  1.00  0.00     0.228 C 
BRANCH   7   8
HETATM    8  C4  UNL     1      37.352  54.524  18.197  1.00  0.00     0.261 C 
BRANCH   8   9
HETATM    9  N2  UNL     1      36.982  55.258  17.031  1.00  0.00    -0.071 N 
ATOM     10  H22 UNL     1      36.261  55.945  17.248  1.00  0.00     0.277 HD
ATOM     11  H21 UNL     1      36.462  54.668  16.381  1.00  0.00     0.277 HD
BRANCH   9  12
HETATM   12  C3  UNL     1      38.095  55.876  16.376  1.00  0.00     0.259 C 
BRANCH  12  13
HETATM   13  C2  UNL     1      38.045  55.623  14.894  1.00  0.00     0.259 C 
BRANCH  13  14
HETATM   14  N1  UNL     1      39.379  55.676  14.309  1.00  0.00    -0.077 N 
HETATM   15  C1  UNL     1      40.303  56.319  15.212  1.00  0.00     0.267 C 
ATOM     16  H12 UNL     1      39.373  56.122  13.391  1.00  0.00     0.276 HD
ATOM     17  H11 UNL     1      39.706  54.752  14.027  1.00  0.00     0.276 HD
ENDBRANCH  13  14
ENDBRANCH  12  13
ENDBRANCH   9  12
ENDBRANCH   8   9
ENDBRANCH   7   8
ENDBRANCH   6   7
ENDBRANCH   4   6
ENDBRANCH   1   4
BRANCH   1  18
HETATM   18  C7  UNL     1      34.633  50.787  19.501  1.00  0.00     0.133 A 
HETATM   19  N6  UNL     1      35.775  50.569  20.210  1.00  0.00    -0.186 N 
HETATM   20  C8  UNL     1      35.757  49.830  21.324  1.00  0.00     0.678 A 
ATOM     21  H6  UNL     1      36.653  50.975  19.888  1.00  0.00     0.184 HD
HETATM   22  N8  UNL     1      34.601  49.281  21.776  1.00  0.00    -0.175 N 
HETATM   23  C9  UNL     1      33.438  49.455  21.127  1.00  0.00     0.150 A 
ATOM     24  H8  UNL     1      34.616  48.721  22.629  1.00  0.00     0.186 HD
HETATM   25  C10 UNL     1      33.468  50.232  19.958  1.00  0.00     0.177 A 
BRANCH  20  26
HETATM   26  N7  UNL     1      36.831  49.636  21.969  1.00  0.00    -0.234 N 
ATOM     27  H72 UNL     1      37.549  50.360  21.974  1.00  0.00     0.174 HD
ATOM     28  H71 UNL     1      36.967  48.761  22.477  1.00  0.00     0.174 HD
ENDBRANCH  20  26
BRANCH  23  29
HETATM   29  N9  UNL     1      32.328  48.942  21.544  1.00  0.00    -0.383 N 
ATOM     30  H92 UNL     1      31.449  49.163  21.076  1.00  0.00     0.157 HD
ATOM     31  H91 UNL     1      32.283  48.310  22.342  1.00  0.00     0.157 HD
ENDBRANCH  23  29
BRANCH  25  32
HETATM   32  N10 UNL     1      32.232  50.394  19.290  1.00  0.00    -0.109 N 
HETATM   33  O2  UNL     1      31.608  51.455  19.380  1.00  0.00    -0.532 OA
HETATM   34  O3  UNL     1      31.731  49.362  18.550  1.00  0.00    -0.532 OA
ENDBRANCH  25  32
ENDBRANCH   1  18
BRANCH   2  35
HETATM   35  N5  UNL     1      35.125  51.687  15.999  1.00  0.00    -0.344 N 
ATOM     36  H52 UNL     1      35.217  52.703  16.020  1.00  0.00     0.176 HD
ATOM     37  H51 UNL     1      35.066  51.197  15.107  1.00  0.00     0.176 HD
ENDBRANCH   2  35
TORSDOF 13
ENDMDL
MODEL 5
REMARK VINA RESULT: -6.853054776      1.861      2.797
REMARK  13 active torsions:
REMARK  status: ('A' for Active; 'I' for Inactive)
REMARK    1  A    between atoms: N1_2  and  C2_5 
REMARK    2  A    between atoms: C2_5  and  C3_6 
REMARK    3  A    between atoms: C3_6  and  N2_7 
REMARK    4  A    between atoms: N2_7  and  C4_10 
REMARK    5  A    between atoms: C4_10  and  C5_11 
REMARK    6  A    between atoms: C5_11  and  O1_12 
REMARK    7  A    between atoms: O1_12  and  N3_13 
REMARK    8  A    between atoms: N3_13  and  C6_15 
REMARK    9  A    between atoms: C6_15  and  C7_21 
REMARK   10  A    between atoms: N4_16  and  N5_18 
REMARK   11  A    between atoms: C8_24  and  N7_25 
REMARK   12  A    between atoms: C9_30  and  N9_31 
REMARK   13  A    between atoms: C10_34  and  N10_35 
ROOT
HETATM    1  C6  UNL     1      34.564  49.739  18.148  1.00  0.00     0.170 C 
HETATM    2  N4  UNL     1      34.103  48.552  17.837  1.00  0.00    -0.289 N 
ATOM      3  H4  UNL     1      33.761  47.941  18.579  1.00  0.00     0.188 HD
ENDROOT
BRANCH   1   4
HETATM    4  N3  UNL     1      35.027  50.555  17.084  1.00  0.00    -0.247 N 
ATOM      5  H3  UNL     1      35.880  51.106  17.180  1.00  0.00     0.196 HD
BRANCH   4   6
HETATM    6  O1  UNL     1      34.317  50.584  15.954  1.00  0.00    -0.277 OA
BRANCH   6   7
HETATM    7  C5  UNL     1      34.948  51.151  14.870  1.00  0.00     0.228 C 
BRANCH   7   8
HETATM    8  C4  UNL     1      34.636  52.655  14.954  1.00  0.00     0.261 C 
BRANCH   8   9
HETATM    9  N2  UNL     1      35.843  53.406  15.076  1.00  0.00    -0.071 N 
ATOM     10  H22 UNL     1      35.972  54.020  14.271  1.00  0.00     0.277 HD
ATOM     11  H21 UNL     1      36.658  52.804  14.959  1.00  0.00     0.277 HD
BRANCH   9  12
HETATM   12  C3  UNL     1      35.928  54.145  16.299  1.00  0.00     0.259 C 
BRANCH  12  13
HETATM   13  C2  UNL     1      34.609  54.124  17.022  1.00  0.00     0.259 C 
BRANCH  13  14
HETATM   14  N1  UNL     1      34.804  54.088  18.466  1.00  0.00    -0.077 N 
HETATM   15  C1  UNL     1      36.092  53.520  18.789  1.00  0.00     0.267 C 
ATOM     16  H12 UNL     1      34.045  53.598  18.939  1.00  0.00     0.276 HD
ATOM     17  H11 UNL     1      34.679  55.007  18.889  1.00  0.00     0.276 HD
ENDBRANCH  13  14
ENDBRANCH  12  13
ENDBRANCH   9  12
ENDBRANCH   8   9
ENDBRANCH   7   8
ENDBRANCH   6   7
ENDBRANCH   4   6
ENDBRANCH   1   4
BRANCH   1  18
HETATM   18  C7  UNL     1      34.547  50.108  19.538  1.00  0.00     0.133 A 
HETATM   19  N6  UNL     1      35.690  50.107  20.277  1.00  0.00    -0.186 N 
HETATM   20  C8  UNL     1      35.669  50.451  21.569  1.00  0.00     0.678 A 
ATOM     21  H6  UNL     1      36.573  49.840  19.841  1.00  0.00     0.184 HD
HETATM   22  N8  UNL     1      34.509  50.813  22.174  1.00  0.00    -0.175 N 
HETATM   23  C9  UNL     1      33.345  50.837  21.504  1.00  0.00     0.150 A 
ATOM     24  H8  UNL     1      34.522  51.072  23.160  1.00  0.00     0.186 HD
HETATM   25  C10 UNL     1      33.377  50.472  20.149  1.00  0.00     0.177 A 
BRANCH  20  26
HETATM   26  N7  UNL     1      36.743  50.442  22.242  1.00  0.00    -0.234 N 
ATOM     27  H72 UNL     1      37.264  49.570  22.339  1.00  0.00     0.174 HD
ATOM     28  H71 UNL     1      37.077  51.302  22.679  1.00  0.00     0.174 HD
ENDBRANCH  20  26
BRANCH  23  29
HETATM   29  N9  UNL     1      32.231  51.181  22.063  1.00  0.00    -0.383 N 
ATOM     30  H92 UNL     1      31.993  50.839  22.994  1.00  0.00     0.157 HD
ATOM     31  H91 UNL     1      31.556  51.793  21.605  1.00  0.00     0.157 HD
ENDBRANCH  23  29
BRANCH  25  32
HETATM   32  N10 UNL     1      32.137  50.499  19.470  1.00  0.00    -0.109 N 
HETATM   33  O2  UNL     1      31.650  51.572  19.102  1.00  0.00    -0.532 OA
HETATM   34  O3  UNL     1      31.479  49.327  19.231  1.00  0.00    -0.532 OA
ENDBRANCH  25  32
ENDBRANCH   1  18
BRANCH   2  35
HETATM   35  N5  UNL     1      34.068  48.105  16.525  1.00  0.00    -0.344 N 
ATOM     36  H52 UNL     1      34.066  48.802  15.779  1.00  0.00     0.176 HD
ATOM     37  H51 UNL     1      34.044  47.112  16.298  1.00  0.00     0.176 HD
ENDBRANCH   2  35
TORSDOF 13
ENDMDL
