MODEL 1
REMARK VINA RESULT: -11.861942864      0.000      0.000
REMARK  9 active torsions:
REMARK  status: ('A' for Active; 'I' for Inactive)
REMARK    1  A    between atoms: C2_2  and  C4_4 
REMARK    2  A    between atoms: C8_10  and  C9_11 
REMARK    3  A    between atoms: C9_11  and  N2_12 
REMARK    4  A    between atoms: N2_12  and  C10_13 
REMARK    5  A    between atoms: N2_12  and  C17_22 
REMARK    6  A    between atoms: C10_13  and  C11_14 
REMARK    7  A    between atoms: C20_27  and  N4_28 
REMARK       I    between atoms: N4_28  and  C21_30 
REMARK    8  A    between atoms: C21_30  and  C22_32 
REMARK    9  A    between atoms: C22_32  and  C23_33 
ROOT
HETATM    1  N2  UNL     1     -18.441  18.410  -7.566  1.00  0.00    -0.358 N 
ENDROOT
BRANCH   1   2
HETATM    2  C9  UNL     1     -17.289  19.088  -7.066  1.00  0.00     0.163 C 
BRANCH   2   3
HETATM    3  C8  UNL     1     -16.307  19.476  -8.115  1.00  0.00    -0.039 A 
HETATM    4  C7  UNL     1     -15.156  18.805  -8.390  1.00  0.00     0.011 A 
HETATM    5  C6  UNL     1     -14.296  19.193  -9.363  1.00  0.00     0.031 A 
HETATM    6  C5  UNL     1     -14.534  20.324 -10.159  1.00  0.00     0.050 A 
HETATM    7  N1  UNL     1     -13.775  20.776 -11.113  1.00  0.00    -0.352 N 
HETATM    8  C30 UNL     1     -15.688  21.009  -9.891  1.00  0.00     0.034 A 
HETATM    9  C4  UNL     1     -14.126  21.859 -11.783  1.00  0.00     0.055 A 
ATOM     10  H1  UNL     1     -12.907  20.294 -11.345  1.00  0.00     0.166 HD
HETATM   11  S1  UNL     1     -15.610  22.274 -11.038  1.00  0.00    -0.074 SA
HETATM   12  C29 UNL     1     -16.572  20.596  -8.880  1.00  0.00     0.030 A 
BRANCH   9  13
HETATM   13  C2  UNL     1     -13.399  22.543 -12.914  1.00  0.00     0.035 C 
HETATM   14  C1  UNL     1     -12.689  23.736 -12.264  1.00  0.00     0.016 C 
HETATM   15  C3  UNL     1     -14.335  22.960 -14.004  1.00  0.00     0.016 C 
ENDBRANCH   9  13
ENDBRANCH   2   3
ENDBRANCH   1   2
BRANCH   1  16
HETATM   16  C10 UNL     1     -18.443  17.092  -8.081  1.00  0.00     0.166 C 
BRANCH  16  17
HETATM   17  C11 UNL     1     -17.770  16.042  -7.321  1.00  0.00    -0.002 A 
HETATM   18  C12 UNL     1     -16.463  15.651  -7.448  1.00  0.00     0.015 A 
HETATM   19  C13 UNL     1     -15.979  14.625  -6.666  1.00  0.00     0.043 A 
HETATM   20  C14 UNL     1     -16.766  13.965  -5.750  1.00  0.00     0.119 A 
HETATM   21  F1  UNL     1     -16.303  12.955  -4.976  1.00  0.00    -0.206 F 
HETATM   22  C15 UNL     1     -18.081  14.352  -5.618  1.00  0.00     0.085 A 
HETATM   23  C16 UNL     1     -18.592  15.373  -6.384  1.00  0.00     0.127 A 
HETATM   24  F2  UNL     1     -19.890  15.702  -6.203  1.00  0.00    -0.205 F 
ENDBRANCH  16  17
ENDBRANCH   1  16
BRANCH   1  25
HETATM   25  C17 UNL     1     -19.679  19.155  -7.522  1.00  0.00     0.120 A 
HETATM   26  C18 UNL     1     -20.279  19.511  -8.704  1.00  0.00     0.066 A 
HETATM   27  C19 UNL     1     -21.457  20.220  -8.665  1.00  0.00     0.110 A 
HETATM   28  N3  UNL     1     -21.996  20.550  -7.485  1.00  0.00    -0.201 N 
HETATM   29  C20 UNL     1     -21.429  20.214  -6.314  1.00  0.00     0.686 A 
ATOM     30  H3  UNL     1     -22.870  21.075  -7.474  1.00  0.00     0.183 HD
HETATM   31  N5  UNL     1     -20.269  19.516  -6.377  1.00  0.00    -0.176 N 
ATOM     32  H5  UNL     1     -19.821  19.250  -5.500  1.00  0.00     0.186 HD
BRANCH  29  33
HETATM   33  N4  UNL     1     -21.940  20.536  -5.158  1.00  0.00    -0.159 N 
HETATM   34  C21 UNL     1     -23.232  20.062  -4.836  1.00  0.00     0.240 C 
HETATM   35  O1  UNL     1     -24.241  20.533  -5.411  1.00  0.00    -0.272 OA
ATOM     36  H4  UNL     1     -21.419  21.117  -4.502  1.00  0.00     0.187 HD
BRANCH  34  37
HETATM   37  C22 UNL     1     -23.376  19.009  -3.815  1.00  0.00     0.145 C 
BRANCH  37  38
HETATM   38  C23 UNL     1     -22.073  18.629  -3.214  1.00  0.00    -0.004 A 
HETATM   39  C24 UNL     1     -21.467  17.461  -3.635  1.00  0.00     0.056 A 
HETATM   40  C25 UNL     1     -20.256  17.125  -3.064  1.00  0.00     0.158 A 
HETATM   41  F3  UNL     1     -19.650  15.988  -3.466  1.00  0.00    -0.203 F 
HETATM   42  C26 UNL     1     -19.661  17.911  -2.113  1.00  0.00     0.196 A 
HETATM   43  F4  UNL     1     -18.473  17.558  -1.571  1.00  0.00    -0.199 F 
HETATM   44  C27 UNL     1     -20.264  19.064  -1.700  1.00  0.00     0.197 A 
HETATM   45  F5  UNL     1     -19.708  19.877  -0.754  1.00  0.00    -0.199 F 
HETATM   46  C28 UNL     1     -21.493  19.431  -2.260  1.00  0.00     0.165 A 
HETATM   47  F6  UNL     1     -22.075  20.563  -1.848  1.00  0.00    -0.202 F 
ENDBRANCH  37  38
ENDBRANCH  34  37
ENDBRANCH  29  33
ENDBRANCH   1  25
TORSDOF 9
ENDMDL
MODEL 2
REMARK VINA RESULT: -11.858133832      0.913      1.133
REMARK  9 active torsions:
REMARK  status: ('A' for Active; 'I' for Inactive)
REMARK    1  A    between atoms: C2_2  and  C4_4 
REMARK    2  A    between atoms: C8_10  and  C9_11 
REMARK    3  A    between atoms: C9_11  and  N2_12 
REMARK    4  A    between atoms: N2_12  and  C10_13 
REMARK    5  A    between atoms: N2_12  and  C17_22 
REMARK    6  A    between atoms: C10_13  and  C11_14 
REMARK    7  A    between atoms: C20_27  and  N4_28 
REMARK       I    between atoms: N4_28  and  C21_30 
REMARK    8  A    between atoms: C21_30  and  C22_32 
REMARK    9  A    between atoms: C22_32  and  C23_33 
ROOT
HETATM    1  N2  UNL     1     -19.073  18.221  -7.236  1.00  0.00    -0.358 N 
ENDROOT
BRANCH   1   2
HETATM    2  C9  UNL     1     -17.895  18.860  -6.747  1.00  0.00     0.163 C 
BRANCH   2   3
HETATM    3  C8  UNL     1     -16.887  19.167  -7.797  1.00  0.00    -0.039 A 
HETATM    4  C7  UNL     1     -15.856  18.352  -8.150  1.00  0.00     0.011 A 
HETATM    5  C6  UNL     1     -14.967  18.671  -9.120  1.00  0.00     0.031 A 
HETATM    6  C5  UNL     1     -15.047  19.877  -9.835  1.00  0.00     0.050 A 
HETATM    7  N1  UNL     1     -14.248  20.274 -10.781  1.00  0.00    -0.352 N 
HETATM    8  C30 UNL     1     -16.080  20.707  -9.490  1.00  0.00     0.034 A 
HETATM    9  C4  UNL     1     -14.444  21.440 -11.370  1.00  0.00     0.055 A 
ATOM     10  H1  UNL     1     -13.467  19.684 -11.069  1.00  0.00     0.166 HD
HETATM   11  S1  UNL     1     -15.834  22.021 -10.556  1.00  0.00    -0.074 SA
HETATM   12  C29 UNL     1     -16.995  20.363  -8.481  1.00  0.00     0.030 A 
BRANCH   9  13
HETATM   13  C2  UNL     1     -13.646  22.082 -12.476  1.00  0.00     0.035 C 
HETATM   14  C1  UNL     1     -12.844  23.195 -11.790  1.00  0.00     0.016 C 
HETATM   15  C3  UNL     1     -14.526  22.603 -13.567  1.00  0.00     0.016 C 
ENDBRANCH   9  13
ENDBRANCH   2   3
ENDBRANCH   1   2
BRANCH   1  16
HETATM   16  C10 UNL     1     -19.160  16.858  -7.606  1.00  0.00     0.166 C 
BRANCH  16  17
HETATM   17  C11 UNL     1     -18.441  15.869  -6.807  1.00  0.00    -0.002 A 
HETATM   18  C12 UNL     1     -18.611  15.619  -5.471  1.00  0.00     0.015 A 
HETATM   19  C13 UNL     1     -17.837  14.660  -4.853  1.00  0.00     0.043 A 
HETATM   20  C14 UNL     1     -16.886  13.933  -5.532  1.00  0.00     0.119 A 
HETATM   21  F1  UNL     1     -16.120  12.988  -4.938  1.00  0.00    -0.206 F 
HETATM   22  C15 UNL     1     -16.711  14.179  -6.876  1.00  0.00     0.085 A 
HETATM   23  C16 UNL     1     -17.468  15.129  -7.519  1.00  0.00     0.127 A 
HETATM   24  F2  UNL     1     -17.244  15.321  -8.838  1.00  0.00    -0.205 F 
ENDBRANCH  16  17
ENDBRANCH   1  16
BRANCH   1  25
HETATM   25  C17 UNL     1     -20.247  19.058  -7.343  1.00  0.00     0.120 A 
HETATM   26  C18 UNL     1     -20.826  19.232  -8.576  1.00  0.00     0.066 A 
HETATM   27  C19 UNL     1     -21.942  20.029  -8.681  1.00  0.00     0.110 A 
HETATM   28  N3  UNL     1     -22.442  20.619  -7.588  1.00  0.00    -0.201 N 
HETATM   29  C20 UNL     1     -21.894  20.467  -6.372  1.00  0.00     0.686 A 
ATOM     30  H3  UNL     1     -23.271  21.206  -7.683  1.00  0.00     0.183 HD
HETATM   31  N5  UNL     1     -20.797  19.677  -6.293  1.00  0.00    -0.176 N 
ATOM     32  H5  UNL     1     -20.364  19.547  -5.378  1.00  0.00     0.186 HD
BRANCH  29  33
HETATM   33  N4  UNL     1     -22.369  21.042  -5.301  1.00  0.00    -0.159 N 
HETATM   34  C21 UNL     1     -23.664  20.689  -4.862  1.00  0.00     0.240 C 
HETATM   35  O1  UNL     1     -24.674  21.058  -5.505  1.00  0.00    -0.272 OA
ATOM     36  H4  UNL     1     -21.816  21.732  -4.793  1.00  0.00     0.187 HD
BRANCH  34  37
HETATM   37  C22 UNL     1     -23.811  19.881  -3.638  1.00  0.00     0.145 C 
BRANCH  37  38
HETATM   38  C23 UNL     1     -22.556  19.179  -3.276  1.00  0.00    -0.004 A 
HETATM   39  C24 UNL     1     -22.270  17.977  -3.892  1.00  0.00     0.056 A 
HETATM   40  C25 UNL     1     -21.097  17.339  -3.542  1.00  0.00     0.158 A 
HETATM   41  F3  UNL     1     -20.801  16.164  -4.137  1.00  0.00    -0.203 F 
HETATM   42  C26 UNL     1     -20.235  17.865  -2.617  1.00  0.00     0.196 A 
HETATM   43  F4  UNL     1     -19.092  17.219  -2.292  1.00  0.00    -0.199 F 
HETATM   44  C27 UNL     1     -20.522  19.053  -2.009  1.00  0.00     0.197 A 
HETATM   45  F5  UNL     1     -19.693  19.615  -1.081  1.00  0.00    -0.199 F 
HETATM   46  C28 UNL     1     -21.704  19.724  -2.343  1.00  0.00     0.165 A 
HETATM   47  F6  UNL     1     -21.976  20.887  -1.743  1.00  0.00    -0.202 F 
ENDBRANCH  37  38
ENDBRANCH  34  37
ENDBRANCH  29  33
ENDBRANCH   1  25
TORSDOF 9
ENDMDL
MODEL 3
REMARK VINA RESULT: -11.763332516      1.192      1.855
REMARK  9 active torsions:
REMARK  status: ('A' for Active; 'I' for Inactive)
REMARK    1  A    between atoms: C2_2  and  C4_4 
REMARK    2  A    between atoms: C8_10  and  C9_11 
REMARK    3  A    between atoms: C9_11  and  N2_12 
REMARK    4  A    between atoms: N2_12  and  C10_13 
REMARK    5  A    between atoms: N2_12  and  C17_22 
REMARK    6  A    between atoms: C10_13  and  C11_14 
REMARK    7  A    between atoms: C20_27  and  N4_28 
REMARK       I    between atoms: N4_28  and  C21_30 
REMARK    8  A    between atoms: C21_30  and  C22_32 
REMARK    9  A    between atoms: C22_32  and  C23_33 
ROOT
HETATM    1  N2  UNL     1     -19.232  18.224  -7.152  1.00  0.00    -0.358 N 
ENDROOT
BRANCH   1   2
HETATM    2  C9  UNL     1     -18.033  18.824  -6.664  1.00  0.00     0.163 C 
BRANCH   2   3
HETATM    3  C8  UNL     1     -17.023  19.113  -7.717  1.00  0.00    -0.039 A 
HETATM    4  C7  UNL     1     -16.014  18.276  -8.078  1.00  0.00     0.011 A 
HETATM    5  C6  UNL     1     -15.121  18.580  -9.051  1.00  0.00     0.031 A 
HETATM    6  C5  UNL     1     -15.176  19.791  -9.759  1.00  0.00     0.050 A 
HETATM    7  N1  UNL     1     -14.372  20.174 -10.707  1.00  0.00    -0.352 N 
HETATM    8  C30 UNL     1     -16.187  20.643  -9.405  1.00  0.00     0.034 A 
HETATM    9  C4  UNL     1     -14.544  21.347 -11.288  1.00  0.00     0.055 A 
ATOM     10  H1  UNL     1     -13.607  19.567 -11.001  1.00  0.00     0.166 HD
HETATM   11  S1  UNL     1     -15.915  21.956 -10.465  1.00  0.00    -0.074 SA
HETATM   12  C29 UNL     1     -17.106  20.315  -8.394  1.00  0.00     0.030 A 
BRANCH   9  13
HETATM   13  C2  UNL     1     -13.735  21.977 -12.394  1.00  0.00     0.035 C 
HETATM   14  C1  UNL     1     -12.934  23.092 -11.713  1.00  0.00     0.016 C 
HETATM   15  C3  UNL     1     -14.606  22.491 -13.496  1.00  0.00     0.016 C 
ENDBRANCH   9  13
ENDBRANCH   2   3
ENDBRANCH   1   2
BRANCH   1  16
HETATM   16  C10 UNL     1     -19.378  16.854  -7.476  1.00  0.00     0.166 C 
BRANCH  16  17
HETATM   17  C11 UNL     1     -18.604  15.871  -6.723  1.00  0.00    -0.002 A 
HETATM   18  C12 UNL     1     -18.701  15.608  -5.381  1.00  0.00     0.015 A 
HETATM   19  C13 UNL     1     -17.881  14.658  -4.812  1.00  0.00     0.043 A 
HETATM   20  C14 UNL     1     -16.955  13.952  -5.544  1.00  0.00     0.119 A 
HETATM   21  F1  UNL     1     -16.144  13.015  -4.998  1.00  0.00    -0.206 F 
HETATM   22  C15 UNL     1     -16.851  14.212  -6.893  1.00  0.00     0.085 A 
HETATM   23  C16 UNL     1     -17.656  15.154  -7.489  1.00  0.00     0.127 A 
HETATM   24  F2  UNL     1     -17.501  15.359  -8.816  1.00  0.00    -0.205 F 
ENDBRANCH  16  17
ENDBRANCH   1  16
BRANCH   1  25
HETATM   25  C17 UNL     1     -20.362  19.112  -7.310  1.00  0.00     0.120 A 
HETATM   26  C18 UNL     1     -20.948  19.224  -8.547  1.00  0.00     0.066 A 
HETATM   27  C19 UNL     1     -22.023  20.068  -8.701  1.00  0.00     0.110 A 
HETATM   28  N3  UNL     1     -22.478  20.763  -7.650  1.00  0.00    -0.201 N 
HETATM   29  C20 UNL     1     -21.922  20.673  -6.431  1.00  0.00     0.686 A 
ATOM     30  H3  UNL     1     -23.276  21.384  -7.781  1.00  0.00     0.183 HD
HETATM   31  N5  UNL     1     -20.865  19.835  -6.303  1.00  0.00    -0.176 N 
ATOM     32  H5  UNL     1     -20.428  19.750  -5.386  1.00  0.00     0.186 HD
BRANCH  29  33
HETATM   33  N4  UNL     1     -22.352  21.350  -5.402  1.00  0.00    -0.159 N 
HETATM   34  C21 UNL     1     -23.653  21.089  -4.917  1.00  0.00     0.240 C 
HETATM   35  O1  UNL     1     -24.658  21.450  -5.572  1.00  0.00    -0.272 OA
ATOM     36  H4  UNL     1     -21.761  22.053  -4.958  1.00  0.00     0.187 HD
BRANCH  34  37
HETATM   37  C22 UNL     1     -23.811  20.386  -3.631  1.00  0.00     0.145 C 
BRANCH  37  38
HETATM   38  C23 UNL     1     -22.628  19.555  -3.297  1.00  0.00    -0.004 A 
HETATM   39  C24 UNL     1     -21.751  20.011  -2.332  1.00  0.00     0.056 A 
HETATM   40  C25 UNL     1     -20.658  19.224  -2.035  1.00  0.00     0.158 A 
HETATM   41  F3  UNL     1     -19.792  19.654  -1.093  1.00  0.00    -0.203 F 
HETATM   42  C26 UNL     1     -20.434  18.028  -2.664  1.00  0.00     0.196 A 
HETATM   43  F4  UNL     1     -19.353  17.276  -2.353  1.00  0.00    -0.199 F 
HETATM   44  C27 UNL     1     -21.302  17.581  -3.617  1.00  0.00     0.197 A 
HETATM   45  F5  UNL     1     -21.119  16.397  -4.272  1.00  0.00    -0.199 F 
HETATM   46  C28 UNL     1     -22.421  18.358  -3.941  1.00  0.00     0.165 A 
HETATM   47  F6  UNL     1     -23.266  17.911  -4.876  1.00  0.00    -0.202 F 
ENDBRANCH  37  38
ENDBRANCH  34  37
ENDBRANCH  29  33
ENDBRANCH   1  25
TORSDOF 9
ENDMDL
MODEL 4
REMARK VINA RESULT: -11.601224554      0.435      1.456
REMARK  9 active torsions:
REMARK  status: ('A' for Active; 'I' for Inactive)
REMARK    1  A    between atoms: C2_2  and  C4_4 
REMARK    2  A    between atoms: C8_10  and  C9_11 
REMARK    3  A    between atoms: C9_11  and  N2_12 
REMARK    4  A    between atoms: N2_12  and  C10_13 
REMARK    5  A    between atoms: N2_12  and  C17_22 
REMARK    6  A    between atoms: C10_13  and  C11_14 
REMARK    7  A    between atoms: C20_27  and  N4_28 
REMARK       I    between atoms: N4_28  and  C21_30 
REMARK    8  A    between atoms: C21_30  and  C22_32 
REMARK    9  A    between atoms: C22_32  and  C23_33 
ROOT
HETATM    1  N2  UNL     1     -18.275  18.449  -7.607  1.00  0.00    -0.358 N 
ENDROOT
BRANCH   1   2
HETATM    2  C9  UNL     1     -17.104  19.095  -7.111  1.00  0.00     0.163 C 
BRANCH   2   3
HETATM    3  C8  UNL     1     -16.142  19.509  -8.168  1.00  0.00    -0.039 A 
HETATM    4  C7  UNL     1     -15.001  18.839  -8.487  1.00  0.00     0.011 A 
HETATM    5  C6  UNL     1     -14.158  19.250  -9.465  1.00  0.00     0.031 A 
HETATM    6  C5  UNL     1     -14.405  20.406 -10.223  1.00  0.00     0.050 A 
HETATM    7  N1  UNL     1     -13.663  20.882 -11.179  1.00  0.00    -0.352 N 
HETATM    8  C30 UNL     1     -15.550  21.090  -9.911  1.00  0.00     0.034 A 
HETATM    9  C4  UNL     1     -14.021  21.985 -11.810  1.00  0.00     0.055 A 
ATOM     10  H1  UNL     1     -12.803  20.401 -11.442  1.00  0.00     0.166 HD
HETATM   11  S1  UNL     1     -15.487  22.387 -11.023  1.00  0.00    -0.074 SA
HETATM   12  C29 UNL     1     -16.415  20.652  -8.895  1.00  0.00     0.030 A 
BRANCH   9  13
HETATM   13  C2  UNL     1     -13.314  22.698 -12.935  1.00  0.00     0.035 C 
HETATM   14  C1  UNL     1     -12.682  23.934 -12.285  1.00  0.00     0.016 C 
HETATM   15  C3  UNL     1     -14.252  23.053 -14.045  1.00  0.00     0.016 C 
ENDBRANCH   9  13
ENDBRANCH   2   3
ENDBRANCH   1   2
BRANCH   1  16
HETATM   16  C10 UNL     1     -18.319  17.125  -8.104  1.00  0.00     0.166 C 
BRANCH  16  17
HETATM   17  C11 UNL     1     -17.670  16.066  -7.336  1.00  0.00    -0.002 A 
HETATM   18  C12 UNL     1     -16.358  15.681  -7.423  1.00  0.00     0.015 A 
HETATM   19  C13 UNL     1     -15.898  14.645  -6.639  1.00  0.00     0.043 A 
HETATM   20  C14 UNL     1     -16.714  13.971  -5.759  1.00  0.00     0.119 A 
HETATM   21  F1  UNL     1     -16.275  12.952  -4.983  1.00  0.00    -0.206 F 
HETATM   22  C15 UNL     1     -18.034  14.353  -5.667  1.00  0.00     0.085 A 
HETATM   23  C16 UNL     1     -18.521  15.382  -6.437  1.00  0.00     0.127 A 
HETATM   24  F2  UNL     1     -19.826  15.705  -6.297  1.00  0.00    -0.205 F 
ENDBRANCH  16  17
ENDBRANCH   1  16
BRANCH   1  25
HETATM   25  C17 UNL     1     -19.489  19.234  -7.580  1.00  0.00     0.120 A 
HETATM   26  C18 UNL     1     -20.018  19.677  -8.766  1.00  0.00     0.066 A 
HETATM   27  C19 UNL     1     -21.172  20.426  -8.743  1.00  0.00     0.110 A 
HETATM   28  N3  UNL     1     -21.757  20.708  -7.572  1.00  0.00    -0.201 N 
HETATM   29  C20 UNL     1     -21.259  20.289  -6.398  1.00  0.00     0.686 A 
ATOM     30  H3  UNL     1     -22.612  21.264  -7.572  1.00  0.00     0.183 HD
HETATM   31  N5  UNL     1     -20.122  19.553  -6.445  1.00  0.00    -0.176 N 
ATOM     32  H5  UNL     1     -19.726  19.223  -5.565  1.00  0.00     0.186 HD
BRANCH  29  33
HETATM   33  N4  UNL     1     -21.816  20.564  -5.250  1.00  0.00    -0.159 N 
HETATM   34  C21 UNL     1     -23.112  20.066  -4.992  1.00  0.00     0.240 C 
HETATM   35  O1  UNL     1     -24.106  20.546  -5.586  1.00  0.00    -0.272 OA
ATOM     36  H4  UNL     1     -21.325  21.127  -4.555  1.00  0.00     0.187 HD
BRANCH  34  37
HETATM   37  C22 UNL     1     -23.280  18.976  -4.014  1.00  0.00     0.145 C 
BRANCH  37  38
HETATM   38  C23 UNL     1     -22.016  18.657  -3.307  1.00  0.00    -0.004 A 
HETATM   39  C24 UNL     1     -21.648  19.434  -2.226  1.00  0.00     0.056 A 
HETATM   40  C25 UNL     1     -20.469  19.121  -1.581  1.00  0.00     0.158 A 
HETATM   41  F3  UNL     1     -20.097  19.870  -0.522  1.00  0.00    -0.203 F 
HETATM   42  C26 UNL     1     -19.678  18.079  -1.986  1.00  0.00     0.196 A 
HETATM   43  F4  UNL     1     -18.526  17.794  -1.335  1.00  0.00    -0.199 F 
HETATM   44  C27 UNL     1     -20.043  17.314  -3.055  1.00  0.00     0.197 A 
HETATM   45  F5  UNL     1     -19.286  16.266  -3.494  1.00  0.00    -0.199 F 
HETATM   46  C28 UNL     1     -21.234  17.607  -3.730  1.00  0.00     0.165 A 
HETATM   47  F6  UNL     1     -21.584  16.851  -4.776  1.00  0.00    -0.202 F 
ENDBRANCH  37  38
ENDBRANCH  34  37
ENDBRANCH  29  33
ENDBRANCH   1  25
TORSDOF 9
ENDMDL
MODEL 5
REMARK VINA RESULT: -11.547645804      1.291      1.648
REMARK  9 active torsions:
REMARK  status: ('A' for Active; 'I' for Inactive)
REMARK    1  A    between atoms: C2_2  and  C4_4 
REMARK    2  A    between atoms: C8_10  and  C9_11 
REMARK    3  A    between atoms: C9_11  and  N2_12 
REMARK    4  A    between atoms: N2_12  and  C10_13 
REMARK    5  A    between atoms: N2_12  and  C17_22 
REMARK    6  A    between atoms: C10_13  and  C11_14 
REMARK    7  A    between atoms: C20_27  and  N4_28 
REMARK       I    between atoms: N4_28  and  C21_30 
REMARK    8  A    between atoms: C21_30  and  C22_32 
REMARK    9  A    between atoms: C22_32  and  C23_33 
ROOT
HETATM    1  N2  UNL     1     -18.729  18.433  -7.525  1.00  0.00    -0.358 N 
ENDROOT
BRANCH   1   2
HETATM    2  C9  UNL     1     -17.553  19.060  -7.015  1.00  0.00     0.163 C 
BRANCH   2   3
HETATM    3  C8  UNL     1     -16.544  19.399  -8.054  1.00  0.00    -0.039 A 
HETATM    4  C7  UNL     1     -15.447  18.649  -8.347  1.00  0.00     0.011 A 
HETATM    5  C6  UNL     1     -14.558  18.995  -9.310  1.00  0.00     0.031 A 
HETATM    6  C5  UNL     1     -14.708  20.161 -10.077  1.00  0.00     0.050 A 
HETATM    7  N1  UNL     1     -13.916  20.578 -11.020  1.00  0.00    -0.352 N 
HETATM    8  C30 UNL     1     -15.808  20.925  -9.791  1.00  0.00     0.034 A 
HETATM    9  C4  UNL     1     -14.182  21.701 -11.662  1.00  0.00     0.055 A 
ATOM     10  H1  UNL     1     -13.087  20.037 -11.264  1.00  0.00     0.166 HD
HETATM   11  S1  UNL     1     -15.631  22.209 -10.906  1.00  0.00    -0.074 SA
HETATM   12  C29 UNL     1     -16.721  20.555  -8.790  1.00  0.00     0.030 A 
BRANCH   9  13
HETATM   13  C2  UNL     1     -13.405  22.356 -12.775  1.00  0.00     0.035 C 
HETATM   14  C1  UNL     1     -12.634  23.497 -12.101  1.00  0.00     0.016 C 
HETATM   15  C3  UNL     1     -14.301  22.841 -13.869  1.00  0.00     0.016 C 
ENDBRANCH   9  13
ENDBRANCH   2   3
ENDBRANCH   1   2
BRANCH   1  16
HETATM   16  C10 UNL     1     -18.816  17.077  -7.921  1.00  0.00     0.166 C 
BRANCH  16  17
HETATM   17  C11 UNL     1     -18.298  16.050  -7.020  1.00  0.00    -0.002 A 
HETATM   18  C12 UNL     1     -18.797  15.717  -5.788  1.00  0.00     0.015 A 
HETATM   19  C13 UNL     1     -18.180  14.733  -5.047  1.00  0.00     0.043 A 
HETATM   20  C14 UNL     1     -17.067  14.061  -5.498  1.00  0.00     0.119 A 
HETATM   21  F1  UNL     1     -16.452  13.091  -4.780  1.00  0.00    -0.206 F 
HETATM   22  C15 UNL     1     -16.560  14.391  -6.736  1.00  0.00     0.085 A 
HETATM   23  C16 UNL     1     -17.154  15.369  -7.498  1.00  0.00     0.127 A 
HETATM   24  F2  UNL     1     -16.605  15.644  -8.702  1.00  0.00    -0.205 F 
ENDBRANCH  16  17
ENDBRANCH   1  16
BRANCH   1  25
HETATM   25  C17 UNL     1     -19.900  19.275  -7.626  1.00  0.00     0.120 A 
HETATM   26  C18 UNL     1     -19.746  20.576  -8.035  1.00  0.00     0.066 A 
HETATM   27  C19 UNL     1     -20.857  21.381  -8.131  1.00  0.00     0.110 A 
HETATM   28  N3  UNL     1     -22.064  20.885  -7.827  1.00  0.00    -0.201 N 
HETATM   29  C20 UNL     1     -22.242  19.617  -7.423  1.00  0.00     0.686 A 
ATOM     30  H3  UNL     1     -22.878  21.494  -7.904  1.00  0.00     0.183 HD
HETATM   31  N5  UNL     1     -21.133  18.844  -7.337  1.00  0.00    -0.176 N 
ATOM     32  H5  UNL     1     -21.244  17.876  -7.033  1.00  0.00     0.186 HD
BRANCH  29  33
HETATM   33  N4  UNL     1     -23.411  19.125  -7.117  1.00  0.00    -0.159 N 
HETATM   34  C21 UNL     1     -23.466  17.960  -6.321  1.00  0.00     0.240 C 
HETATM   35  O1  UNL     1     -23.127  16.851  -6.796  1.00  0.00    -0.272 OA
ATOM     36  H4  UNL     1     -24.266  19.573  -7.446  1.00  0.00     0.187 HD
BRANCH  34  37
HETATM   37  C22 UNL     1     -23.928  18.066  -4.925  1.00  0.00     0.145 C 
BRANCH  37  38
HETATM   38  C23 UNL     1     -22.834  18.450  -4.000  1.00  0.00    -0.004 A 
HETATM   39  C24 UNL     1     -21.701  17.663  -3.953  1.00  0.00     0.056 A 
HETATM   40  C25 UNL     1     -20.694  18.037  -3.086  1.00  0.00     0.158 A 
HETATM   41  F3  UNL     1     -19.579  17.279  -3.030  1.00  0.00    -0.203 F 
HETATM   42  C26 UNL     1     -20.798  19.149  -2.293  1.00  0.00     0.196 A 
HETATM   43  F4  UNL     1     -19.796  19.493  -1.452  1.00  0.00    -0.199 F 
HETATM   44  C27 UNL     1     -21.920  19.924  -2.341  1.00  0.00     0.197 A 
HETATM   45  F5  UNL     1     -22.068  21.040  -1.569  1.00  0.00    -0.199 F 
HETATM   46  C28 UNL     1     -22.959  19.570  -3.211  1.00  0.00     0.165 A 
HETATM   47  F6  UNL     1     -24.054  20.336  -3.251  1.00  0.00    -0.202 F 
ENDBRANCH  37  38
ENDBRANCH  34  37
ENDBRANCH  29  33
ENDBRANCH   1  25
TORSDOF 9
ENDMDL
