MODEL 1
REMARK VINA RESULT: -6.127168826      0.000      0.000
REMARK  3 active torsions:
REMARK  status: ('A' for Active; 'I' for Inactive)
REMARK    1  A    between atoms: C2_2  and  C3_3 
REMARK    2  A    between atoms: C3_3  and  C4_4 
REMARK    3  A    between atoms: C4_4  and  N1_5 
ROOT
HETATM    1  C4  UNL     1       9.899 -22.216  16.402  1.00  0.00     0.176 C 
HETATM    2  C5  UNL     1       9.635 -23.191  17.533  1.00  0.00     0.129 C 
HETATM    3  C6  UNL     1       9.730 -22.490  18.885  1.00  0.00     0.247 C 
HETATM    4  F1  UNL     1       9.115 -21.248  18.845  1.00  0.00    -0.206 F 
HETATM    5  F2  UNL     1       9.025 -23.256  19.795  1.00  0.00    -0.206 F 
HETATM    6  C7  UNL     1      11.159 -22.399  19.354  1.00  0.00     0.089 C 
HETATM    7  C8  UNL     1      12.111 -22.046  18.215  1.00  0.00     0.082 C 
HETATM    8  S1  UNL     1      11.093 -20.999  17.096  1.00  0.00    -0.130 SA
ENDROOT
BRANCH   1   9
HETATM    9  C3  UNL     1      10.681 -22.913  15.309  1.00  0.00     0.050 C 
BRANCH   9  10
HETATM   10  C2  UNL     1      10.276 -24.340  15.122  1.00  0.00    -0.001 C 
HETATM   11  C1  UNL     1      11.411 -25.050  14.409  1.00  0.00     0.005 C 
ENDBRANCH   9  10
ENDBRANCH   1   9
BRANCH   1  12
HETATM   12  N1  UNL     1       8.715 -21.570  15.933  1.00  0.00    -0.061 N 
ATOM     13  H13 UNL     1       8.801 -20.557  16.011  1.00  0.00     0.276 HD
ATOM     14  H12 UNL     1       8.634 -21.657  14.920  1.00  0.00     0.276 HD
ATOM     15  H11 UNL     1       7.863 -21.896  16.391  1.00  0.00     0.276 HD
ENDBRANCH   1  12
TORSDOF 3
ENDMDL
MODEL 2
REMARK VINA RESULT: -5.231054009      2.095      2.487
REMARK  3 active torsions:
REMARK  status: ('A' for Active; 'I' for Inactive)
REMARK    1  A    between atoms: C2_2  and  C3_3 
REMARK    2  A    between atoms: C3_3  and  C4_4 
REMARK    3  A    between atoms: C4_4  and  N1_5 
ROOT
HETATM    1  C4  UNL     1      10.570 -21.915  17.456  1.00  0.00     0.176 C 
HETATM    2  C5  UNL     1      10.184 -21.448  18.847  1.00  0.00     0.129 C 
HETATM    3  C6  UNL     1      10.987 -22.191  19.909  1.00  0.00     0.247 C 
HETATM    4  F1  UNL     1      12.315 -22.313  19.532  1.00  0.00    -0.206 F 
HETATM    5  F2  UNL     1      10.967 -21.418  21.055  1.00  0.00    -0.206 F 
HETATM    6  C7  UNL     1      10.365 -23.525  20.230  1.00  0.00     0.089 C 
HETATM    7  C8  UNL     1       9.868 -24.238  18.977  1.00  0.00     0.082 C 
HETATM    8  S1  UNL     1      11.030 -23.685  17.662  1.00  0.00    -0.130 SA
ENDROOT
BRANCH   1   9
HETATM    9  C3  UNL     1       9.336 -21.957  16.579  1.00  0.00     0.050 C 
BRANCH   9  10
HETATM   10  C2  UNL     1       9.280 -23.173  15.711  1.00  0.00    -0.001 C 
HETATM   11  C1  UNL     1       9.996 -22.847  14.415  1.00  0.00     0.005 C 
ENDBRANCH   9  10
ENDBRANCH   1   9
BRANCH   1  12
HETATM   12  N1  UNL     1      11.645 -21.162  16.893  1.00  0.00    -0.061 N 
ATOM     13  H13 UNL     1      12.111 -21.694  16.157  1.00  0.00     0.276 HD
ATOM     14  H12 UNL     1      11.289 -20.383  16.339  1.00  0.00     0.276 HD
ATOM     15  H11 UNL     1      12.320 -20.834  17.584  1.00  0.00     0.276 HD
ENDBRANCH   1  12
TORSDOF 3
ENDMDL
MODEL 3
REMARK VINA RESULT: -5.091454973      1.715      1.882
REMARK  3 active torsions:
REMARK  status: ('A' for Active; 'I' for Inactive)
REMARK    1  A    between atoms: C2_2  and  C3_3 
REMARK    2  A    between atoms: C3_3  and  C4_4 
REMARK    3  A    between atoms: C4_4  and  N1_5 
ROOT
HETATM    1  C4  UNL     1      11.177 -21.683  16.678  1.00  0.00     0.176 C 
HETATM    2  C5  UNL     1       9.670 -21.674  16.849  1.00  0.00     0.129 C 
HETATM    3  C6  UNL     1       9.292 -21.685  18.327  1.00  0.00     0.247 C 
HETATM    4  F1  UNL     1      10.106 -20.830  19.053  1.00  0.00    -0.206 F 
HETATM    5  F2  UNL     1       8.005 -21.192  18.426  1.00  0.00    -0.206 F 
HETATM    6  C7  UNL     1       9.304 -23.086  18.882  1.00  0.00     0.089 C 
HETATM    7  C8  UNL     1      10.491 -23.893  18.366  1.00  0.00     0.082 C 
HETATM    8  S1  UNL     1      11.810 -22.634  18.120  1.00  0.00    -0.130 SA
ENDROOT
BRANCH   1   9
HETATM    9  C3  UNL     1      11.543 -22.540  15.485  1.00  0.00     0.050 C 
BRANCH   9  10
HETATM   10  C2  UNL     1      10.368 -23.259  14.901  1.00  0.00    -0.001 C 
HETATM   11  C1  UNL     1      10.789 -24.692  14.643  1.00  0.00     0.005 C 
ENDBRANCH   9  10
ENDBRANCH   1   9
BRANCH   1  12
HETATM   12  N1  UNL     1      11.742 -20.371  16.633  1.00  0.00    -0.061 N 
ATOM     13  H13 UNL     1      11.435 -19.819  17.434  1.00  0.00     0.276 HD
ATOM     14  H12 UNL     1      12.743 -20.404  16.822  1.00  0.00     0.276 HD
ATOM     15  H11 UNL     1      11.555 -19.876  15.760  1.00  0.00     0.276 HD
ENDBRANCH   1  12
TORSDOF 3
ENDMDL
MODEL 4
REMARK VINA RESULT: -5.021912574      2.635      4.131
REMARK  3 active torsions:
REMARK  status: ('A' for Active; 'I' for Inactive)
REMARK    1  A    between atoms: C2_2  and  C3_3 
REMARK    2  A    between atoms: C3_3  and  C4_4 
REMARK    3  A    between atoms: C4_4  and  N1_5 
ROOT
HETATM    1  C4  UNL     1      11.033 -21.997  17.700  1.00  0.00     0.176 C 
HETATM    2  C5  UNL     1      10.853 -23.311  16.965  1.00  0.00     0.129 C 
HETATM    3  C6  UNL     1      10.667 -23.074  15.469  1.00  0.00     0.247 C 
HETATM    4  F1  UNL     1      11.543 -22.104  15.008  1.00  0.00    -0.206 F 
HETATM    5  F2  UNL     1      10.996 -24.250  14.823  1.00  0.00    -0.206 F 
HETATM    6  C7  UNL     1       9.233 -22.743  15.143  1.00  0.00     0.089 C 
HETATM    7  C8  UNL     1       8.618 -21.801  16.173  1.00  0.00     0.082 C 
HETATM    8  S1  UNL     1      10.037 -20.780  16.743  1.00  0.00    -0.130 SA
ENDROOT
BRANCH   1   9
HETATM    9  C3  UNL     1      10.333 -22.069  19.040  1.00  0.00     0.050 C 
BRANCH   9  10
HETATM   10  C2  UNL     1       9.669 -23.388  19.280  1.00  0.00    -0.001 C 
HETATM   11  C1  UNL     1       9.489 -23.545  20.777  1.00  0.00     0.005 C 
ENDBRANCH   9  10
ENDBRANCH   1   9
BRANCH   1  12
HETATM   12  N1  UNL     1      12.400 -21.591  17.791  1.00  0.00    -0.061 N 
ATOM     13  H13 UNL     1      13.020 -22.399  17.739  1.00  0.00     0.276 HD
ATOM     14  H12 UNL     1      12.687 -21.100  16.945  1.00  0.00     0.276 HD
ATOM     15  H11 UNL     1      12.604 -21.031  18.619  1.00  0.00     0.276 HD
ENDBRANCH   1  12
TORSDOF 3
ENDMDL
MODEL 5
REMARK VINA RESULT: -4.911591454      1.764      1.935
REMARK  3 active torsions:
REMARK  status: ('A' for Active; 'I' for Inactive)
REMARK    1  A    between atoms: C2_2  and  C3_3 
REMARK    2  A    between atoms: C3_3  and  C4_4 
REMARK    3  A    between atoms: C4_4  and  N1_5 
ROOT
HETATM    1  C4  UNL     1      10.410 -22.861  16.209  1.00  0.00     0.176 C 
HETATM    2  C5  UNL     1       9.202 -22.186  16.830  1.00  0.00     0.129 C 
HETATM    3  C6  UNL     1       9.519 -21.701  18.241  1.00  0.00     0.247 C 
HETATM    4  F1  UNL     1      10.776 -21.121  18.296  1.00  0.00    -0.206 F 
HETATM    5  F2  UNL     1       8.607 -20.708  18.549  1.00  0.00    -0.206 F 
HETATM    6  C7  UNL     1       9.363 -22.811  19.248  1.00  0.00     0.089 C 
HETATM    7  C8  UNL     1       9.916 -24.134  18.726  1.00  0.00     0.082 C 
HETATM    8  S1  UNL     1      11.300 -23.632  17.623  1.00  0.00    -0.130 SA
ENDROOT
BRANCH   1   9
HETATM    9  C3  UNL     1       9.954 -24.040  15.376  1.00  0.00     0.050 C 
BRANCH   9  10
HETATM   10  C2  UNL     1      11.001 -25.101  15.247  1.00  0.00    -0.001 C 
HETATM   11  C1  UNL     1      11.647 -24.946  13.884  1.00  0.00     0.005 C 
ENDBRANCH   9  10
ENDBRANCH   1   9
BRANCH   1  12
HETATM   12  N1  UNL     1      11.253 -21.952  15.498  1.00  0.00    -0.061 N 
ATOM     13  H13 UNL     1      11.482 -21.145  16.078  1.00  0.00     0.276 HD
ATOM     14  H12 UNL     1      12.186 -22.346  15.378  1.00  0.00     0.276 HD
ATOM     15  H11 UNL     1      10.868 -21.655  14.601  1.00  0.00     0.276 HD
ENDBRANCH   1  12
TORSDOF 3
ENDMDL
