MODEL 1
REMARK VINA RESULT: -7.267058328      0.000      0.000
REMARK  12 active torsions:
REMARK  status: ('A' for Active; 'I' for Inactive)
REMARK    1  A    between atoms: O1_2  and  C2_3 
REMARK    2  A    between atoms: C3_4  and  O2_5 
REMARK    3  A    between atoms: C4_7  and  N1_8 
REMARK    4  A    between atoms: C5_11  and  N2_12 
REMARK    5  A    between atoms: C6_15  and  C7_16 
REMARK    6  A    between atoms: C10_23  and  C11_24 
REMARK    7  A    between atoms: C11_24  and  O8_25 
REMARK    8  A    between atoms: C11_24  and  O9_27 
REMARK    9  A    between atoms: C12_29  and  N5_30 
REMARK   10  A    between atoms: N5_30  and  S1_32 
REMARK   11  A    between atoms: S1_32  and  N6_33 
REMARK   12  A    between atoms: C13_38  and  N7_39 
ROOT
HETATM    1  C7  UNL     1      27.948  31.468  38.487  1.00  0.00     0.079 A 
HETATM    2  N3  UNL     1      27.547  30.360  39.207  1.00  0.00    -0.319 N 
ATOM      3  H3  UNL     1      27.238  29.530  38.702  1.00  0.00     0.169 HD
HETATM    4  C8  UNL     1      27.551  30.337  40.528  1.00  0.00     0.271 A 
HETATM    5  O7  UNL     1      27.160  29.267  41.121  1.00  0.00    -0.266 OA
HETATM    6  C9  UNL     1      27.960  31.432  41.235  1.00  0.00     0.127 A 
HETATM    7  N4  UNL     1      27.956  31.388  42.642  1.00  0.00    -0.096 NA
HETATM    8  C10 UNL     1      28.365  32.550  40.529  1.00  0.00     0.055 A 
HETATM    9  C12 UNL     1      28.367  32.599  39.156  1.00  0.00     0.085 A 
ENDROOT
BRANCH   1  10
HETATM   10  C6  UNL     1      27.783  31.300  37.068  1.00  0.00     0.065 A 
HETATM   11  C5  UNL     1      26.828  31.913  36.334  1.00  0.00     0.153 A 
HETATM   12  C4  UNL     1      26.695  31.614  34.948  1.00  0.00     0.172 A 
HETATM   13  C3  UNL     1      27.569  30.696  34.407  1.00  0.00     0.137 A 
HETATM   14  C2  UNL     1      28.553  30.056  35.122  1.00  0.00     0.138 A 
HETATM   15  C13 UNL     1      28.631  30.389  36.468  1.00  0.00     0.154 A 
BRANCH  11  16
HETATM   16  N2  UNL     1      25.928  32.925  36.740  1.00  0.00    -0.112 N 
HETATM   17  O5  UNL     1      26.434  34.109  36.638  1.00  0.00    -0.532 OA
HETATM   18  O6  UNL     1      24.690  32.893  37.210  1.00  0.00    -0.532 OA
ENDBRANCH  11  16
BRANCH  12  19
HETATM   19  N1  UNL     1      25.697  32.233  34.151  1.00  0.00    -0.110 N 
HETATM   20  O3  UNL     1      25.931  33.210  33.417  1.00  0.00    -0.532 OA
HETATM   21  O4  UNL     1      24.421  31.744  34.183  1.00  0.00    -0.532 OA
ENDBRANCH  12  19
BRANCH  13  22
HETATM   22  O2  UNL     1      27.468  30.377  33.048  1.00  0.00    -0.356 OA
ATOM     23  H2  UNL     1      26.601  30.175  32.720  1.00  0.00     0.218 HD
ENDBRANCH  13  22
BRANCH  14  24
HETATM   24  O1  UNL     1      29.435  29.133  34.582  1.00  0.00    -0.351 OA
HETATM   25  C1  UNL     1      29.097  27.777  34.386  1.00  0.00     0.210 C 
ENDBRANCH  14  24
BRANCH  15  26
HETATM   26  N7  UNL     1      29.680  29.759  37.189  1.00  0.00    -0.112 N 
HETATM   27  O12 UNL     1      30.828  30.280  37.274  1.00  0.00    -0.532 OA
HETATM   28  O13 UNL     1      29.504  28.566  37.800  1.00  0.00    -0.532 OA
ENDBRANCH  15  26
ENDBRANCH   1  10
BRANCH   9  29
HETATM   29  N5  UNL     1      28.685  33.761  38.480  1.00  0.00    -0.265 N 
ATOM     30  H5  UNL     1      27.918  34.433  38.450  1.00  0.00     0.180 HD
BRANCH  29  31
HETATM   31  S1  UNL     1      30.078  34.301  37.693  1.00  0.00     0.317 S 
HETATM   32  O10 UNL     1      29.970  34.725  36.290  1.00  0.00    -0.183 OA
HETATM   33  O11 UNL     1      30.752  35.456  38.436  1.00  0.00    -0.183 OA
BRANCH  31  34
HETATM   34  N6  UNL     1      31.314  33.047  37.695  1.00  0.00    -0.311 N 
ATOM     35  H62 UNL     1      31.138  32.075  37.949  1.00  0.00     0.170 HD
ATOM     36  H61 UNL     1      32.214  33.432  37.411  1.00  0.00     0.170 HD
ENDBRANCH  31  34
ENDBRANCH  29  31
ENDBRANCH   9  29
BRANCH   8  37
HETATM   37  C11 UNL     1      28.877  33.671  41.325  1.00  0.00     0.292 C 
BRANCH  37  38
HETATM   38  O8  UNL     1      28.028  34.734  41.321  1.00  0.00    -0.367 OA
ATOM     39  H8  UNL     1      27.982  35.160  42.169  1.00  0.00     0.213 HD
ENDBRANCH  37  38
BRANCH  37  40
HETATM   40  O9  UNL     1      30.179  34.031  40.955  1.00  0.00    -0.367 OA
ATOM     41  H9  UNL     1      30.413  34.897  41.267  1.00  0.00     0.213 HD
ENDBRANCH  37  40
ENDBRANCH   8  37
TORSDOF 12
ENDMDL
MODEL 2
REMARK VINA RESULT: -6.638145793      7.007      9.099
REMARK  12 active torsions:
REMARK  status: ('A' for Active; 'I' for Inactive)
REMARK    1  A    between atoms: O1_2  and  C2_3 
REMARK    2  A    between atoms: C3_4  and  O2_5 
REMARK    3  A    between atoms: C4_7  and  N1_8 
REMARK    4  A    between atoms: C5_11  and  N2_12 
REMARK    5  A    between atoms: C6_15  and  C7_16 
REMARK    6  A    between atoms: C10_23  and  C11_24 
REMARK    7  A    between atoms: C11_24  and  O8_25 
REMARK    8  A    between atoms: C11_24  and  O9_27 
REMARK    9  A    between atoms: C12_29  and  N5_30 
REMARK   10  A    between atoms: N5_30  and  S1_32 
REMARK   11  A    between atoms: S1_32  and  N6_33 
REMARK   12  A    between atoms: C13_38  and  N7_39 
ROOT
HETATM    1  C7  UNL     1      30.036  38.942  37.456  1.00  0.00     0.079 A 
HETATM    2  N3  UNL     1      30.442  37.669  37.109  1.00  0.00    -0.319 N 
ATOM      3  H3  UNL     1      30.370  37.378  36.134  1.00  0.00     0.169 HD
HETATM    4  C8  UNL     1      30.919  36.814  37.995  1.00  0.00     0.271 A 
HETATM    5  O7  UNL     1      31.272  35.647  37.589  1.00  0.00    -0.266 OA
HETATM    6  C9  UNL     1      31.029  37.172  39.308  1.00  0.00     0.127 A 
HETATM    7  N4  UNL     1      31.540  36.246  40.237  1.00  0.00    -0.096 NA
HETATM    8  C10 UNL     1      30.628  38.445  39.673  1.00  0.00     0.055 A 
HETATM    9  C12 UNL     1      30.125  39.350  38.771  1.00  0.00     0.085 A 
ENDROOT
BRANCH   1  10
HETATM   10  C6  UNL     1      29.473  39.669  36.349  1.00  0.00     0.065 A 
HETATM   11  C5  UNL     1      30.192  40.426  35.491  1.00  0.00     0.153 A 
HETATM   12  C4  UNL     1      29.527  41.175  34.478  1.00  0.00     0.172 A 
HETATM   13  C3  UNL     1      28.153  41.088  34.417  1.00  0.00     0.137 A 
HETATM   14  C2  UNL     1      27.392  40.327  35.270  1.00  0.00     0.138 A 
HETATM   15  C13 UNL     1      28.097  39.621  36.236  1.00  0.00     0.154 A 
BRANCH  11  16
HETATM   16  N2  UNL     1      31.597  40.541  35.390  1.00  0.00    -0.112 N 
HETATM   17  O5  UNL     1      32.100  41.293  36.311  1.00  0.00    -0.532 OA
HETATM   18  O6  UNL     1      32.482  40.044  34.539  1.00  0.00    -0.532 OA
ENDBRANCH  11  16
BRANCH  12  19
HETATM   19  N1  UNL     1      30.251  41.989  33.565  1.00  0.00    -0.110 N 
HETATM   20  O3  UNL     1      30.500  41.633  32.400  1.00  0.00    -0.532 OA
HETATM   21  O4  UNL     1      30.698  43.214  33.975  1.00  0.00    -0.532 OA
ENDBRANCH  12  19
BRANCH  13  22
HETATM   22  O2  UNL     1      27.467  41.811  33.434  1.00  0.00    -0.356 OA
ATOM     23  H2  UNL     1      26.642  42.204  33.691  1.00  0.00     0.218 HD
ENDBRANCH  13  22
BRANCH  14  24
HETATM   24  O1  UNL     1      26.010  40.235  35.212  1.00  0.00    -0.351 OA
HETATM   25  C1  UNL     1      25.156  41.268  35.653  1.00  0.00     0.210 C 
ENDBRANCH  14  24
BRANCH  15  26
HETATM   26  N7  UNL     1      27.307  38.800  37.085  1.00  0.00    -0.112 N 
HETATM   27  O12 UNL     1      26.653  39.284  38.050  1.00  0.00    -0.532 OA
HETATM   28  O13 UNL     1      27.234  37.461  36.909  1.00  0.00    -0.532 OA
ENDBRANCH  15  26
ENDBRANCH   1  10
BRANCH   9  29
HETATM   29  N5  UNL     1      29.642  40.578  39.179  1.00  0.00    -0.265 N 
ATOM     30  H5  UNL     1      28.670  40.547  39.486  1.00  0.00     0.180 HD
BRANCH  29  31
HETATM   31  S1  UNL     1      30.326  42.119  39.277  1.00  0.00     0.317 S 
HETATM   32  O10 UNL     1      30.025  43.088  38.215  1.00  0.00    -0.183 OA
HETATM   33  O11 UNL     1      29.993  42.818  40.597  1.00  0.00    -0.183 OA
BRANCH  31  34
HETATM   34  N6  UNL     1      32.083  42.013  39.312  1.00  0.00    -0.311 N 
ATOM     35  H62 UNL     1      32.668  41.985  38.477  1.00  0.00     0.170 HD
ATOM     36  H61 UNL     1      32.421  41.984  40.274  1.00  0.00     0.170 HD
ENDBRANCH  31  34
ENDBRANCH  29  31
ENDBRANCH   9  29
BRANCH   8  37
HETATM   37  C11 UNL     1      30.841  38.816  41.076  1.00  0.00     0.292 C 
BRANCH  37  38
HETATM   38  O8  UNL     1      32.161  38.936  41.381  1.00  0.00    -0.367 OA
ATOM     39  H8  UNL     1      32.299  39.361  42.219  1.00  0.00     0.213 HD
ENDBRANCH  37  38
BRANCH  37  40
HETATM   40  O9  UNL     1      30.170  37.959  41.957  1.00  0.00    -0.367 OA
ATOM     41  H9  UNL     1      29.560  38.427  42.515  1.00  0.00     0.213 HD
ENDBRANCH  37  40
ENDBRANCH   8  37
TORSDOF 12
ENDMDL
MODEL 3
REMARK VINA RESULT: -6.581888146      1.270      1.732
REMARK  12 active torsions:
REMARK  status: ('A' for Active; 'I' for Inactive)
REMARK    1  A    between atoms: O1_2  and  C2_3 
REMARK    2  A    between atoms: C3_4  and  O2_5 
REMARK    3  A    between atoms: C4_7  and  N1_8 
REMARK    4  A    between atoms: C5_11  and  N2_12 
REMARK    5  A    between atoms: C6_15  and  C7_16 
REMARK    6  A    between atoms: C10_23  and  C11_24 
REMARK    7  A    between atoms: C11_24  and  O8_25 
REMARK    8  A    between atoms: C11_24  and  O9_27 
REMARK    9  A    between atoms: C12_29  and  N5_30 
REMARK   10  A    between atoms: N5_30  and  S1_32 
REMARK   11  A    between atoms: S1_32  and  N6_33 
REMARK   12  A    between atoms: C13_38  and  N7_39 
ROOT
HETATM    1  C7  UNL     1      28.085  31.239  37.833  1.00  0.00     0.079 A 
HETATM    2  N3  UNL     1      27.509  30.524  38.863  1.00  0.00    -0.319 N 
ATOM      3  H3  UNL     1      26.956  29.696  38.639  1.00  0.00     0.169 HD
HETATM    4  C8  UNL     1      27.647  30.874  40.130  1.00  0.00     0.271 A 
HETATM    5  O7  UNL     1      27.076  30.155  41.027  1.00  0.00    -0.266 OA
HETATM    6  C9  UNL     1      28.381  31.976  40.463  1.00  0.00     0.127 A 
HETATM    7  N4  UNL     1      28.516  32.332  41.818  1.00  0.00    -0.096 NA
HETATM    8  C10 UNL     1      28.966  32.704  39.442  1.00  0.00     0.055 A 
HETATM    9  C12 UNL     1      28.833  32.362  38.119  1.00  0.00     0.085 A 
ENDROOT
BRANCH   1  10
HETATM   10  C6  UNL     1      27.734  30.727  36.534  1.00  0.00     0.065 A 
HETATM   11  C5  UNL     1      26.718  31.199  35.779  1.00  0.00     0.153 A 
HETATM   12  C4  UNL     1      26.398  30.567  34.544  1.00  0.00     0.172 A 
HETATM   13  C3  UNL     1      27.160  29.483  34.165  1.00  0.00     0.137 A 
HETATM   14  C2  UNL     1      28.202  28.979  34.906  1.00  0.00     0.138 A 
HETATM   15  C13 UNL     1      28.464  29.637  36.101  1.00  0.00     0.154 A 
BRANCH  11  16
HETATM   16  N2  UNL     1      25.916  32.341  36.006  1.00  0.00    -0.112 N 
HETATM   17  O5  UNL     1      25.148  32.211  37.036  1.00  0.00    -0.532 OA
HETATM   18  O6  UNL     1      25.793  33.495  35.368  1.00  0.00    -0.532 OA
ENDBRANCH  11  16
BRANCH  12  19
HETATM   19  N1  UNL     1      25.330  31.031  33.730  1.00  0.00    -0.110 N 
HETATM   20  O3  UNL     1      24.135  30.855  34.025  1.00  0.00    -0.532 OA
HETATM   21  O4  UNL     1      25.616  31.699  32.573  1.00  0.00    -0.532 OA
ENDBRANCH  12  19
BRANCH  13  22
HETATM   22  O2  UNL     1      26.875  28.837  32.957  1.00  0.00    -0.356 OA
ATOM     23  H2  UNL     1      26.117  29.145  32.476  1.00  0.00     0.218 HD
ENDBRANCH  13  22
BRANCH  14  24
HETATM   24  O1  UNL     1      28.972  27.890  34.530  1.00  0.00    -0.351 OA
HETATM   25  C1  UNL     1      29.999  27.977  33.565  1.00  0.00     0.210 C 
ENDBRANCH  14  24
BRANCH  15  26
HETATM   26  N7  UNL     1      29.572  29.139  36.837  1.00  0.00    -0.112 N 
HETATM   27  O12 UNL     1      30.744  29.561  36.632  1.00  0.00    -0.532 OA
HETATM   28  O13 UNL     1      29.424  28.180  37.779  1.00  0.00    -0.532 OA
ENDBRANCH  15  26
ENDBRANCH   1  10
BRANCH   9  29
HETATM   29  N5  UNL     1      29.347  33.161  37.116  1.00  0.00    -0.265 N 
ATOM     30  H5  UNL     1      30.114  32.723  36.605  1.00  0.00     0.180 HD
BRANCH  29  31
HETATM   31  S1  UNL     1      28.971  34.710  36.560  1.00  0.00     0.317 S 
HETATM   32  O10 UNL     1      29.881  35.814  36.893  1.00  0.00    -0.183 OA
HETATM   33  O11 UNL     1      28.790  34.752  35.041  1.00  0.00    -0.183 OA
BRANCH  31  34
HETATM   34  N6  UNL     1      27.398  35.218  37.165  1.00  0.00    -0.311 N 
ATOM     35  H62 UNL     1      26.510  34.850  36.822  1.00  0.00     0.170 HD
ATOM     36  H61 UNL     1      27.505  35.922  37.894  1.00  0.00     0.170 HD
ENDBRANCH  31  34
ENDBRANCH  29  31
ENDBRANCH   9  29
BRANCH   8  37
HETATM   37  C11 UNL     1      29.814  33.829  39.850  1.00  0.00     0.292 C 
BRANCH  37  38
HETATM   38  O8  UNL     1      29.158  35.019  39.780  1.00  0.00    -0.367 OA
ATOM     39  H8  UNL     1      29.333  35.477  38.967  1.00  0.00     0.213 HD
ENDBRANCH  37  38
BRANCH  37  40
HETATM   40  O9  UNL     1      31.030  33.852  39.157  1.00  0.00    -0.367 OA
ATOM     41  H9  UNL     1      31.633  34.493  39.514  1.00  0.00     0.213 HD
ENDBRANCH  37  40
ENDBRANCH   8  37
TORSDOF 12
ENDMDL
MODEL 4
REMARK VINA RESULT: -6.526730800      2.341      4.662
REMARK  12 active torsions:
REMARK  status: ('A' for Active; 'I' for Inactive)
REMARK    1  A    between atoms: O1_2  and  C2_3 
REMARK    2  A    between atoms: C3_4  and  O2_5 
REMARK    3  A    between atoms: C4_7  and  N1_8 
REMARK    4  A    between atoms: C5_11  and  N2_12 
REMARK    5  A    between atoms: C6_15  and  C7_16 
REMARK    6  A    between atoms: C10_23  and  C11_24 
REMARK    7  A    between atoms: C11_24  and  O8_25 
REMARK    8  A    between atoms: C11_24  and  O9_27 
REMARK    9  A    between atoms: C12_29  and  N5_30 
REMARK   10  A    between atoms: N5_30  and  S1_32 
REMARK   11  A    between atoms: S1_32  and  N6_33 
REMARK   12  A    between atoms: C13_38  and  N7_39 
ROOT
HETATM    1  C7  UNL     1      28.563  31.583  38.097  1.00  0.00     0.079 A 
HETATM    2  N3  UNL     1      28.216  31.767  39.420  1.00  0.00    -0.319 N 
ATOM      3  H3  UNL     1      27.761  32.639  39.693  1.00  0.00     0.169 HD
HETATM    4  C8  UNL     1      28.452  30.855  40.346  1.00  0.00     0.271 A 
HETATM    5  O7  UNL     1      28.099  31.107  41.555  1.00  0.00    -0.266 OA
HETATM    6  C9  UNL     1      29.058  29.677  40.014  1.00  0.00     0.127 A 
HETATM    7  N4  UNL     1      29.302  28.719  41.015  1.00  0.00    -0.096 NA
HETATM    8  C10 UNL     1      29.413  29.476  38.692  1.00  0.00     0.055 A 
HETATM    9  C12 UNL     1      29.182  30.411  37.713  1.00  0.00     0.085 A 
ENDROOT
BRANCH   1  10
HETATM   10  C6  UNL     1      28.290  32.737  37.283  1.00  0.00     0.065 A 
HETATM   11  C5  UNL     1      27.243  32.840  36.435  1.00  0.00     0.153 A 
HETATM   12  C4  UNL     1      27.109  33.992  35.609  1.00  0.00     0.172 A 
HETATM   13  C3  UNL     1      28.071  34.972  35.719  1.00  0.00     0.137 A 
HETATM   14  C2  UNL     1      29.146  34.903  36.572  1.00  0.00     0.138 A 
HETATM   15  C13 UNL     1      29.223  33.755  37.350  1.00  0.00     0.154 A 
BRANCH  11  16
HETATM   16  N2  UNL     1      26.150  31.956  36.282  1.00  0.00    -0.112 N 
HETATM   17  O5  UNL     1      25.184  32.215  37.099  1.00  0.00    -0.532 OA
HETATM   18  O6  UNL     1      25.936  30.921  35.484  1.00  0.00    -0.532 OA
ENDBRANCH  11  16
BRANCH  12  19
HETATM   19  N1  UNL     1      26.026  34.128  34.699  1.00  0.00    -0.110 N 
HETATM   20  O3  UNL     1      26.017  33.588  33.579  1.00  0.00    -0.532 OA
HETATM   21  O4  UNL     1      24.944  34.882  35.060  1.00  0.00    -0.532 OA
ENDBRANCH  12  19
BRANCH  13  22
HETATM   22  O2  UNL     1      27.971  36.119  34.923  1.00  0.00    -0.356 OA
ATOM     23  H2  UNL     1      28.759  36.639  34.822  1.00  0.00     0.218 HD
ENDBRANCH  13  22
BRANCH  14  24
HETATM   24  O1  UNL     1      30.116  35.886  36.688  1.00  0.00    -0.351 OA
HETATM   25  C1  UNL     1      29.943  37.040  37.482  1.00  0.00     0.210 C 
ENDBRANCH  14  24
BRANCH  15  26
HETATM   26  N7  UNL     1      30.310  33.711  38.262  1.00  0.00    -0.112 N 
HETATM   27  O12 UNL     1      31.426  33.219  37.936  1.00  0.00    -0.532 OA
HETATM   28  O13 UNL     1      30.194  34.178  39.526  1.00  0.00    -0.532 OA
ENDBRANCH  15  26
ENDBRANCH   1  10
BRANCH   9  29
HETATM   29  N5  UNL     1      29.632  30.223  36.421  1.00  0.00    -0.265 N 
ATOM     30  H5  UNL     1      30.482  30.748  36.210  1.00  0.00     0.180 HD
BRANCH  29  31
HETATM   31  S1  UNL     1      29.072  29.307  35.118  1.00  0.00     0.317 S 
HETATM   32  O10 UNL     1      28.836  29.983  33.835  1.00  0.00    -0.183 OA
HETATM   33  O11 UNL     1      29.986  28.118  34.810  1.00  0.00    -0.183 OA
BRANCH  31  34
HETATM   34  N6  UNL     1      27.538  28.540  35.517  1.00  0.00    -0.311 N 
ATOM     35  H62 UNL     1      27.268  28.265  36.461  1.00  0.00     0.170 HD
ATOM     36  H61 UNL     1      26.972  28.415  34.678  1.00  0.00     0.170 HD
ENDBRANCH  31  34
ENDBRANCH  29  31
ENDBRANCH   9  29
BRANCH   8  37
HETATM   37  C11 UNL     1      29.984  28.165  38.365  1.00  0.00     0.292 C 
BRANCH  37  38
HETATM   38  O8  UNL     1      31.180  28.271  37.727  1.00  0.00    -0.367 OA
ATOM     39  H8  UNL     1      31.779  28.852  38.180  1.00  0.00     0.213 HD
ENDBRANCH  37  38
BRANCH  37  40
HETATM   40  O9  UNL     1      29.080  27.355  37.667  1.00  0.00    -0.367 OA
ATOM     41  H9  UNL     1      28.425  27.866  37.206  1.00  0.00     0.213 HD
ENDBRANCH  37  40
ENDBRANCH   8  37
TORSDOF 12
ENDMDL
MODEL 5
REMARK VINA RESULT: -6.484503495      1.786      4.729
REMARK  12 active torsions:
REMARK  status: ('A' for Active; 'I' for Inactive)
REMARK    1  A    between atoms: O1_2  and  C2_3 
REMARK    2  A    between atoms: C3_4  and  O2_5 
REMARK    3  A    between atoms: C4_7  and  N1_8 
REMARK    4  A    between atoms: C5_11  and  N2_12 
REMARK    5  A    between atoms: C6_15  and  C7_16 
REMARK    6  A    between atoms: C10_23  and  C11_24 
REMARK    7  A    between atoms: C11_24  and  O8_25 
REMARK    8  A    between atoms: C11_24  and  O9_27 
REMARK    9  A    between atoms: C12_29  and  N5_30 
REMARK   10  A    between atoms: N5_30  and  S1_32 
REMARK   11  A    between atoms: S1_32  and  N6_33 
REMARK   12  A    between atoms: C13_38  and  N7_39 
ROOT
HETATM    1  C7  UNL     1      28.985  32.764  37.845  1.00  0.00     0.079 A 
HETATM    2  N3  UNL     1      29.906  33.633  37.295  1.00  0.00    -0.319 N 
ATOM      3  H3  UNL     1      30.138  33.544  36.306  1.00  0.00     0.169 HD
HETATM    4  C8  UNL     1      30.500  34.576  38.006  1.00  0.00     0.271 A 
HETATM    5  O7  UNL     1      31.347  35.341  37.417  1.00  0.00    -0.266 OA
HETATM    6  C9  UNL     1      30.211  34.722  39.333  1.00  0.00     0.127 A 
HETATM    7  N4  UNL     1      30.855  35.733  40.072  1.00  0.00    -0.096 NA
HETATM    8  C10 UNL     1      29.290  33.860  39.899  1.00  0.00     0.055 A 
HETATM    9  C12 UNL     1      28.664  32.870  39.182  1.00  0.00     0.085 A 
ENDROOT
BRANCH   1  10
HETATM   10  C6  UNL     1      28.532  31.768  36.911  1.00  0.00     0.065 A 
HETATM   11  C5  UNL     1      29.126  30.569  36.728  1.00  0.00     0.153 A 
HETATM   12  C4  UNL     1      28.649  29.687  35.717  1.00  0.00     0.172 A 
HETATM   13  C3  UNL     1      27.577  30.104  34.959  1.00  0.00     0.137 A 
HETATM   14  C2  UNL     1      26.947  31.314  35.119  1.00  0.00     0.138 A 
HETATM   15  C13 UNL     1      27.458  32.131  36.120  1.00  0.00     0.154 A 
BRANCH  11  16
HETATM   16  N2  UNL     1      30.171  29.986  37.481  1.00  0.00    -0.112 N 
HETATM   17  O5  UNL     1      31.292  30.612  37.341  1.00  0.00    -0.532 OA
HETATM   18  O6  UNL     1      30.225  28.930  38.279  1.00  0.00    -0.532 OA
ENDBRANCH  11  16
BRANCH  12  19
HETATM   19  N1  UNL     1      29.257  28.423  35.491  1.00  0.00    -0.110 N 
HETATM   20  O3  UNL     1      28.761  27.356  35.894  1.00  0.00    -0.532 OA
HETATM   21  O4  UNL     1      30.438  28.365  34.805  1.00  0.00    -0.532 OA
ENDBRANCH  12  19
BRANCH  13  22
HETATM   22  O2  UNL     1      27.081  29.264  33.956  1.00  0.00    -0.356 OA
ATOM     23  H2  UNL     1      27.651  28.561  33.666  1.00  0.00     0.218 HD
ENDBRANCH  13  22
BRANCH  14  24
HETATM   24  O1  UNL     1      25.867  31.739  34.361  1.00  0.00    -0.351 OA
HETATM   25  C1  UNL     1      26.012  32.330  33.088  1.00  0.00     0.210 C 
ENDBRANCH  14  24
BRANCH  15  26
HETATM   26  N7  UNL     1      26.771  33.359  36.312  1.00  0.00    -0.112 N 
HETATM   27  O12 UNL     1      27.153  34.424  35.750  1.00  0.00    -0.532 OA
HETATM   28  O13 UNL     1      25.689  33.449  37.117  1.00  0.00    -0.532 OA
ENDBRANCH  15  26
ENDBRANCH   1  10
BRANCH   9  29
HETATM   29  N5  UNL     1      27.821  31.963  39.796  1.00  0.00    -0.265 N 
ATOM     30  H5  UNL     1      26.838  32.232  39.751  1.00  0.00     0.180 HD
BRANCH  29  31
HETATM   31  S1  UNL     1      28.079  30.503  40.603  1.00  0.00     0.317 S 
HETATM   32  O10 UNL     1      29.421  30.221  41.131  1.00  0.00    -0.183 OA
HETATM   33  O11 UNL     1      27.113  30.310  41.775  1.00  0.00    -0.183 OA
BRANCH  31  34
HETATM   34  N6  UNL     1      27.709  29.142  39.550  1.00  0.00    -0.311 N 
ATOM     35  H62 UNL     1      27.854  29.147  38.541  1.00  0.00     0.170 HD
ATOM     36  H61 UNL     1      27.334  28.362  40.091  1.00  0.00     0.170 HD
ENDBRANCH  31  34
ENDBRANCH  29  31
ENDBRANCH   9  29
BRANCH   8  37
HETATM   37  C11 UNL     1      28.948  34.107  41.305  1.00  0.00     0.292 C 
BRANCH  37  38
HETATM   38  O8  UNL     1      28.715  32.953  41.987  1.00  0.00    -0.367 OA
ATOM     39  H8  UNL     1      29.013  33.003  42.887  1.00  0.00     0.213 HD
ENDBRANCH  37  38
BRANCH  37  40
HETATM   40  O9  UNL     1      27.899  35.024  41.439  1.00  0.00    -0.367 OA
ATOM     41  H9  UNL     1      28.207  35.923  41.428  1.00  0.00     0.213 HD
ENDBRANCH  37  40
ENDBRANCH   8  37
TORSDOF 12
ENDMDL
