MODEL 1
REMARK VINA RESULT: -8.020578852      0.000      0.000
REMARK  4 active torsions:
REMARK  status: ('A' for Active; 'I' for Inactive)
REMARK    1  A    between atoms: C2_2  and  C3_3 
REMARK    2  A    between atoms: C13_13  and  S1_14 
REMARK    3  A    between atoms: S1_14  and  C14_15 
REMARK    4  A    between atoms: C17_22  and  O1_23 
ROOT
HETATM    1  C3  UNL     1      41.152  30.440  32.838  1.00  0.00    -0.039 C 
HETATM    2  C4  UNL     1      40.491  29.473  31.936  1.00  0.00     0.014 C 
HETATM    3  C5  UNL     1      41.226  29.084  30.719  1.00  0.00    -0.008 C 
HETATM    4  C6  UNL     1      42.704  28.677  30.890  1.00  0.00     0.015 C 
HETATM    5  C7  UNL     1      42.938  30.051  31.267  1.00  0.00    -0.030 C 
HETATM    6  C8  UNL     1      42.615  30.093  32.710  1.00  0.00     0.020 C 
HETATM    7  C9  UNL     1      41.894  30.316  30.222  1.00  0.00    -0.001 C 
HETATM    8  C10 UNL     1      41.233  31.586  30.207  1.00  0.00     0.012 C 
HETATM    9  C11 UNL     1      41.829  32.377  31.366  1.00  0.00     0.009 C 
HETATM   10  C12 UNL     1      41.084  31.885  32.558  1.00  0.00     0.015 C 
HETATM   11  C13 UNL     1      43.302  32.363  31.399  1.00  0.00     0.050 A 
HETATM   12  C17 UNL     1      43.836  32.859  30.045  1.00  0.00     0.141 A 
HETATM   13  C19 UNL     1      44.440  31.485  29.748  1.00  0.00     0.040 A 
HETATM   14  C20 UNL     1      43.971  31.021  31.055  1.00  0.00     0.019 A 
ENDROOT
BRANCH  11  15
HETATM   15  S1  UNL     1      43.949  33.316  32.714  1.00  0.00    -0.080 SA
BRANCH  15  16
HETATM   16  C14 UNL     1      45.649  33.721  32.658  1.00  0.00     0.144 A 
HETATM   17  N1  UNL     1      46.760  32.962  32.620  1.00  0.00    -0.345 N 
HETATM   18  C15 UNL     1      47.857  33.698  32.587  1.00  0.00     0.107 A 
ATOM     19  H1  UNL     1      46.756  31.942  32.617  1.00  0.00     0.167 HD
HETATM   20  C16 UNL     1      47.444  34.996  32.603  1.00  0.00     0.107 A 
HETATM   21  N2  UNL     1      46.104  34.986  32.646  1.00  0.00    -0.345 N 
ATOM     22  H2  UNL     1      45.514  35.818  32.668  1.00  0.00     0.167 HD
ENDBRANCH  15  16
ENDBRANCH  11  15
BRANCH  12  23
HETATM   23  O1  UNL     1      44.775  33.884  30.155  1.00  0.00    -0.389 OA
HETATM   24  C18 UNL     1      45.808  33.751  29.233  1.00  0.00     0.202 C 
ENDBRANCH  12  23
BRANCH   1  25
HETATM   25  C2  UNL     1      40.766  30.193  34.288  1.00  0.00     0.005 C 
HETATM   26  C1  UNL     1      40.431  28.742  34.438  1.00  0.00     0.006 C 
ENDBRANCH   1  25
TORSDOF 4
ENDMDL
MODEL 2
REMARK VINA RESULT: -7.558565207      3.018      4.684
REMARK  4 active torsions:
REMARK  status: ('A' for Active; 'I' for Inactive)
REMARK    1  A    between atoms: C2_2  and  C3_3 
REMARK    2  A    between atoms: C13_13  and  S1_14 
REMARK    3  A    between atoms: S1_14  and  C14_15 
REMARK    4  A    between atoms: C17_22  and  O1_23 
ROOT
HETATM    1  C3  UNL     1      39.860  28.375  33.926  1.00  0.00    -0.039 C 
HETATM    2  C4  UNL     1      38.991  29.389  34.560  1.00  0.00     0.014 C 
HETATM    3  C5  UNL     1      38.724  30.616  33.788  1.00  0.00    -0.008 C 
HETATM    4  C6  UNL     1      38.297  30.443  32.316  1.00  0.00     0.015 C 
HETATM    5  C7  UNL     1      39.625  29.922  32.093  1.00  0.00    -0.030 C 
HETATM    6  C8  UNL     1      39.523  28.493  32.460  1.00  0.00     0.020 C 
HETATM    7  C9  UNL     1      39.998  30.966  33.105  1.00  0.00    -0.001 C 
HETATM    8  C10 UNL     1      41.265  30.873  33.765  1.00  0.00     0.012 C 
HETATM    9  C11 UNL     1      41.933  29.622  33.204  1.00  0.00     0.009 C 
HETATM   10  C12 UNL     1      41.326  28.509  33.985  1.00  0.00     0.015 C 
HETATM   11  C13 UNL     1      41.911  29.547  31.732  1.00  0.00     0.050 A 
HETATM   12  C17 UNL     1      42.539  30.827  31.158  1.00  0.00     0.141 A 
HETATM   13  C19 UNL     1      41.200  31.242  30.544  1.00  0.00     0.040 A 
HETATM   14  C20 UNL     1      40.609  30.003  31.054  1.00  0.00     0.019 A 
ENDROOT
BRANCH  11  15
HETATM   15  S1  UNL     1      42.725  28.123  31.126  1.00  0.00    -0.080 SA
BRANCH  15  16
HETATM   16  C14 UNL     1      44.033  27.471  32.085  1.00  0.00     0.144 A 
HETATM   17  N1  UNL     1      44.696  27.947  33.156  1.00  0.00    -0.345 N 
HETATM   18  C15 UNL     1      45.631  27.109  33.566  1.00  0.00     0.107 A 
ATOM     19  H1  UNL     1      44.500  28.845  33.596  1.00  0.00     0.167 HD
HETATM   20  C16 UNL     1      45.577  26.038  32.727  1.00  0.00     0.107 A 
HETATM   21  N2  UNL     1      44.603  26.279  31.838  1.00  0.00    -0.345 N 
ATOM     22  H2  UNL     1      44.332  25.648  31.083  1.00  0.00     0.167 HD
ENDBRANCH  15  16
ENDBRANCH  11  15
BRANCH  12  23
HETATM   23  O1  UNL     1      43.545  30.585  30.222  1.00  0.00    -0.389 OA
HETATM   24  C18 UNL     1      44.271  31.733  29.923  1.00  0.00     0.202 C 
ENDBRANCH  12  23
BRANCH   1  25
HETATM   25  C2  UNL     1      39.469  26.969  34.356  1.00  0.00     0.005 C 
HETATM   26  C1  UNL     1      38.515  27.084  35.503  1.00  0.00     0.006 C 
ENDBRANCH   1  25
TORSDOF 4
ENDMDL
MODEL 3
REMARK VINA RESULT: -6.878733741      3.273      5.747
REMARK  4 active torsions:
REMARK  status: ('A' for Active; 'I' for Inactive)
REMARK    1  A    between atoms: C2_2  and  C3_3 
REMARK    2  A    between atoms: C13_13  and  S1_14 
REMARK    3  A    between atoms: S1_14  and  C14_15 
REMARK    4  A    between atoms: C17_22  and  O1_23 
ROOT
HETATM    1  C3  UNL     1      42.928  31.435  30.379  1.00  0.00    -0.039 C 
HETATM    2  C4  UNL     1      42.357  32.761  30.695  1.00  0.00     0.014 C 
HETATM    3  C5  UNL     1      41.685  32.906  32.000  1.00  0.00    -0.008 C 
HETATM    4  C6  UNL     1      42.436  32.376  33.239  1.00  0.00     0.015 C 
HETATM    5  C7  UNL     1      42.261  31.063  32.665  1.00  0.00    -0.030 C 
HETATM    6  C8  UNL     1      43.391  30.925  31.721  1.00  0.00     0.020 C 
HETATM    7  C9  UNL     1      40.944  31.638  32.231  1.00  0.00    -0.001 C 
HETATM    8  C10 UNL     1      40.210  30.985  31.189  1.00  0.00     0.012 C 
HETATM    9  C11 UNL     1      41.057  29.786  30.775  1.00  0.00     0.009 C 
HETATM   10  C12 UNL     1      42.068  30.362  29.847  1.00  0.00     0.015 C 
HETATM   11  C13 UNL     1      41.524  28.970  31.910  1.00  0.00     0.050 A 
HETATM   12  C17 UNL     1      40.309  28.540  32.749  1.00  0.00     0.141 A 
HETATM   13  C19 UNL     1      40.801  29.370  33.937  1.00  0.00     0.040 A 
HETATM   14  C20 UNL     1      41.980  29.747  33.156  1.00  0.00     0.019 A 
ENDROOT
BRANCH  11  15
HETATM   15  S1  UNL     1      42.452  27.581  31.395  1.00  0.00    -0.080 SA
BRANCH  15  16
HETATM   16  C14 UNL     1      43.927  27.227  32.265  1.00  0.00     0.144 A 
HETATM   17  N1  UNL     1      44.566  27.867  33.262  1.00  0.00    -0.345 N 
HETATM   18  C15 UNL     1      45.668  27.236  33.624  1.00  0.00     0.107 A 
ATOM     19  H1  UNL     1      44.239  28.736  33.686  1.00  0.00     0.167 HD
HETATM   20  C16 UNL     1      45.753  26.133  32.828  1.00  0.00     0.107 A 
HETATM   21  N2  UNL     1      44.688  26.149  32.014  1.00  0.00    -0.345 N 
ATOM     22  H2  UNL     1      44.485  25.443  31.305  1.00  0.00     0.167 HD
ENDBRANCH  15  16
ENDBRANCH  11  15
BRANCH  12  23
HETATM   23  O1  UNL     1      40.256  27.168  32.994  1.00  0.00    -0.389 OA
HETATM   24  C18 UNL     1      39.674  26.876  34.223  1.00  0.00     0.202 C 
ENDBRANCH  12  23
BRANCH   1  25
HETATM   25  C2  UNL     1      44.165  31.563  29.504  1.00  0.00     0.005 C 
HETATM   26  C1  UNL     1      44.914  32.785  29.937  1.00  0.00     0.006 C 
ENDBRANCH   1  25
TORSDOF 4
ENDMDL
MODEL 4
REMARK VINA RESULT: -6.170607291      8.172     10.657
REMARK  4 active torsions:
REMARK  status: ('A' for Active; 'I' for Inactive)
REMARK    1  A    between atoms: C2_2  and  C3_3 
REMARK    2  A    between atoms: C13_13  and  S1_14 
REMARK    3  A    between atoms: S1_14  and  C14_15 
REMARK    4  A    between atoms: C17_22  and  O1_23 
ROOT
HETATM    1  C3  UNL     1      39.908  22.902  27.640  1.00  0.00    -0.039 C 
HETATM    2  C4  UNL     1      39.326  21.810  26.832  1.00  0.00     0.014 C 
HETATM    3  C5  UNL     1      38.586  20.763  27.559  1.00  0.00    -0.008 C 
HETATM    4  C6  UNL     1      37.543  21.229  28.595  1.00  0.00     0.015 C 
HETATM    5  C7  UNL     1      38.662  21.744  29.347  1.00  0.00    -0.030 C 
HETATM    6  C8  UNL     1      38.913  23.078  28.759  1.00  0.00     0.020 C 
HETATM    7  C9  UNL     1      39.340  20.515  28.816  1.00  0.00    -0.001 C 
HETATM    8  C10 UNL     1      40.769  20.442  28.844  1.00  0.00     0.012 C 
HETATM    9  C11 UNL     1      41.239  21.758  29.455  1.00  0.00     0.009 C 
HETATM   10  C12 UNL     1      41.205  22.717  28.317  1.00  0.00     0.015 C 
HETATM   11  C13 UNL     1      40.539  22.116  30.702  1.00  0.00     0.050 A 
HETATM   12  C17 UNL     1      40.669  20.953  31.699  1.00  0.00     0.141 A 
HETATM   13  C19 UNL     1      39.160  20.702  31.646  1.00  0.00     0.040 A 
HETATM   14  C20 UNL     1      39.027  21.836  30.730  1.00  0.00     0.019 A 
ENDROOT
BRANCH  11  15
HETATM   15  S1  UNL     1      41.135  23.606  31.396  1.00  0.00    -0.080 SA
BRANCH  15  16
HETATM   16  C14 UNL     1      42.868  23.820  31.484  1.00  0.00     0.144 A 
HETATM   17  N1  UNL     1      43.872  22.970  31.769  1.00  0.00    -0.345 N 
HETATM   18  C15 UNL     1      45.049  23.567  31.723  1.00  0.00     0.107 A 
ATOM     19  H1  UNL     1      43.740  21.984  31.994  1.00  0.00     0.167 HD
HETATM   20  C16 UNL     1      44.803  24.866  31.392  1.00  0.00     0.107 A 
HETATM   21  N2  UNL     1      43.477  24.995  31.253  1.00  0.00    -0.345 N 
ATOM     22  H2  UNL     1      42.997  25.862  31.007  1.00  0.00     0.167 HD
ENDBRANCH  15  16
ENDBRANCH  11  15
BRANCH  12  23
HETATM   23  O1  UNL     1      41.140  21.342  32.953  1.00  0.00    -0.389 OA
HETATM   24  C18 UNL     1      41.771  20.299  33.623  1.00  0.00     0.202 C 
ENDBRANCH  12  23
BRANCH   1  25
HETATM   25  C2  UNL     1      39.933  24.209  26.862  1.00  0.00     0.005 C 
HETATM   26  C1  UNL     1      38.956  24.096  25.734  1.00  0.00     0.006 C 
ENDBRANCH   1  25
TORSDOF 4
ENDMDL
MODEL 5
REMARK VINA RESULT: -5.740049783      2.649      4.275
REMARK  4 active torsions:
REMARK  status: ('A' for Active; 'I' for Inactive)
REMARK    1  A    between atoms: C2_2  and  C3_3 
REMARK    2  A    between atoms: C13_13  and  S1_14 
REMARK    3  A    between atoms: S1_14  and  C14_15 
REMARK    4  A    between atoms: C17_22  and  O1_23 
ROOT
HETATM    1  C3  UNL     1      39.883  29.973  32.071  1.00  0.00    -0.039 C 
HETATM    2  C4  UNL     1      38.938  30.857  31.358  1.00  0.00     0.014 C 
HETATM    3  C5  UNL     1      39.449  31.560  30.167  1.00  0.00    -0.008 C 
HETATM    4  C6  UNL     1      40.223  30.719  29.132  1.00  0.00     0.015 C 
HETATM    5  C7  UNL     1      41.227  30.557  30.157  1.00  0.00    -0.030 C 
HETATM    6  C8  UNL     1      40.743  29.415  30.964  1.00  0.00     0.020 C 
HETATM    7  C9  UNL     1      40.841  31.969  30.489  1.00  0.00    -0.001 C 
HETATM    8  C10 UNL     1      41.201  32.506  31.767  1.00  0.00     0.012 C 
HETATM    9  C11 UNL     1      41.934  31.384  32.495  1.00  0.00     0.009 C 
HETATM   10  C12 UNL     1      40.840  30.534  33.042  1.00  0.00     0.015 C 
HETATM   11  C13 UNL     1      42.990  30.745  31.690  1.00  0.00     0.050 A 
HETATM   12  C17 UNL     1      43.964  31.827  31.196  1.00  0.00     0.141 A 
HETATM   13  C19 UNL     1      43.555  31.571  29.744  1.00  0.00     0.040 A 
HETATM   14  C20 UNL     1      42.658  30.511  30.207  1.00  0.00     0.019 A 
ENDROOT
BRANCH  11  15
HETATM   15  S1  UNL     1      43.837  29.496  32.573  1.00  0.00    -0.080 SA
BRANCH  15  16
HETATM   16  C14 UNL     1      43.694  27.855  31.987  1.00  0.00     0.144 A 
HETATM   17  N1  UNL     1      42.708  27.206  31.341  1.00  0.00    -0.345 N 
HETATM   18  C15 UNL     1      43.029  25.950  31.087  1.00  0.00     0.107 A 
ATOM     19  H1  UNL     1      41.818  27.633  31.080  1.00  0.00     0.167 HD
HETATM   20  C16 UNL     1      44.283  25.771  31.589  1.00  0.00     0.107 A 
HETATM   21  N2  UNL     1      44.665  26.936  32.129  1.00  0.00    -0.345 N 
ATOM     22  H2  UNL     1      45.564  27.103  32.583  1.00  0.00     0.167 HD
ENDBRANCH  15  16
ENDBRANCH  11  15
BRANCH  12  23
HETATM   23  O1  UNL     1      45.302  31.543  31.471  1.00  0.00    -0.389 OA
HETATM   24  C18 UNL     1      46.015  32.680  31.837  1.00  0.00     0.202 C 
ENDBRANCH  12  23
BRANCH   1  25
HETATM   25  C2  UNL     1      39.162  28.794  32.705  1.00  0.00     0.005 C 
HETATM   26  C1  UNL     1      40.075  28.184  33.722  1.00  0.00     0.006 C 
ENDBRANCH   1  25
TORSDOF 4
ENDMDL
