MODEL 1
REMARK VINA RESULT: -8.402524461      0.000      0.000
REMARK  5 active torsions:
REMARK  status: ('A' for Active; 'I' for Inactive)
REMARK    1  A    between atoms: C5_5  and  O1_6 
REMARK    2  A    between atoms: O1_6  and  C6_7 
REMARK    3  A    between atoms: C17_18  and  C18_19 
REMARK    4  A    between atoms: C18_19  and  C19_20 
REMARK    5  A    between atoms: C28_33  and  C29_34 
ROOT
HETATM    1  C6  UNL     1      51.756  29.325  31.483  1.00  0.00     0.122 C 
HETATM    2  C7  UNL     1      51.646  30.109  30.213  1.00  0.00     0.033 C 
HETATM    3  C8  UNL     1      50.282  30.515  29.819  1.00  0.00     0.012 C 
HETATM    4  C9  UNL     1      49.345  30.835  30.925  1.00  0.00    -0.036 C 
HETATM    5  C10 UNL     1      48.373  29.648  31.046  1.00  0.00     0.016 C 
HETATM    6  C11 UNL     1      50.014  30.980  32.255  1.00  0.00    -0.004 C 
HETATM    7  C12 UNL     1      50.820  32.240  32.402  1.00  0.00     0.006 C 
HETATM    8  C13 UNL     1      50.550  33.279  31.368  1.00  0.00     0.006 C 
HETATM    9  C14 UNL     1      49.131  33.349  30.926  1.00  0.00    -0.003 C 
HETATM   10  C15 UNL     1      49.053  34.154  29.653  1.00  0.00     0.027 C 
HETATM   11  C16 UNL     1      49.564  35.547  29.765  1.00  0.00     0.040 C 
HETATM   12  C17 UNL     1      48.522  36.329  28.957  1.00  0.00     0.133 C 
HETATM   13  O4  UNL     1      47.622  35.385  28.458  1.00  0.00    -0.374 OA
HETATM   14  C20 UNL     1      47.554  34.428  29.440  1.00  0.00     0.062 C 
HETATM   15  C21 UNL     1      46.948  35.035  30.686  1.00  0.00     0.046 C 
HETATM   16  C22 UNL     1      46.930  33.139  29.059  1.00  0.00     0.038 C 
HETATM   17  C23 UNL     1      47.785  31.944  29.322  1.00  0.00     0.009 C 
HETATM   18  C24 UNL     1      48.473  32.037  30.685  1.00  0.00    -0.001 C 
HETATM   19  C25 UNL     1      50.900  29.825  32.602  1.00  0.00     0.037 C 
ENDROOT
BRANCH   1  20
HETATM   20  O1  UNL     1      51.552  27.974  31.207  1.00  0.00    -0.380 OA
BRANCH  20  21
HETATM   21  C5  UNL     1      51.036  27.257  32.282  1.00  0.00     0.129 C 
HETATM   22  C4  UNL     1      49.781  26.588  31.841  1.00  0.00     0.042 C 
HETATM   23  C2  UNL     1      49.965  25.115  31.548  1.00  0.00    -0.027 C 
HETATM   24  C1  UNL     1      48.673  24.587  30.972  1.00  0.00     0.016 C 
HETATM   25  C3  UNL     1      51.098  24.860  30.608  1.00  0.00     0.016 C 
HETATM   26  C28 UNL     1      50.294  24.466  32.877  1.00  0.00     0.152 C 
HETATM   27  C27 UNL     1      51.595  25.039  33.315  1.00  0.00     0.142 C 
HETATM   28  C26 UNL     1      52.035  26.380  32.945  1.00  0.00     0.111 C 
HETATM   29  O5  UNL     1      52.303  24.353  34.005  1.00  0.00    -0.297 OA
BRANCH  26  30
HETATM   30  C29 UNL     1      49.271  24.829  33.915  1.00  0.00     0.243 C 
HETATM   31  N1  UNL     1      48.015  24.163  33.988  1.00  0.00    -0.061 NA
HETATM   32  O6  UNL     1      49.486  25.738  34.763  1.00  0.00    -0.276 OA
ENDBRANCH  26  30
ENDBRANCH  20  21
ENDBRANCH   1  20
BRANCH  12  33
HETATM   33  C18 UNL     1      49.228  36.966  27.790  1.00  0.00     0.145 C 
BRANCH  33  34
HETATM   34  C19 UNL     1      49.039  38.430  27.835  1.00  0.00     0.175 C 
HETATM   35  O2  UNL     1      48.596  39.033  26.826  1.00  0.00    -0.648 OA
HETATM   36  O3  UNL     1      49.330  39.184  28.961  1.00  0.00    -0.648 OA
ENDBRANCH  33  34
ENDBRANCH  12  33
TORSDOF 5
ENDMDL
MODEL 2
REMARK VINA RESULT: -8.227536089      5.769      7.966
REMARK  5 active torsions:
REMARK  status: ('A' for Active; 'I' for Inactive)
REMARK    1  A    between atoms: C5_5  and  O1_6 
REMARK    2  A    between atoms: O1_6  and  C6_7 
REMARK    3  A    between atoms: C17_18  and  C18_19 
REMARK    4  A    between atoms: C18_19  and  C19_20 
REMARK    5  A    between atoms: C28_33  and  C29_34 
ROOT
HETATM    1  C6  UNL     1      45.131  34.333  30.626  1.00  0.00     0.122 C 
HETATM    2  C7  UNL     1      46.117  35.129  31.423  1.00  0.00     0.033 C 
HETATM    3  C8  UNL     1      47.487  34.585  31.489  1.00  0.00     0.012 C 
HETATM    4  C9  UNL     1      47.973  33.876  30.279  1.00  0.00    -0.036 C 
HETATM    5  C10 UNL     1      47.940  32.370  30.598  1.00  0.00     0.016 C 
HETATM    6  C11 UNL     1      47.107  34.079  29.077  1.00  0.00    -0.004 C 
HETATM    7  C12 UNL     1      47.210  35.451  28.470  1.00  0.00     0.006 C 
HETATM    8  C13 UNL     1      48.379  36.251  28.932  1.00  0.00     0.006 C 
HETATM    9  C14 UNL     1      49.610  35.451  29.182  1.00  0.00    -0.003 C 
HETATM   10  C15 UNL     1      50.585  36.284  29.974  1.00  0.00     0.027 C 
HETATM   11  C16 UNL     1      50.994  37.556  29.319  1.00  0.00     0.040 C 
HETATM   12  C17 UNL     1      52.496  37.597  29.623  1.00  0.00     0.133 C 
HETATM   13  O4  UNL     1      52.769  36.470  30.401  1.00  0.00    -0.374 OA
HETATM   14  C20 UNL     1      51.913  35.510  29.923  1.00  0.00     0.062 C 
HETATM   15  C21 UNL     1      52.278  35.185  28.492  1.00  0.00     0.046 C 
HETATM   16  C22 UNL     1      51.741  34.304  30.767  1.00  0.00     0.038 C 
HETATM   17  C23 UNL     1      50.322  33.997  31.114  1.00  0.00     0.009 C 
HETATM   18  C24 UNL     1      49.400  34.170  29.906  1.00  0.00    -0.001 C 
HETATM   19  C25 UNL     1      45.659  33.799  29.334  1.00  0.00     0.037 C 
ENDROOT
BRANCH   1  20
HETATM   20  O1  UNL     1      44.580  33.342  31.437  1.00  0.00    -0.380 OA
BRANCH  20  21
HETATM   21  C5  UNL     1      43.198  33.435  31.570  1.00  0.00     0.129 C 
HETATM   22  C4  UNL     1      42.575  32.350  30.764  1.00  0.00     0.042 C 
HETATM   23  C2  UNL     1      42.109  31.180  31.603  1.00  0.00    -0.027 C 
HETATM   24  C1  UNL     1      41.637  30.092  30.669  1.00  0.00     0.016 C 
HETATM   25  C3  UNL     1      43.183  30.664  32.504  1.00  0.00     0.016 C 
HETATM   26  C28 UNL     1      40.980  31.710  32.463  1.00  0.00     0.152 C 
HETATM   27  C27 UNL     1      41.578  32.738  33.356  1.00  0.00     0.142 C 
HETATM   28  C26 UNL     1      42.743  33.532  32.981  1.00  0.00     0.111 C 
HETATM   29  O5  UNL     1      41.065  32.910  34.431  1.00  0.00    -0.297 OA
BRANCH  26  30
HETATM   30  C29 UNL     1      39.943  32.395  31.620  1.00  0.00     0.243 C 
HETATM   31  N1  UNL     1      38.676  31.798  31.365  1.00  0.00    -0.061 NA
HETATM   32  O6  UNL     1      40.156  33.526  31.104  1.00  0.00    -0.276 OA
ENDBRANCH  26  30
ENDBRANCH  20  21
ENDBRANCH   1  20
BRANCH  12  33
HETATM   33  C18 UNL     1      52.763  38.820  30.458  1.00  0.00     0.145 C 
BRANCH  33  34
HETATM   34  C19 UNL     1      54.150  38.783  30.962  1.00  0.00     0.175 C 
HETATM   35  O2  UNL     1      54.375  38.952  32.186  1.00  0.00    -0.648 OA
HETATM   36  O3  UNL     1      55.239  38.565  30.131  1.00  0.00    -0.648 OA
ENDBRANCH  33  34
ENDBRANCH  12  33
TORSDOF 5
ENDMDL
MODEL 3
REMARK VINA RESULT: -8.156640904      1.907      2.425
REMARK  5 active torsions:
REMARK  status: ('A' for Active; 'I' for Inactive)
REMARK    1  A    between atoms: C5_5  and  O1_6 
REMARK    2  A    between atoms: O1_6  and  C6_7 
REMARK    3  A    between atoms: C17_18  and  C18_19 
REMARK    4  A    between atoms: C18_19  and  C19_20 
REMARK    5  A    between atoms: C28_33  and  C29_34 
ROOT
HETATM    1  C6  UNL     1      50.148  27.761  29.754  1.00  0.00     0.122 C 
HETATM    2  C7  UNL     1      50.102  28.848  28.725  1.00  0.00     0.033 C 
HETATM    3  C8  UNL     1      48.832  29.593  28.625  1.00  0.00     0.012 C 
HETATM    4  C9  UNL     1      48.086  29.795  29.892  1.00  0.00    -0.036 C 
HETATM    5  C10 UNL     1      46.892  28.824  29.869  1.00  0.00     0.016 C 
HETATM    6  C11 UNL     1      48.882  29.467  31.115  1.00  0.00    -0.004 C 
HETATM    7  C12 UNL     1      49.953  30.471  31.438  1.00  0.00     0.006 C 
HETATM    8  C13 UNL     1      49.829  31.770  30.717  1.00  0.00     0.006 C 
HETATM    9  C14 UNL     1      48.427  32.219  30.501  1.00  0.00    -0.003 C 
HETATM   10  C15 UNL     1      48.418  33.320  29.470  1.00  0.00     0.027 C 
HETATM   11  C16 UNL     1      49.228  34.516  29.829  1.00  0.00     0.040 C 
HETATM   12  C17 UNL     1      48.317  35.661  29.373  1.00  0.00     0.133 C 
HETATM   13  O4  UNL     1      47.193  35.063  28.798  1.00  0.00    -0.374 OA
HETATM   14  C20 UNL     1      47.003  33.920  29.533  1.00  0.00     0.062 C 
HETATM   15  C21 UNL     1      46.652  34.295  30.956  1.00  0.00     0.046 C 
HETATM   16  C22 UNL     1      46.081  32.913  28.955  1.00  0.00     0.038 C 
HETATM   17  C23 UNL     1      46.674  31.550  28.816  1.00  0.00     0.009 C 
HETATM   18  C24 UNL     1      47.481  31.162  30.057  1.00  0.00    -0.001 C 
HETATM   19  C25 UNL     1      49.521  28.115  31.064  1.00  0.00     0.037 C 
ENDROOT
BRANCH   1  20
HETATM   20  O1  UNL     1      49.630  26.589  29.204  1.00  0.00    -0.380 OA
BRANCH  20  21
HETATM   21  C5  UNL     1      49.293  25.630  30.155  1.00  0.00     0.129 C 
HETATM   22  C4  UNL     1      48.162  24.821  29.623  1.00  0.00     0.042 C 
HETATM   23  C2  UNL     1      48.594  23.471  29.094  1.00  0.00    -0.027 C 
HETATM   24  C1  UNL     1      47.395  22.813  28.454  1.00  0.00     0.016 C 
HETATM   25  C3  UNL     1      49.716  23.578  28.114  1.00  0.00     0.016 C 
HETATM   26  C28 UNL     1      49.085  22.692  30.297  1.00  0.00     0.152 C 
HETATM   27  C27 UNL     1      50.280  23.416  30.809  1.00  0.00     0.142 C 
HETATM   28  C26 UNL     1      50.458  24.857  30.657  1.00  0.00     0.111 C 
HETATM   29  O5  UNL     1      51.125  22.772  31.371  1.00  0.00    -0.297 OA
BRANCH  26  30
HETATM   30  C29 UNL     1      48.056  22.694  31.391  1.00  0.00     0.243 C 
HETATM   31  N1  UNL     1      46.963  21.782  31.387  1.00  0.00    -0.061 NA
HETATM   32  O6  UNL     1      48.121  23.504  32.356  1.00  0.00    -0.276 OA
ENDBRANCH  26  30
ENDBRANCH  20  21
ENDBRANCH   1  20
BRANCH  12  33
HETATM   33  C18 UNL     1      49.043  36.426  28.298  1.00  0.00     0.145 C 
BRANCH  33  34
HETATM   34  C19 UNL     1      49.607  37.666  28.868  1.00  0.00     0.175 C 
HETATM   35  O2  UNL     1      49.141  38.780  28.522  1.00  0.00    -0.648 OA
HETATM   36  O3  UNL     1      50.647  37.658  29.786  1.00  0.00    -0.648 OA
ENDBRANCH  33  34
ENDBRANCH  12  33
TORSDOF 5
ENDMDL
MODEL 4
REMARK VINA RESULT: -8.069795996      2.452      3.853
REMARK  5 active torsions:
REMARK  status: ('A' for Active; 'I' for Inactive)
REMARK    1  A    between atoms: C5_5  and  O1_6 
REMARK    2  A    between atoms: O1_6  and  C6_7 
REMARK    3  A    between atoms: C17_18  and  C18_19 
REMARK    4  A    between atoms: C18_19  and  C19_20 
REMARK    5  A    between atoms: C28_33  and  C29_34 
ROOT
HETATM    1  C6  UNL     1      50.128  26.618  30.303  1.00  0.00     0.122 C 
HETATM    2  C7  UNL     1      49.107  27.351  31.118  1.00  0.00     0.033 C 
HETATM    3  C8  UNL     1      49.421  28.757  31.437  1.00  0.00     0.012 C 
HETATM    4  C9  UNL     1      50.170  29.516  30.403  1.00  0.00    -0.036 C 
HETATM    5  C10 UNL     1      51.620  29.644  30.903  1.00  0.00     0.016 C 
HETATM    6  C11 UNL     1      50.232  28.823  29.079  1.00  0.00    -0.004 C 
HETATM    7  C12 UNL     1      48.933  28.826  28.323  1.00  0.00     0.006 C 
HETATM    8  C13 UNL     1      47.916  29.788  28.833  1.00  0.00     0.006 C 
HETATM    9  C14 UNL     1      48.483  31.065  29.346  1.00  0.00    -0.003 C 
HETATM   10  C15 UNL     1      47.429  31.783  30.150  1.00  0.00     0.027 C 
HETATM   11  C16 UNL     1      46.185  32.106  29.400  1.00  0.00     0.040 C 
HETATM   12  C17 UNL     1      45.879  33.524  29.896  1.00  0.00     0.133 C 
HETATM   13  O4  UNL     1      46.861  33.830  30.841  1.00  0.00    -0.374 OA
HETATM   14  C20 UNL     1      47.988  33.198  30.377  1.00  0.00     0.062 C 
HETATM   15  C21 UNL     1      48.401  33.818  29.061  1.00  0.00     0.046 C 
HETATM   16  C22 UNL     1      49.110  33.069  31.337  1.00  0.00     0.038 C 
HETATM   17  C23 UNL     1      49.596  31.670  31.526  1.00  0.00     0.009 C 
HETATM   18  C24 UNL     1      49.698  30.928  30.192  1.00  0.00    -0.001 C 
HETATM   19  C25 UNL     1      50.706  27.406  29.172  1.00  0.00     0.037 C 
ENDROOT
BRANCH   1  20
HETATM   20  O1  UNL     1      51.101  26.094  31.152  1.00  0.00    -0.380 OA
BRANCH  20  21
HETATM   21  C5  UNL     1      50.638  25.058  31.958  1.00  0.00     0.129 C 
HETATM   22  C4  UNL     1      50.377  23.873  31.095  1.00  0.00     0.042 C 
HETATM   23  C2  UNL     1      51.467  22.827  31.178  1.00  0.00    -0.027 C 
HETATM   24  C1  UNL     1      51.167  21.755  30.157  1.00  0.00     0.016 C 
HETATM   25  C3  UNL     1      52.825  23.402  30.946  1.00  0.00     0.016 C 
HETATM   26  C28 UNL     1      51.414  22.285  32.592  1.00  0.00     0.152 C 
HETATM   27  C27 UNL     1      51.762  23.419  33.490  1.00  0.00     0.142 C 
HETATM   28  C26 UNL     1      51.485  24.811  33.152  1.00  0.00     0.111 C 
HETATM   29  O5  UNL     1      52.293  23.158  34.537  1.00  0.00    -0.297 OA
BRANCH  26  30
HETATM   30  C29 UNL     1      50.022  21.844  32.943  1.00  0.00     0.243 C 
HETATM   31  N1  UNL     1      49.491  20.610  32.473  1.00  0.00    -0.061 NA
HETATM   32  O6  UNL     1      49.270  22.551  33.668  1.00  0.00    -0.276 OA
ENDBRANCH  26  30
ENDBRANCH  20  21
ENDBRANCH   1  20
BRANCH  12  33
HETATM   33  C18 UNL     1      44.548  33.488  30.597  1.00  0.00     0.145 C 
BRANCH  33  34
HETATM   34  C19 UNL     1      44.508  34.534  31.639  1.00  0.00     0.175 C 
HETATM   35  O2  UNL     1      44.037  34.268  32.772  1.00  0.00    -0.648 OA
HETATM   36  O3  UNL     1      44.978  35.820  31.421  1.00  0.00    -0.648 OA
ENDBRANCH  33  34
ENDBRANCH  12  33
TORSDOF 5
ENDMDL
MODEL 5
REMARK VINA RESULT: -8.054316233      2.770      4.464
REMARK  5 active torsions:
REMARK  status: ('A' for Active; 'I' for Inactive)
REMARK    1  A    between atoms: C5_5  and  O1_6 
REMARK    2  A    between atoms: O1_6  and  C6_7 
REMARK    3  A    between atoms: C17_18  and  C18_19 
REMARK    4  A    between atoms: C18_19  and  C19_20 
REMARK    5  A    between atoms: C28_33  and  C29_34 
ROOT
HETATM    1  C6  UNL     1      49.020  27.893  29.699  1.00  0.00     0.122 C 
HETATM    2  C7  UNL     1      48.477  28.624  30.888  1.00  0.00     0.033 C 
HETATM    3  C8  UNL     1      48.681  30.086  30.898  1.00  0.00     0.012 C 
HETATM    4  C9  UNL     1      48.643  30.766  29.579  1.00  0.00    -0.036 C 
HETATM    5  C10 UNL     1      50.098  31.109  29.210  1.00  0.00     0.016 C 
HETATM    6  C11 UNL     1      48.112  29.906  28.477  1.00  0.00    -0.004 C 
HETATM    7  C12 UNL     1      46.628  29.672  28.542  1.00  0.00     0.006 C 
HETATM    8  C13 UNL     1      45.892  30.587  29.458  1.00  0.00     0.006 C 
HETATM    9  C14 UNL     1      46.430  31.974  29.503  1.00  0.00    -0.003 C 
HETATM   10  C15 UNL     1      45.856  32.685  30.702  1.00  0.00     0.027 C 
HETATM   11  C16 UNL     1      44.371  32.773  30.722  1.00  0.00     0.040 C 
HETATM   12  C17 UNL     1      44.148  34.208  31.215  1.00  0.00     0.133 C 
HETATM   13  O4  UNL     1      45.415  34.740  31.460  1.00  0.00    -0.374 OA
HETATM   14  C20 UNL     1      46.215  34.168  30.503  1.00  0.00     0.062 C 
HETATM   15  C21 UNL     1      45.771  34.638  29.136  1.00  0.00     0.046 C 
HETATM   16  C22 UNL     1      47.678  34.288  30.712  1.00  0.00     0.038 C 
HETATM   17  C23 UNL     1      48.407  32.986  30.697  1.00  0.00     0.009 C 
HETATM   18  C24 UNL     1      47.912  32.080  29.568  1.00  0.00    -0.001 C 
HETATM   19  C25 UNL     1      48.784  28.571  28.388  1.00  0.00     0.037 C 
ENDROOT
BRANCH   1  20
HETATM   20  O1  UNL     1      50.363  27.593  29.920  1.00  0.00    -0.380 OA
BRANCH  20  21
HETATM   21  C5  UNL     1      50.595  26.933  31.123  1.00  0.00     0.129 C 
HETATM   22  C4  UNL     1      50.319  25.484  30.923  1.00  0.00     0.042 C 
HETATM   23  C2  UNL     1      51.576  24.657  30.763  1.00  0.00    -0.027 C 
HETATM   24  C1  UNL     1      51.167  23.244  30.422  1.00  0.00     0.016 C 
HETATM   25  C3  UNL     1      52.487  25.204  29.714  1.00  0.00     0.016 C 
HETATM   26  C28 UNL     1      52.291  24.726  32.097  1.00  0.00     0.152 C 
HETATM   27  C27 UNL     1      52.671  26.150  32.298  1.00  0.00     0.142 C 
HETATM   28  C26 UNL     1      51.908  27.260  31.736  1.00  0.00     0.111 C 
HETATM   29  O5  UNL     1      53.652  26.379  32.955  1.00  0.00    -0.297 OA
BRANCH  26  30
HETATM   30  C29 UNL     1      51.367  24.346  33.219  1.00  0.00     0.243 C 
HETATM   31  N1  UNL     1      50.980  22.994  33.440  1.00  0.00    -0.061 NA
HETATM   32  O6  UNL     1      50.897  25.211  34.008  1.00  0.00    -0.276 OA
ENDBRANCH  26  30
ENDBRANCH  20  21
ENDBRANCH   1  20
BRANCH  12  33
HETATM   33  C18 UNL     1      43.408  34.134  32.524  1.00  0.00     0.145 C 
BRANCH  33  34
HETATM   34  C19 UNL     1      42.300  33.165  32.413  1.00  0.00     0.175 C 
HETATM   35  O2  UNL     1      41.256  33.479  31.788  1.00  0.00    -0.648 OA
HETATM   36  O3  UNL     1      42.358  31.899  32.975  1.00  0.00    -0.648 OA
ENDBRANCH  33  34
ENDBRANCH  12  33
TORSDOF 5
ENDMDL
