MODEL 1
REMARK VINA RESULT: -6.927369706      0.000      0.000
REMARK  9 active torsions:
REMARK  status: ('A' for Active; 'I' for Inactive)
REMARK    1  A    between atoms: C2_2  and  C3_3 
REMARK    2  A    between atoms: C4_4  and  O1_5 
REMARK    3  A    between atoms: O1_5  and  C5_6 
REMARK    4  A    between atoms: C5_6  and  C6_7 
REMARK    5  A    between atoms: C6_7  and  C7_8 
REMARK    6  A    between atoms: C7_8  and  N1_9 
REMARK       I    between atoms: N1_9  and  C8_11 
REMARK       I    between atoms: C8_11  and  N2_13 
REMARK    7  A    between atoms: N2_13  and  C9_15 
REMARK    8  A    between atoms: C9_15  and  C10_16 
REMARK    9  A    between atoms: C10_16  and  C11_17 
ROOT
HETATM    1  C5  UNL     1      49.570  20.570   2.897  1.00  0.00     0.177 C 
ENDROOT
BRANCH   1   2
HETATM    2  O1  UNL     1      48.423  19.993   3.386  1.00  0.00    -0.350 OA
BRANCH   2   3
HETATM    3  C4  UNL     1      47.608  19.019   2.943  1.00  0.00     0.084 A 
HETATM    4  C3  UNL     1      46.969  19.017   1.728  1.00  0.00     0.012 A 
HETATM    5  C21 UNL     1      46.134  17.941   1.366  1.00  0.00     0.114 A 
HETATM    6  C20 UNL     1      45.950  16.881   2.225  1.00  0.00     0.112 A 
HETATM    7  O3  UNL     1      45.384  17.693   0.221  1.00  0.00    -0.322 OA
HETATM    8  C18 UNL     1      46.580  16.861   3.451  1.00  0.00    -0.017 A 
HETATM    9  O4  UNL     1      45.074  15.999   1.565  1.00  0.00    -0.322 OA
HETATM   10  C16 UNL     1      47.392  17.931   3.775  1.00  0.00    -0.019 A 
HETATM   11  C19 UNL     1      46.375  15.731   4.351  1.00  0.00     0.052 C 
HETATM   12  C17 UNL     1      48.061  17.902   5.077  1.00  0.00     0.052 C 
HETATM   13  C22 UNL     1      44.359  16.774   0.609  1.00  0.00     0.352 C 
BRANCH   4  14
HETATM   14  C2  UNL     1      47.113  20.102   0.757  1.00  0.00     0.040 C 
HETATM   15  C1  UNL     1      45.952  21.018   0.609  1.00  0.00     0.010 C 
ENDBRANCH   4  14
ENDBRANCH   2   3
ENDBRANCH   1   2
BRANCH   1  16
HETATM   16  C6  UNL     1      50.797  19.868   3.516  1.00  0.00     0.046 C 
BRANCH  16  17
HETATM   17  C7  UNL     1      51.444  19.000   2.500  1.00  0.00     0.126 C 
BRANCH  17  18
HETATM   18  N1  UNL     1      50.579  18.044   1.911  1.00  0.00    -0.343 N 
HETATM   19  C8  UNL     1      50.432  16.713   2.362  1.00  0.00     0.316 C 
HETATM   20  O2  UNL     1      51.106  16.356   3.359  1.00  0.00    -0.247 OA
HETATM   21  N2  UNL     1      49.541  15.858   1.674  1.00  0.00    -0.343 N 
ATOM     22  H2  UNL     1      49.013  16.214   0.877  1.00  0.00     0.164 HD
ATOM     23  H1  UNL     1      50.024  18.337   1.106  1.00  0.00     0.164 HD
BRANCH  21  24
HETATM   24  C9  UNL     1      49.373  14.490   2.087  1.00  0.00     0.125 C 
BRANCH  24  25
HETATM   25  C10 UNL     1      48.112  13.933   1.512  1.00  0.00     0.024 C 
BRANCH  25  26
HETATM   26  C11 UNL     1      47.526  12.865   2.420  1.00  0.00    -0.013 C 
HETATM   27  C12 UNL     1      48.018  11.529   1.891  1.00  0.00     0.005 C 
HETATM   28  C13 UNL     1      46.850  10.612   2.192  1.00  0.00     0.000 C 
HETATM   29  C14 UNL     1      45.682  11.445   1.698  1.00  0.00     0.000 C 
HETATM   30  C15 UNL     1      46.011  12.808   2.253  1.00  0.00     0.005 C 
ENDBRANCH  25  26
ENDBRANCH  24  25
ENDBRANCH  21  24
ENDBRANCH  17  18
ENDBRANCH  16  17
ENDBRANCH   1  16
TORSDOF 9
ENDMDL
MODEL 2
REMARK VINA RESULT: -6.514446477      1.945      4.552
REMARK  9 active torsions:
REMARK  status: ('A' for Active; 'I' for Inactive)
REMARK    1  A    between atoms: C2_2  and  C3_3 
REMARK    2  A    between atoms: C4_4  and  O1_5 
REMARK    3  A    between atoms: O1_5  and  C5_6 
REMARK    4  A    between atoms: C5_6  and  C6_7 
REMARK    5  A    between atoms: C6_7  and  C7_8 
REMARK    6  A    between atoms: C7_8  and  N1_9 
REMARK       I    between atoms: N1_9  and  C8_11 
REMARK       I    between atoms: C8_11  and  N2_13 
REMARK    7  A    between atoms: N2_13  and  C9_15 
REMARK    8  A    between atoms: C9_15  and  C10_16 
REMARK    9  A    between atoms: C10_16  and  C11_17 
ROOT
HETATM    1  C5  UNL     1      50.608  18.395   2.353  1.00  0.00     0.177 C 
ENDROOT
BRANCH   1   2
HETATM    2  O1  UNL     1      50.290  17.418   3.265  1.00  0.00    -0.350 OA
BRANCH   2   3
HETATM    3  C4  UNL     1      49.466  16.355   3.242  1.00  0.00     0.084 A 
HETATM    4  C3  UNL     1      49.612  15.261   2.423  1.00  0.00     0.012 A 
HETATM    5  C21 UNL     1      48.686  14.201   2.482  1.00  0.00     0.114 A 
HETATM    6  C20 UNL     1      47.626  14.248   3.361  1.00  0.00     0.112 A 
HETATM    7  O3  UNL     1      48.602  13.003   1.780  1.00  0.00    -0.322 OA
HETATM    8  C18 UNL     1      47.459  15.335   4.191  1.00  0.00    -0.017 A 
HETATM    9  O4  UNL     1      46.911  13.051   3.164  1.00  0.00    -0.322 OA
HETATM   10  C16 UNL     1      48.385  16.357   4.108  1.00  0.00    -0.019 A 
HETATM   11  C19 UNL     1      46.331  15.372   5.116  1.00  0.00     0.052 C 
HETATM   12  C17 UNL     1      48.202  17.508   4.995  1.00  0.00     0.052 C 
HETATM   13  C22 UNL     1      47.233  12.595   1.854  1.00  0.00     0.352 C 
BRANCH   4  14
HETATM   14  C2  UNL     1      50.711  15.132   1.466  1.00  0.00     0.040 C 
HETATM   15  C1  UNL     1      50.410  15.501   0.058  1.00  0.00     0.010 C 
ENDBRANCH   4  14
ENDBRANCH   2   3
ENDBRANCH   1   2
BRANCH   1  16
HETATM   16  C6  UNL     1      50.934  19.705   3.101  1.00  0.00     0.046 C 
BRANCH  16  17
HETATM   17  C7  UNL     1      49.701  20.517   3.252  1.00  0.00     0.126 C 
BRANCH  17  18
HETATM   18  N1  UNL     1      48.971  20.701   2.051  1.00  0.00    -0.343 N 
HETATM   19  C8  UNL     1      47.619  20.333   1.873  1.00  0.00     0.316 C 
HETATM   20  O2  UNL     1      47.020  19.816   2.848  1.00  0.00    -0.247 OA
HETATM   21  N2  UNL     1      47.013  20.562   0.616  1.00  0.00    -0.343 N 
ATOM     22  H2  UNL     1      47.552  20.997  -0.133  1.00  0.00     0.164 HD
ATOM     23  H1  UNL     1      49.455  21.129   1.262  1.00  0.00     0.164 HD
BRANCH  21  24
HETATM   24  C9  UNL     1      45.644  20.186   0.383  1.00  0.00     0.125 C 
BRANCH  24  25
HETATM   25  C10 UNL     1      45.586  18.855  -0.291  1.00  0.00     0.024 C 
BRANCH  25  26
HETATM   26  C11 UNL     1      44.835  17.847   0.562  1.00  0.00    -0.013 C 
HETATM   27  C12 UNL     1      45.886  16.992   1.248  1.00  0.00     0.005 C 
HETATM   28  C13 UNL     1      45.206  15.640   1.322  1.00  0.00     0.000 C 
HETATM   29  C14 UNL     1      44.658  15.504  -0.086  1.00  0.00     0.000 C 
HETATM   30  C15 UNL     1      44.071  16.872  -0.329  1.00  0.00     0.005 C 
ENDBRANCH  25  26
ENDBRANCH  24  25
ENDBRANCH  21  24
ENDBRANCH  17  18
ENDBRANCH  16  17
ENDBRANCH   1  16
TORSDOF 9
ENDMDL
MODEL 3
REMARK VINA RESULT: -6.112887712      2.478      5.535
REMARK  9 active torsions:
REMARK  status: ('A' for Active; 'I' for Inactive)
REMARK    1  A    between atoms: C2_2  and  C3_3 
REMARK    2  A    between atoms: C4_4  and  O1_5 
REMARK    3  A    between atoms: O1_5  and  C5_6 
REMARK    4  A    between atoms: C5_6  and  C6_7 
REMARK    5  A    between atoms: C6_7  and  C7_8 
REMARK    6  A    between atoms: C7_8  and  N1_9 
REMARK       I    between atoms: N1_9  and  C8_11 
REMARK       I    between atoms: C8_11  and  N2_13 
REMARK    7  A    between atoms: N2_13  and  C9_15 
REMARK    8  A    between atoms: C9_15  and  C10_16 
REMARK    9  A    between atoms: C10_16  and  C11_17 
ROOT
HETATM    1  C5  UNL     1      47.632  20.590   0.962  1.00  0.00     0.177 C 
ENDROOT
BRANCH   1   2
HETATM    2  O1  UNL     1      48.388  19.456   1.134  1.00  0.00    -0.350 OA
BRANCH   2   3
HETATM    3  C4  UNL     1      49.711  19.210   1.135  1.00  0.00     0.084 A 
HETATM    4  C3  UNL     1      50.603  19.694   2.060  1.00  0.00     0.012 A 
HETATM    5  C21 UNL     1      51.971  19.372   1.964  1.00  0.00     0.114 A 
HETATM    6  C20 UNL     1      52.429  18.568   0.943  1.00  0.00     0.112 A 
HETATM    7  O3  UNL     1      53.065  19.721   2.750  1.00  0.00    -0.322 OA
HETATM    8  C18 UNL     1      51.552  18.071   0.003  1.00  0.00    -0.017 A 
HETATM    9  O4  UNL     1      53.818  18.449   1.141  1.00  0.00    -0.322 OA
HETATM   10  C16 UNL     1      50.218  18.406   0.126  1.00  0.00    -0.019 A 
HETATM   11  C19 UNL     1      52.051  17.222  -1.074  1.00  0.00     0.052 C 
HETATM   12  C17 UNL     1      49.291  17.872  -0.875  1.00  0.00     0.052 C 
HETATM   13  C22 UNL     1      54.217  19.575   1.915  1.00  0.00     0.352 C 
BRANCH   4  14
HETATM   14  C2  UNL     1      50.199  20.550   3.175  1.00  0.00     0.040 C 
HETATM   15  C1  UNL     1      50.031  19.885   4.494  1.00  0.00     0.010 C 
ENDBRANCH   4  14
ENDBRANCH   2   3
ENDBRANCH   1   2
BRANCH   1  16
HETATM   16  C6  UNL     1      46.192  20.189   0.579  1.00  0.00     0.046 C 
BRANCH  16  17
HETATM   17  C7  UNL     1      45.466  19.713   1.783  1.00  0.00     0.126 C 
BRANCH  17  18
HETATM   18  N1  UNL     1      45.657  18.339   2.076  1.00  0.00    -0.343 N 
HETATM   19  C8  UNL     1      46.362  17.852   3.200  1.00  0.00     0.316 C 
HETATM   20  O2  UNL     1      46.843  18.693   3.998  1.00  0.00    -0.247 OA
HETATM   21  N2  UNL     1      46.489  16.454   3.367  1.00  0.00    -0.343 N 
ATOM     22  H2  UNL     1      46.063  15.823   2.688  1.00  0.00     0.164 HD
ATOM     23  H1  UNL     1      45.258  17.656   1.432  1.00  0.00     0.164 HD
BRANCH  21  24
HETATM   24  C9  UNL     1      47.213  15.913   4.487  1.00  0.00     0.125 C 
BRANCH  24  25
HETATM   25  C10 UNL     1      48.297  15.006   4.005  1.00  0.00     0.024 C 
BRANCH  25  26
HETATM   26  C11 UNL     1      48.742  15.389   2.604  1.00  0.00    -0.013 C 
HETATM   27  C12 UNL     1      48.748  14.109   1.786  1.00  0.00     0.005 C 
HETATM   28  C13 UNL     1      49.903  14.339   0.834  1.00  0.00     0.000 C 
HETATM   29  C14 UNL     1      50.972  14.854   1.779  1.00  0.00     0.000 C 
HETATM   30  C15 UNL     1      50.199  15.839   2.620  1.00  0.00     0.005 C 
ENDBRANCH  25  26
ENDBRANCH  24  25
ENDBRANCH  21  24
ENDBRANCH  17  18
ENDBRANCH  16  17
ENDBRANCH   1  16
TORSDOF 9
ENDMDL
MODEL 4
REMARK VINA RESULT: -6.104386961      2.563      5.361
REMARK  9 active torsions:
REMARK  status: ('A' for Active; 'I' for Inactive)
REMARK    1  A    between atoms: C2_2  and  C3_3 
REMARK    2  A    between atoms: C4_4  and  O1_5 
REMARK    3  A    between atoms: O1_5  and  C5_6 
REMARK    4  A    between atoms: C5_6  and  C6_7 
REMARK    5  A    between atoms: C6_7  and  C7_8 
REMARK    6  A    between atoms: C7_8  and  N1_9 
REMARK       I    between atoms: N1_9  and  C8_11 
REMARK       I    between atoms: C8_11  and  N2_13 
REMARK    7  A    between atoms: N2_13  and  C9_15 
REMARK    8  A    between atoms: C9_15  and  C10_16 
REMARK    9  A    between atoms: C10_16  and  C11_17 
ROOT
HETATM    1  C5  UNL     1      50.276  19.821   3.857  1.00  0.00     0.177 C 
ENDROOT
BRANCH   1   2
HETATM    2  O1  UNL     1      50.948  18.731   3.360  1.00  0.00    -0.350 OA
BRANCH   2   3
HETATM    3  C4  UNL     1      51.771  18.542   2.313  1.00  0.00     0.084 A 
HETATM    4  C3  UNL     1      51.430  17.904   1.145  1.00  0.00     0.012 A 
HETATM    5  C21 UNL     1      52.376  17.760   0.111  1.00  0.00     0.114 A 
HETATM    6  C20 UNL     1      53.652  18.258   0.258  1.00  0.00     0.112 A 
HETATM    7  O3  UNL     1      52.293  17.170  -1.146  1.00  0.00    -0.322 OA
HETATM    8  C18 UNL     1      54.018  18.901   1.420  1.00  0.00    -0.017 A 
HETATM    9  O4  UNL     1      54.324  17.949  -0.940  1.00  0.00    -0.322 OA
HETATM   10  C16 UNL     1      53.066  19.025   2.415  1.00  0.00    -0.019 A 
HETATM   11  C19 UNL     1      55.373  19.422   1.563  1.00  0.00     0.052 C 
HETATM   12  C17 UNL     1      53.461  19.711   3.647  1.00  0.00     0.052 C 
HETATM   13  C22 UNL     1      53.635  16.847  -1.521  1.00  0.00     0.352 C 
BRANCH   4  14
HETATM   14  C2  UNL     1      50.097  17.351   0.908  1.00  0.00     0.040 C 
HETATM   15  C1  UNL     1      49.858  15.966   1.392  1.00  0.00     0.010 C 
ENDBRANCH   4  14
ENDBRANCH   2   3
ENDBRANCH   1   2
BRANCH   1  16
HETATM   16  C6  UNL     1      49.489  20.499   2.715  1.00  0.00     0.046 C 
BRANCH  16  17
HETATM   17  C7  UNL     1      48.162  19.853   2.569  1.00  0.00     0.126 C 
BRANCH  17  18
HETATM   18  N1  UNL     1      47.892  18.845   3.529  1.00  0.00    -0.343 N 
HETATM   19  C8  UNL     1      47.144  17.674   3.272  1.00  0.00     0.316 C 
HETATM   20  O2  UNL     1      46.696  17.511   2.111  1.00  0.00    -0.247 OA
HETATM   21  N2  UNL     1      46.938  16.755   4.326  1.00  0.00    -0.343 N 
ATOM     22  H2  UNL     1      47.340  16.942   5.245  1.00  0.00     0.164 HD
ATOM     23  H1  UNL     1      48.264  18.974   4.471  1.00  0.00     0.164 HD
BRANCH  21  24
HETATM   24  C9  UNL     1      46.168  15.558   4.114  1.00  0.00     0.125 C 
BRANCH  24  25
HETATM   25  C10 UNL     1      47.063  14.363   4.135  1.00  0.00     0.024 C 
BRANCH  25  26
HETATM   26  C11 UNL     1      47.166  13.739   2.753  1.00  0.00    -0.013 C 
HETATM   27  C12 UNL     1      45.872  14.070   2.031  1.00  0.00     0.005 C 
HETATM   28  C13 UNL     1      45.661  12.843   1.167  1.00  0.00     0.000 C 
HETATM   29  C14 UNL     1      45.921  11.729   2.163  1.00  0.00     0.000 C 
HETATM   30  C15 UNL     1      47.164  12.217   2.864  1.00  0.00     0.005 C 
ENDBRANCH  25  26
ENDBRANCH  24  25
ENDBRANCH  21  24
ENDBRANCH  17  18
ENDBRANCH  16  17
ENDBRANCH   1  16
TORSDOF 9
ENDMDL
MODEL 5
REMARK VINA RESULT: -6.092660312      2.237      6.288
REMARK  9 active torsions:
REMARK  status: ('A' for Active; 'I' for Inactive)
REMARK    1  A    between atoms: C2_2  and  C3_3 
REMARK    2  A    between atoms: C4_4  and  O1_5 
REMARK    3  A    between atoms: O1_5  and  C5_6 
REMARK    4  A    between atoms: C5_6  and  C6_7 
REMARK    5  A    between atoms: C6_7  and  C7_8 
REMARK    6  A    between atoms: C7_8  and  N1_9 
REMARK       I    between atoms: N1_9  and  C8_11 
REMARK       I    between atoms: C8_11  and  N2_13 
REMARK    7  A    between atoms: N2_13  and  C9_15 
REMARK    8  A    between atoms: C9_15  and  C10_16 
REMARK    9  A    between atoms: C10_16  and  C11_17 
ROOT
HETATM    1  C5  UNL     1      48.727  13.160   1.743  1.00  0.00     0.177 C 
ENDROOT
BRANCH   1   2
HETATM    2  O1  UNL     1      48.370  14.485   1.674  1.00  0.00    -0.350 OA
BRANCH   2   3
HETATM    3  C4  UNL     1      48.918  15.623   2.139  1.00  0.00     0.084 A 
HETATM    4  C3  UNL     1      48.666  16.174   3.371  1.00  0.00     0.012 A 
HETATM    5  C21 UNL     1      49.296  17.374   3.756  1.00  0.00     0.114 A 
HETATM    6  C20 UNL     1      50.172  18.007   2.901  1.00  0.00     0.112 A 
HETATM    7  O3  UNL     1      49.219  18.130   4.921  1.00  0.00    -0.322 OA
HETATM    8  C18 UNL     1      50.440  17.473   1.660  1.00  0.00    -0.017 A 
HETATM    9  O4  UNL     1      50.613  19.156   3.586  1.00  0.00    -0.322 OA
HETATM   10  C16 UNL     1      49.805  16.295   1.314  1.00  0.00    -0.019 A 
HETATM   11  C19 UNL     1      51.369  18.154   0.765  1.00  0.00     0.052 C 
HETATM   12  C17 UNL     1      50.097  15.732  -0.006  1.00  0.00     0.052 C 
HETATM   13  C22 UNL     1      49.620  19.456   4.560  1.00  0.00     0.352 C 
BRANCH   4  14
HETATM   14  C2  UNL     1      47.752  15.564   4.338  1.00  0.00     0.040 C 
HETATM   15  C1  UNL     1      46.309  15.884   4.179  1.00  0.00     0.010 C 
ENDBRANCH   4  14
ENDBRANCH   2   3
ENDBRANCH   1   2
BRANCH   1  16
HETATM   16  C6  UNL     1      47.580  12.356   2.389  1.00  0.00     0.046 C 
BRANCH  16  17
HETATM   17  C7  UNL     1      46.395  12.363   1.495  1.00  0.00     0.126 C 
BRANCH  17  18
HETATM   18  N1  UNL     1      45.542  13.483   1.662  1.00  0.00    -0.343 N 
HETATM   19  C8  UNL     1      45.295  14.456   0.668  1.00  0.00     0.316 C 
HETATM   20  O2  UNL     1      45.861  14.312  -0.444  1.00  0.00    -0.247 OA
HETATM   21  N2  UNL     1      44.430  15.532   0.971  1.00  0.00    -0.343 N 
ATOM     22  H2  UNL     1      43.991  15.584   1.891  1.00  0.00     0.164 HD
ATOM     23  H1  UNL     1      45.075  13.595   2.563  1.00  0.00     0.164 HD
BRANCH  21  24
HETATM   24  C9  UNL     1      44.163  16.555  -0.005  1.00  0.00     0.125 C 
BRANCH  24  25
HETATM   25  C10 UNL     1      44.401  17.904   0.590  1.00  0.00     0.024 C 
BRANCH  25  26
HETATM   26  C11 UNL     1      45.772  17.977   1.240  1.00  0.00    -0.013 C 
HETATM   27  C12 UNL     1      45.856  19.330   1.924  1.00  0.00     0.005 C 
HETATM   28  C13 UNL     1      47.323  19.679   1.771  1.00  0.00     0.000 C 
HETATM   29  C14 UNL     1      47.557  19.349   0.309  1.00  0.00     0.000 C 
HETATM   30  C15 UNL     1      46.858  18.020   0.170  1.00  0.00     0.005 C 
ENDBRANCH  25  26
ENDBRANCH  24  25
ENDBRANCH  21  24
ENDBRANCH  17  18
ENDBRANCH  16  17
ENDBRANCH   1  16
TORSDOF 9
ENDMDL
