MODEL 1
REMARK VINA RESULT: -6.093289836      0.000      0.000
REMARK  4 active torsions:
REMARK  status: ('A' for Active; 'I' for Inactive)
REMARK    1  A    between atoms: N2_5  and  N3_7 
REMARK    2  A    between atoms: N3_7  and  C4_9 
REMARK    3  A    between atoms: C4_9  and  C5_11 
REMARK    4  A    between atoms: N4_15  and  O1_16 
ROOT
HETATM    1  C1  UNL     1      -3.721  -8.875  19.471  1.00  0.00     0.082 C 
HETATM    2  C2  UNL     1      -2.941  -7.735  20.014  1.00  0.00     0.101 C 
HETATM    3  C3  UNL     1      -2.263  -7.882  21.253  1.00  0.00     0.114 C 
HETATM    4  N1  UNL     1      -1.722  -8.004  22.283  1.00  0.00    -0.190 NA
HETATM    5  N2  UNL     1      -2.859  -6.609  19.395  1.00  0.00    -0.294 N 
ATOM      6  H2  UNL     1      -2.317  -5.838  19.785  1.00  0.00     0.187 HD
ENDROOT
BRANCH   5   7
HETATM    7  N3  UNL     1      -3.520  -6.467  18.189  1.00  0.00    -0.287 N 
ATOM      8  H3  UNL     1      -4.467  -6.088  18.168  1.00  0.00     0.188 HD
BRANCH   7   9
HETATM    9  C4  UNL     1      -2.889  -6.843  16.992  1.00  0.00     0.151 C 
HETATM   10  S1  UNL     1      -1.295  -6.593  16.712  1.00  0.00    -0.056 SA
BRANCH   9  11
HETATM   11  C5  UNL     1      -3.690  -7.494  15.931  1.00  0.00     0.141 A 
HETATM   12  S2  UNL     1      -3.260  -8.809  14.937  1.00  0.00    -0.077 SA
HETATM   13  C6  UNL     1      -4.698  -8.917  14.030  1.00  0.00     0.071 A 
HETATM   14  C7  UNL     1      -5.454  -7.900  14.562  1.00  0.00     0.131 A 
HETATM   15  N4  UNL     1      -4.922  -7.192  15.525  1.00  0.00    -0.226 N 
BRANCH  15  16
HETATM   16  O1  UNL     1      -5.597  -6.118  16.156  1.00  0.00    -0.282 OA
ATOM     17  H1  UNL     1      -5.632  -5.280  15.709  1.00  0.00     0.245 HD
ENDBRANCH  15  16
ENDBRANCH   9  11
ENDBRANCH   7   9
ENDBRANCH   5   7
TORSDOF 4
ENDMDL
MODEL 2
REMARK VINA RESULT: -5.885297829      3.614      4.529
REMARK  4 active torsions:
REMARK  status: ('A' for Active; 'I' for Inactive)
REMARK    1  A    between atoms: N2_5  and  N3_7 
REMARK    2  A    between atoms: N3_7  and  C4_9 
REMARK    3  A    between atoms: C4_9  and  C5_11 
REMARK    4  A    between atoms: N4_15  and  O1_16 
ROOT
HETATM    1  C1  UNL     1      -0.978 -13.194  20.531  1.00  0.00     0.082 C 
HETATM    2  C2  UNL     1      -1.409 -12.044  21.366  1.00  0.00     0.101 C 
HETATM    3  C3  UNL     1      -1.249 -12.109  22.775  1.00  0.00     0.114 C 
HETATM    4  N1  UNL     1      -1.131 -12.175  23.936  1.00  0.00    -0.190 NA
HETATM    5  N2  UNL     1      -1.926 -10.984  20.850  1.00  0.00    -0.294 N 
ATOM      6  H2  UNL     1      -2.215 -10.205  21.441  1.00  0.00     0.187 HD
ENDROOT
BRANCH   5   7
HETATM    7  N3  UNL     1      -2.082 -10.924  19.477  1.00  0.00    -0.287 N 
ATOM      8  H3  UNL     1      -2.538 -11.690  18.982  1.00  0.00     0.188 HD
BRANCH   7   9
HETATM    9  C4  UNL     1      -1.614  -9.808  18.765  1.00  0.00     0.151 C 
HETATM   10  S1  UNL     1      -0.148  -9.770  18.035  1.00  0.00    -0.056 SA
BRANCH   9  11
HETATM   11  C5  UNL     1      -2.474  -8.607  18.664  1.00  0.00     0.141 A 
HETATM   12  S2  UNL     1      -3.061  -7.841  17.260  1.00  0.00    -0.077 SA
HETATM   13  C6  UNL     1      -3.937  -6.586  18.008  1.00  0.00     0.071 A 
HETATM   14  C7  UNL     1      -3.721  -6.836  19.342  1.00  0.00     0.131 A 
HETATM   15  N4  UNL     1      -2.976  -7.867  19.650  1.00  0.00    -0.226 N 
BRANCH  15  16
HETATM   16  O1  UNL     1      -2.678  -8.230  20.986  1.00  0.00    -0.282 OA
ATOM     17  H1  UNL     1      -1.794  -8.096  21.306  1.00  0.00     0.245 HD
ENDBRANCH  15  16
ENDBRANCH   9  11
ENDBRANCH   7   9
ENDBRANCH   5   7
TORSDOF 4
ENDMDL
MODEL 3
REMARK VINA RESULT: -5.788637714      2.054      2.608
REMARK  4 active torsions:
REMARK  status: ('A' for Active; 'I' for Inactive)
REMARK    1  A    between atoms: N2_5  and  N3_7 
REMARK    2  A    between atoms: N3_7  and  C4_9 
REMARK    3  A    between atoms: C4_9  and  C5_11 
REMARK    4  A    between atoms: N4_15  and  O1_16 
ROOT
HETATM    1  C1  UNL     1      -2.171 -10.600  21.639  1.00  0.00     0.082 C 
HETATM    2  C2  UNL     1      -1.872  -9.148  21.717  1.00  0.00     0.101 C 
HETATM    3  C3  UNL     1      -0.987  -8.673  22.721  1.00  0.00     0.114 C 
HETATM    4  N1  UNL     1      -0.273  -8.286  23.562  1.00  0.00    -0.190 NA
HETATM    5  N2  UNL     1      -2.392  -8.301  20.900  1.00  0.00    -0.294 N 
ATOM      6  H2  UNL     1      -2.172  -7.307  20.970  1.00  0.00     0.187 HD
ENDROOT
BRANCH   5   7
HETATM    7  N3  UNL     1      -3.253  -8.765  19.923  1.00  0.00    -0.287 N 
ATOM      8  H3  UNL     1      -4.199  -9.055  20.173  1.00  0.00     0.188 HD
BRANCH   7   9
HETATM    9  C4  UNL     1      -2.828  -8.837  18.587  1.00  0.00     0.151 C 
HETATM   10  S1  UNL     1      -1.667  -9.874  18.078  1.00  0.00    -0.056 SA
BRANCH   9  11
HETATM   11  C5  UNL     1      -3.449  -7.940  17.585  1.00  0.00     0.141 A 
HETATM   12  S2  UNL     1      -3.661  -8.204  15.916  1.00  0.00    -0.077 SA
HETATM   13  C6  UNL     1      -4.429  -6.734  15.527  1.00  0.00     0.071 A 
HETATM   14  C7  UNL     1      -4.482  -6.102  16.745  1.00  0.00     0.131 A 
HETATM   15  N4  UNL     1      -3.978  -6.734  17.775  1.00  0.00    -0.226 N 
BRANCH  15  16
HETATM   16  O1  UNL     1      -3.970  -6.191  19.083  1.00  0.00    -0.282 OA
ATOM     17  H1  UNL     1      -4.668  -5.596  19.331  1.00  0.00     0.245 HD
ENDBRANCH  15  16
ENDBRANCH   9  11
ENDBRANCH   7   9
ENDBRANCH   5   7
TORSDOF 4
ENDMDL
MODEL 4
REMARK VINA RESULT: -5.764932134      5.222      6.589
REMARK  4 active torsions:
REMARK  status: ('A' for Active; 'I' for Inactive)
REMARK    1  A    between atoms: N2_5  and  N3_7 
REMARK    2  A    between atoms: N3_7  and  C4_9 
REMARK    3  A    between atoms: C4_9  and  C5_11 
REMARK    4  A    between atoms: N4_15  and  O1_16 
ROOT
HETATM    1  C1  UNL     1      -1.808  -8.527  17.863  1.00  0.00     0.082 C 
HETATM    2  C2  UNL     1      -2.983  -8.556  18.770  1.00  0.00     0.101 C 
HETATM    3  C3  UNL     1      -3.824  -7.416  18.855  1.00  0.00     0.114 C 
HETATM    4  N1  UNL     1      -4.503  -6.467  18.935  1.00  0.00    -0.190 NA
HETATM    5  N2  UNL     1      -3.264  -9.588  19.487  1.00  0.00    -0.294 N 
ATOM      6  H2  UNL     1      -4.076  -9.587  20.103  1.00  0.00     0.187 HD
ENDROOT
BRANCH   5   7
HETATM    7  N3  UNL     1      -2.443 -10.697  19.403  1.00  0.00    -0.287 N 
ATOM      8  H3  UNL     1      -2.288 -11.150  18.502  1.00  0.00     0.188 HD
BRANCH   7   9
HETATM    9  C4  UNL     1      -1.822 -11.200  20.558  1.00  0.00     0.151 C 
HETATM   10  S1  UNL     1      -1.777 -10.378  21.973  1.00  0.00    -0.056 SA
BRANCH   9  11
HETATM   11  C5  UNL     1      -1.176 -12.532  20.504  1.00  0.00     0.141 A 
HETATM   12  S2  UNL     1      -0.947 -13.649  21.770  1.00  0.00    -0.077 SA
HETATM   13  C6  UNL     1      -0.157 -14.871  20.884  1.00  0.00     0.071 A 
HETATM   14  C7  UNL     1      -0.114 -14.332  19.621  1.00  0.00     0.131 A 
HETATM   15  N4  UNL     1      -0.637 -13.145  19.452  1.00  0.00    -0.226 N 
BRANCH  15  16
HETATM   16  O1  UNL     1      -0.655 -12.481  18.201  1.00  0.00    -0.282 OA
ATOM     17  H1  UNL     1       0.117 -11.997  17.934  1.00  0.00     0.245 HD
ENDBRANCH  15  16
ENDBRANCH   9  11
ENDBRANCH   7   9
ENDBRANCH   5   7
TORSDOF 4
ENDMDL
MODEL 5
REMARK VINA RESULT: -5.747076914      2.642      3.597
REMARK  4 active torsions:
REMARK  status: ('A' for Active; 'I' for Inactive)
REMARK    1  A    between atoms: N2_5  and  N3_7 
REMARK    2  A    between atoms: N3_7  and  C4_9 
REMARK    3  A    between atoms: C4_9  and  C5_11 
REMARK    4  A    between atoms: N4_15  and  O1_16 
ROOT
HETATM    1  C1  UNL     1      -0.962  -8.603  22.588  1.00  0.00     0.082 C 
HETATM    2  C2  UNL     1      -1.803  -9.825  22.547  1.00  0.00     0.101 C 
HETATM    3  C3  UNL     1      -1.582 -10.854  23.501  1.00  0.00     0.114 C 
HETATM    4  N1  UNL     1      -1.384 -11.706  24.277  1.00  0.00    -0.190 NA
HETATM    5  N2  UNL     1      -2.732  -9.984  21.670  1.00  0.00    -0.294 N 
ATOM      6  H2  UNL     1      -3.300 -10.831  21.661  1.00  0.00     0.187 HD
ENDROOT
BRANCH   5   7
HETATM    7  N3  UNL     1      -2.946  -8.981  20.742  1.00  0.00    -0.287 N 
ATOM      8  H3  UNL     1      -3.392  -8.109  21.027  1.00  0.00     0.188 HD
BRANCH   7   9
HETATM    9  C4  UNL     1      -2.548  -9.163  19.408  1.00  0.00     0.151 C 
HETATM   10  S1  UNL     1      -1.458 -10.297  18.951  1.00  0.00    -0.056 SA
BRANCH   9  11
HETATM   11  C5  UNL     1      -3.132  -8.296  18.359  1.00  0.00     0.141 A 
HETATM   12  S2  UNL     1      -3.564  -8.709  16.764  1.00  0.00    -0.077 SA
HETATM   13  C6  UNL     1      -4.138  -7.187  16.259  1.00  0.00     0.071 A 
HETATM   14  C7  UNL     1      -3.960  -6.421  17.386  1.00  0.00     0.131 A 
HETATM   15  N4  UNL     1      -3.448  -7.005  18.439  1.00  0.00    -0.226 N 
BRANCH  15  16
HETATM   16  O1  UNL     1      -3.215  -6.326  19.659  1.00  0.00    -0.282 OA
ATOM     17  H1  UNL     1      -3.963  -6.023  20.160  1.00  0.00     0.245 HD
ENDBRANCH  15  16
ENDBRANCH   9  11
ENDBRANCH   7   9
ENDBRANCH   5   7
TORSDOF 4
ENDMDL
