MODEL 1
REMARK VINA RESULT: -6.805375288      0.000      0.000
REMARK  3 active torsions:
REMARK  status: ('A' for Active; 'I' for Inactive)
REMARK    1  A    between atoms: C2_2  and  N1_3 
REMARK    2  A    between atoms: C6_9  and  C7_10 
REMARK    3  A    between atoms: C7_10  and  O3_11 
ROOT
HETATM    1  N1  UNL     1      -1.405 -10.238  20.402  1.00  0.00    -0.343 N 
HETATM    2  C3  UNL     1      -1.551  -9.815  21.725  1.00  0.00     0.270 C 
HETATM    3  O1  UNL     1      -2.486  -8.803  21.905  1.00  0.00    -0.192 OA
HETATM    4  O2  UNL     1      -2.411  -7.825  21.060  1.00  0.00    -0.227 OA
HETATM    5  C4  UNL     1      -3.324  -8.038  20.050  1.00  0.00     0.194 C 
HETATM    6  C5  UNL     1      -3.592  -6.782  19.217  1.00  0.00     0.072 C 
HETATM    7  C6  UNL     1      -3.938  -7.455  17.881  1.00  0.00     0.148 C 
HETATM    8  O4  UNL     1      -2.871  -8.342  17.768  1.00  0.00    -0.374 OA
HETATM    9  C8  UNL     1      -2.824  -8.980  18.984  1.00  0.00     0.177 C 
HETATM   10  C9  UNL     1      -1.372  -9.304  19.357  1.00  0.00     0.117 C 
HETATM   11  C10 UNL     1      -0.651  -9.761  18.117  1.00  0.00     0.035 C 
ENDROOT
BRANCH   7  12
HETATM   12  C7  UNL     1      -3.872  -6.488  16.739  1.00  0.00     0.196 C 
BRANCH  12  13
HETATM   13  O3  UNL     1      -5.042  -5.726  16.776  1.00  0.00    -0.398 OA
ATOM     14  H3  UNL     1      -5.625  -6.074  16.112  1.00  0.00     0.209 HD
ENDBRANCH  12  13
ENDBRANCH   7  12
BRANCH   1  15
HETATM   15  C2  UNL     1      -1.562 -11.597  20.094  1.00  0.00     0.061 C 
HETATM   16  C1  UNL     1      -1.179 -12.556  21.175  1.00  0.00     0.055 C 
ENDBRANCH   1  15
TORSDOF 3
ENDMDL
MODEL 2
REMARK VINA RESULT: -6.398245050      3.466      5.071
REMARK  3 active torsions:
REMARK  status: ('A' for Active; 'I' for Inactive)
REMARK    1  A    between atoms: C2_2  and  N1_3 
REMARK    2  A    between atoms: C6_9  and  C7_10 
REMARK    3  A    between atoms: C7_10  and  O3_11 
ROOT
HETATM    1  N1  UNL     1      -3.448  -8.272  17.195  1.00  0.00    -0.343 N 
HETATM    2  C3  UNL     1      -3.783  -6.970  17.573  1.00  0.00     0.270 C 
HETATM    3  O1  UNL     1      -4.741  -6.366  16.768  1.00  0.00    -0.192 OA
HETATM    4  O2  UNL     1      -4.554  -6.498  15.493  1.00  0.00    -0.227 OA
HETATM    5  C4  UNL     1      -5.314  -7.554  15.038  1.00  0.00     0.194 C 
HETATM    6  C5  UNL     1      -5.469  -7.560  13.515  1.00  0.00     0.072 C 
HETATM    7  C6  UNL     1      -5.618  -9.074  13.301  1.00  0.00     0.148 C 
HETATM    8  O4  UNL     1      -4.539  -9.536  14.050  1.00  0.00    -0.374 OA
HETATM    9  C8  UNL     1      -4.660  -8.895  15.259  1.00  0.00     0.177 C 
HETATM   10  C9  UNL     1      -3.273  -8.597  15.842  1.00  0.00     0.117 C 
HETATM   11  C10 UNL     1      -2.380  -9.781  15.581  1.00  0.00     0.035 C 
ENDROOT
BRANCH   7  12
HETATM   12  C7  UNL     1      -5.398  -9.456  11.869  1.00  0.00     0.196 C 
BRANCH  12  13
HETATM   13  O3  UNL     1      -4.675  -8.420  11.272  1.00  0.00    -0.398 OA
ATOM     14  H3  UNL     1      -4.083  -8.075  11.931  1.00  0.00     0.209 HD
ENDBRANCH  12  13
ENDBRANCH   7  12
BRANCH   1  15
HETATM   15  C2  UNL     1      -3.550  -9.308  18.135  1.00  0.00     0.061 C 
HETATM   16  C1  UNL     1      -3.823  -8.883  19.542  1.00  0.00     0.055 C 
ENDBRANCH   1  15
TORSDOF 3
ENDMDL
MODEL 3
REMARK VINA RESULT: -6.390364304      3.957      6.286
REMARK  3 active torsions:
REMARK  status: ('A' for Active; 'I' for Inactive)
REMARK    1  A    between atoms: C2_2  and  N1_3 
REMARK    2  A    between atoms: C6_9  and  C7_10 
REMARK    3  A    between atoms: C7_10  and  O3_11 
ROOT
HETATM    1  N1  UNL     1      -5.219  -9.704  13.610  1.00  0.00    -0.343 N 
HETATM    2  C3  UNL     1      -5.825  -8.790  12.746  1.00  0.00     0.270 C 
HETATM    3  O1  UNL     1      -5.637  -7.458  13.094  1.00  0.00    -0.192 OA
HETATM    4  O2  UNL     1      -5.824  -7.181  14.345  1.00  0.00    -0.227 OA
HETATM    5  C4  UNL     1      -4.605  -7.179  14.989  1.00  0.00     0.194 C 
HETATM    6  C5  UNL     1      -4.659  -6.501  16.359  1.00  0.00     0.072 C 
HETATM    7  C6  UNL     1      -3.541  -7.290  17.056  1.00  0.00     0.148 C 
HETATM    8  O4  UNL     1      -3.919  -8.590  16.733  1.00  0.00    -0.374 OA
HETATM    9  C8  UNL     1      -4.135  -8.559  15.376  1.00  0.00     0.177 C 
HETATM   10  C9  UNL     1      -5.274  -9.514  14.998  1.00  0.00     0.117 C 
HETATM   11  C10 UNL     1      -5.138 -10.769  15.819  1.00  0.00     0.035 C 
ENDROOT
BRANCH   7  12
HETATM   12  C7  UNL     1      -3.599  -7.137  18.545  1.00  0.00     0.196 C 
BRANCH  12  13
HETATM   13  O3  UNL     1      -4.604  -6.209  18.825  1.00  0.00    -0.398 OA
ATOM     14  H3  UNL     1      -5.371  -6.700  19.097  1.00  0.00     0.209 HD
ENDBRANCH  12  13
ENDBRANCH   7  12
BRANCH   1  15
HETATM   15  C2  UNL     1      -4.332 -10.658  13.089  1.00  0.00     0.061 C 
HETATM   16  C1  UNL     1      -4.003 -10.514  11.638  1.00  0.00     0.055 C 
ENDBRANCH   1  15
TORSDOF 3
ENDMDL
MODEL 4
REMARK VINA RESULT: -6.386083246      2.904      5.889
REMARK  3 active torsions:
REMARK  status: ('A' for Active; 'I' for Inactive)
REMARK    1  A    between atoms: C2_2  and  N1_3 
REMARK    2  A    between atoms: C6_9  and  C7_10 
REMARK    3  A    between atoms: C7_10  and  O3_11 
ROOT
HETATM    1  N1  UNL     1      -2.163  -9.681  20.100  1.00  0.00    -0.343 N 
HETATM    2  C3  UNL     1      -1.781 -10.738  19.272  1.00  0.00     0.270 C 
HETATM    3  O1  UNL     1      -1.620 -11.953  19.928  1.00  0.00    -0.192 OA
HETATM    4  O2  UNL     1      -0.948 -11.899  21.034  1.00  0.00    -0.227 OA
HETATM    5  C4  UNL     1      -1.832 -11.822  22.089  1.00  0.00     0.194 C 
HETATM    6  C5  UNL     1      -1.176 -12.137  23.436  1.00  0.00     0.072 C 
HETATM    7  C6  UNL     1      -2.070 -11.275  24.339  1.00  0.00     0.148 C 
HETATM    8  O4  UNL     1      -2.043 -10.073  23.638  1.00  0.00    -0.374 OA
HETATM    9  C8  UNL     1      -2.336 -10.423  22.342  1.00  0.00     0.177 C 
HETATM   10  C9  UNL     1      -1.576  -9.519  21.364  1.00  0.00     0.117 C 
HETATM   11  C10 UNL     1      -1.596  -8.112  21.900  1.00  0.00     0.035 C 
ENDROOT
BRANCH   7  12
HETATM   12  C7  UNL     1      -1.450 -11.052  25.684  1.00  0.00     0.196 C 
BRANCH  12  13
HETATM   13  O3  UNL     1      -0.065 -11.032  25.501  1.00  0.00    -0.398 OA
ATOM     14  H3  UNL     1       0.181 -10.132  25.320  1.00  0.00     0.209 HD
ENDBRANCH  12  13
ENDBRANCH   7  12
BRANCH   1  15
HETATM   15  C2  UNL     1      -3.315  -8.945  19.787  1.00  0.00     0.061 C 
HETATM   16  C1  UNL     1      -3.862  -9.150  18.411  1.00  0.00     0.055 C 
ENDBRANCH   1  15
TORSDOF 3
ENDMDL
MODEL 5
REMARK VINA RESULT: -6.321041319      2.425      3.661
REMARK  3 active torsions:
REMARK  status: ('A' for Active; 'I' for Inactive)
REMARK    1  A    between atoms: C2_2  and  N1_3 
REMARK    2  A    between atoms: C6_9  and  C7_10 
REMARK    3  A    between atoms: C7_10  and  O3_11 
ROOT
HETATM    1  N1  UNL     1      -3.000  -8.203  18.809  1.00  0.00    -0.343 N 
HETATM    2  C3  UNL     1      -3.741  -7.111  19.263  1.00  0.00     0.270 C 
HETATM    3  O1  UNL     1      -4.493  -6.478  18.281  1.00  0.00    -0.192 OA
HETATM    4  O2  UNL     1      -3.870  -6.247  17.170  1.00  0.00    -0.227 OA
HETATM    5  C4  UNL     1      -4.160  -7.257  16.278  1.00  0.00     0.194 C 
HETATM    6  C5  UNL     1      -3.797  -6.897  14.835  1.00  0.00     0.072 C 
HETATM    7  C6  UNL     1      -3.501  -8.309  14.309  1.00  0.00     0.148 C 
HETATM    8  O4  UNL     1      -2.654  -8.773  15.311  1.00  0.00    -0.374 OA
HETATM    9  C8  UNL     1      -3.318  -8.491  16.481  1.00  0.00     0.177 C 
HETATM   10  C9  UNL     1      -2.315  -8.139  17.587  1.00  0.00     0.117 C 
HETATM   11  C10 UNL     1      -1.132  -9.062  17.471  1.00  0.00     0.035 C 
ENDROOT
BRANCH   7  12
HETATM   12  C7  UNL     1      -2.735  -8.272  13.022  1.00  0.00     0.196 C 
BRANCH  12  13
HETATM   13  O3  UNL     1      -2.306  -6.956  12.835  1.00  0.00    -0.398 OA
ATOM     14  H3  UNL     1      -1.841  -6.927  12.006  1.00  0.00     0.209 HD
ENDBRANCH  12  13
ENDBRANCH   7  12
BRANCH   1  15
HETATM   15  C2  UNL     1      -3.157  -9.448  19.435  1.00  0.00     0.061 C 
HETATM   16  C1  UNL     1      -2.961  -9.459  20.917  1.00  0.00     0.055 C 
ENDBRANCH   1  15
TORSDOF 3
ENDMDL
