MODEL 1
REMARK VINA RESULT: -7.758847849      0.000      0.000
REMARK  13 active torsions:
REMARK  status: ('A' for Active; 'I' for Inactive)
REMARK    1  A    between atoms: C2_2  and  C4_4 
REMARK    2  A    between atoms: C4_4  and  C5_5 
REMARK    3  A    between atoms: C5_5  and  N1_6 
REMARK    4  A    between atoms: C5_5  and  C6_10 
REMARK       I    between atoms: C6_10  and  N2_12 
REMARK    5  A    between atoms: N2_12  and  C7_14 
REMARK    6  A    between atoms: C7_14  and  C8_15 
REMARK    7  A    between atoms: C7_14  and  C12_19 
REMARK    8  A    between atoms: C8_15  and  C9_16 
REMARK    9  A    between atoms: C12_19  and  C13_20 
REMARK   10  A    between atoms: C12_19  and  N3_24 
REMARK   11  A    between atoms: C13_20  and  C14_21 
REMARK   12  A    between atoms: N3_24  and  C17_26 
REMARK   13  A    between atoms: C17_26  and  C18_30 
ROOT
HETATM    1  C12 UNL     1      25.524 -14.565  10.253  1.00  0.00     0.133 C 
ENDROOT
BRANCH   1   2
HETATM    2  C7  UNL     1      25.800 -13.842   8.951  1.00  0.00     0.031 C 
BRANCH   2   3
HETATM    3  N2  UNL     1      27.089 -13.250   8.830  1.00  0.00    -0.327 N 
HETATM    4  C6  UNL     1      28.236 -13.931   8.319  1.00  0.00     0.252 C 
HETATM    5  O1  UNL     1      28.113 -15.122   7.952  1.00  0.00    -0.271 OA
ATOM      6  H2  UNL     1      27.200 -12.281   9.127  1.00  0.00     0.168 HD
BRANCH   4   7
HETATM    7  C5  UNL     1      29.561 -13.300   8.202  1.00  0.00     0.275 C 
BRANCH   7   8
HETATM    8  C4  UNL     1      30.120 -13.465   6.809  1.00  0.00     0.046 C 
BRANCH   8   9
HETATM    9  C2  UNL     1      30.976 -12.335   6.357  1.00  0.00    -0.020 C 
HETATM   10  C1  UNL     1      30.718 -12.156   4.859  1.00  0.00     0.009 C 
HETATM   11  C3  UNL     1      32.460 -12.584   6.492  1.00  0.00     0.009 C 
ENDBRANCH   8   9
ENDBRANCH   7   8
BRANCH   7  12
HETATM   12  N1  UNL     1      29.521 -11.888   8.503  1.00  0.00    -0.066 N 
ATOM     13  H13 UNL     1      30.410 -11.420   8.321  1.00  0.00     0.275 HD
ATOM     14  H12 UNL     1      28.951 -11.360   7.841  1.00  0.00     0.275 HD
ATOM     15  H11 UNL     1      29.209 -11.780   9.467  1.00  0.00     0.275 HD
ENDBRANCH   7  12
ENDBRANCH   4   7
ENDBRANCH   2   3
BRANCH   2  16
HETATM   16  C8  UNL     1      25.274 -14.466   7.732  1.00  0.00     0.004 C 
BRANCH  16  17
HETATM   17  C9  UNL     1      24.058 -13.988   7.069  1.00  0.00     0.002 C 
HETATM   18  C10 UNL     1      22.804 -13.929   7.899  1.00  0.00     0.013 C 
HETATM   19  C11 UNL     1      23.764 -15.031   5.964  1.00  0.00     0.013 C 
ENDBRANCH  16  17
ENDBRANCH   2  16
ENDBRANCH   1   2
BRANCH   1  20
HETATM   20  C13 UNL     1      25.105 -13.537  11.312  1.00  0.00     0.035 C 
BRANCH  20  21
HETATM   21  C14 UNL     1      23.746 -12.979  11.106  1.00  0.00    -0.020 C 
HETATM   22  C15 UNL     1      23.750 -11.522  11.545  1.00  0.00     0.009 C 
HETATM   23  C16 UNL     1      22.822 -13.717  12.081  1.00  0.00     0.009 C 
ENDBRANCH  20  21
ENDBRANCH   1  20
BRANCH   1  24
HETATM   24  N3  UNL     1      26.576 -15.398  10.724  1.00  0.00    -0.363 N 
ATOM     25  H3  UNL     1      26.851 -16.155  10.097  1.00  0.00     0.162 HD
BRANCH  24  26
HETATM   26  C17 UNL     1      27.289 -15.322  11.939  1.00  0.00     0.142 C 
HETATM   27  N4  UNL     1      26.862 -15.847  13.028  1.00  0.00    -0.383 N 
ATOM     28  H42 UNL     1      25.964 -16.329  12.993  1.00  0.00     0.157 HD
ATOM     29  H41 UNL     1      27.378 -15.791  13.906  1.00  0.00     0.157 HD
BRANCH  26  30
HETATM   30  C18 UNL     1      28.571 -14.635  11.989  1.00  0.00     0.178 A 
HETATM   31  N5  UNL     1      29.804 -15.104  12.240  1.00  0.00    -0.264 N 
HETATM   32  N6  UNL     1      30.649 -14.090  12.172  1.00  0.00    -0.005 NA
ATOM     33  H5  UNL     1      30.046 -16.073  12.446  1.00  0.00     0.186 HD
HETATM   34  N7  UNL     1      29.994 -12.961  11.881  1.00  0.00    -0.225 N 
HETATM   35  N8  UNL     1      28.745 -13.322  11.777  1.00  0.00    -0.269 N 
ATOM     36  H7  UNL     1      30.385 -12.026  11.766  1.00  0.00     0.205 HD
ATOM     37  H8  UNL     1      27.985 -12.677  11.559  1.00  0.00     0.190 HD
ENDBRANCH  26  30
ENDBRANCH  24  26
ENDBRANCH   1  24
TORSDOF 13
ENDMDL
MODEL 2
REMARK VINA RESULT: -7.743027802      2.927      5.965
REMARK  13 active torsions:
REMARK  status: ('A' for Active; 'I' for Inactive)
REMARK    1  A    between atoms: C2_2  and  C4_4 
REMARK    2  A    between atoms: C4_4  and  C5_5 
REMARK    3  A    between atoms: C5_5  and  N1_6 
REMARK    4  A    between atoms: C5_5  and  C6_10 
REMARK       I    between atoms: C6_10  and  N2_12 
REMARK    5  A    between atoms: N2_12  and  C7_14 
REMARK    6  A    between atoms: C7_14  and  C8_15 
REMARK    7  A    between atoms: C7_14  and  C12_19 
REMARK    8  A    between atoms: C8_15  and  C9_16 
REMARK    9  A    between atoms: C12_19  and  C13_20 
REMARK   10  A    between atoms: C12_19  and  N3_24 
REMARK   11  A    between atoms: C13_20  and  C14_21 
REMARK   12  A    between atoms: N3_24  and  C17_26 
REMARK   13  A    between atoms: C17_26  and  C18_30 
ROOT
HETATM    1  C12 UNL     1      25.499 -14.206   9.191  1.00  0.00     0.133 C 
ENDROOT
BRANCH   1   2
HETATM    2  C7  UNL     1      26.982 -14.226   9.500  1.00  0.00     0.031 C 
BRANCH   2   3
HETATM    3  N2  UNL     1      27.363 -14.939  10.671  1.00  0.00    -0.327 N 
HETATM    4  C6  UNL     1      27.471 -14.348  11.967  1.00  0.00     0.252 C 
HETATM    5  O1  UNL     1      27.218 -13.127  12.092  1.00  0.00    -0.271 OA
ATOM      6  H2  UNL     1      27.572 -15.933  10.579  1.00  0.00     0.168 HD
BRANCH   4   7
HETATM    7  C5  UNL     1      27.867 -15.103  13.166  1.00  0.00     0.275 C 
BRANCH   7   8
HETATM    8  C4  UNL     1      27.805 -16.592  12.916  1.00  0.00     0.046 C 
BRANCH   8   9
HETATM    9  C2  UNL     1      29.132 -17.264  12.902  1.00  0.00    -0.020 C 
HETATM   10  C1  UNL     1      29.345 -17.792  11.480  1.00  0.00     0.009 C 
HETATM   11  C3  UNL     1      29.231 -18.469  13.807  1.00  0.00     0.009 C 
ENDBRANCH   8   9
ENDBRANCH   7   8
BRANCH   7  12
HETATM   12  N1  UNL     1      29.208 -14.779  13.596  1.00  0.00    -0.066 N 
ATOM     13  H13 UNL     1      29.285 -14.682  14.609  1.00  0.00     0.275 HD
ATOM     14  H12 UNL     1      29.858 -15.557  13.483  1.00  0.00     0.275 HD
ATOM     15  H11 UNL     1      29.504 -13.941  13.097  1.00  0.00     0.275 HD
ENDBRANCH   7  12
ENDBRANCH   4   7
ENDBRANCH   2   3
BRANCH   2  16
HETATM   16  C8  UNL     1      27.887 -14.362   8.354  1.00  0.00     0.004 C 
BRANCH  16  17
HETATM   17  C9  UNL     1      29.301 -13.984   8.422  1.00  0.00     0.002 C 
HETATM   18  C10 UNL     1      29.618 -12.615   8.964  1.00  0.00     0.013 C 
HETATM   19  C11 UNL     1      29.784 -13.959   6.952  1.00  0.00     0.013 C 
ENDBRANCH  16  17
ENDBRANCH   2  16
ENDBRANCH   1   2
BRANCH   1  20
HETATM   20  C13 UNL     1      25.310 -14.110   7.672  1.00  0.00     0.035 C 
BRANCH  20  21
HETATM   21  C14 UNL     1      23.996 -14.609   7.195  1.00  0.00    -0.020 C 
HETATM   22  C15 UNL     1      24.221 -15.435   5.937  1.00  0.00     0.009 C 
HETATM   23  C16 UNL     1      23.197 -13.375   6.759  1.00  0.00     0.009 C 
ENDBRANCH  20  21
ENDBRANCH   1  20
BRANCH   1  24
HETATM   24  N3  UNL     1      24.746 -13.212   9.874  1.00  0.00    -0.363 N 
ATOM     25  H3  UNL     1      25.179 -12.290   9.924  1.00  0.00     0.162 HD
BRANCH  24  26
HETATM   26  C17 UNL     1      23.482 -13.328  10.491  1.00  0.00     0.142 C 
HETATM   27  N4  UNL     1      22.622 -14.215  10.149  1.00  0.00    -0.383 N 
ATOM     28  H42 UNL     1      22.881 -14.847   9.391  1.00  0.00     0.157 HD
ATOM     29  H41 UNL     1      21.709 -14.298  10.595  1.00  0.00     0.157 HD
BRANCH  26  30
HETATM   30  C18 UNL     1      23.114 -12.426  11.572  1.00  0.00     0.178 A 
HETATM   31  N5  UNL     1      22.465 -12.662  12.724  1.00  0.00    -0.264 N 
HETATM   32  N6  UNL     1      22.368 -11.518  13.380  1.00  0.00    -0.005 NA
ATOM     33  H5  UNL     1      22.109 -13.564  13.037  1.00  0.00     0.186 HD
HETATM   34  N7  UNL     1      22.941 -10.534  12.681  1.00  0.00    -0.225 N 
HETATM   35  N8  UNL     1      23.381 -11.112  11.596  1.00  0.00    -0.269 N 
ATOM     36  H7  UNL     1      23.018  -9.550  12.938  1.00  0.00     0.205 HD
ATOM     37  H8  UNL     1      23.873 -10.619  10.851  1.00  0.00     0.190 HD
ENDBRANCH  26  30
ENDBRANCH  24  26
ENDBRANCH   1  24
TORSDOF 13
ENDMDL
MODEL 3
REMARK VINA RESULT: -7.640440552      3.608      6.853
REMARK  13 active torsions:
REMARK  status: ('A' for Active; 'I' for Inactive)
REMARK    1  A    between atoms: C2_2  and  C4_4 
REMARK    2  A    between atoms: C4_4  and  C5_5 
REMARK    3  A    between atoms: C5_5  and  N1_6 
REMARK    4  A    between atoms: C5_5  and  C6_10 
REMARK       I    between atoms: C6_10  and  N2_12 
REMARK    5  A    between atoms: N2_12  and  C7_14 
REMARK    6  A    between atoms: C7_14  and  C8_15 
REMARK    7  A    between atoms: C7_14  and  C12_19 
REMARK    8  A    between atoms: C8_15  and  C9_16 
REMARK    9  A    between atoms: C12_19  and  C13_20 
REMARK   10  A    between atoms: C12_19  and  N3_24 
REMARK   11  A    between atoms: C13_20  and  C14_21 
REMARK   12  A    between atoms: N3_24  and  C17_26 
REMARK   13  A    between atoms: C17_26  and  C18_30 
ROOT
HETATM    1  C12 UNL     1      26.205 -14.591  10.866  1.00  0.00     0.133 C 
ENDROOT
BRANCH   1   2
HETATM    2  C7  UNL     1      27.524 -14.451  11.597  1.00  0.00     0.031 C 
BRANCH   2   3
HETATM    3  N2  UNL     1      28.276 -15.649  11.758  1.00  0.00    -0.327 N 
HETATM    4  C6  UNL     1      28.836 -16.080  12.999  1.00  0.00     0.252 C 
HETATM    5  O1  UNL     1      28.663 -15.368  14.015  1.00  0.00    -0.271 OA
ATOM      6  H2  UNL     1      28.424 -16.235  10.937  1.00  0.00     0.168 HD
BRANCH   4   7
HETATM    7  C5  UNL     1      29.610 -17.323  13.145  1.00  0.00     0.275 C 
BRANCH   7   8
HETATM    8  C4  UNL     1      28.698 -18.523  13.252  1.00  0.00     0.046 C 
BRANCH   8   9
HETATM    9  C2  UNL     1      29.298 -19.684  13.962  1.00  0.00    -0.020 C 
HETATM   10  C1  UNL     1      28.398 -20.889  13.678  1.00  0.00     0.009 C 
HETATM   11  C3  UNL     1      29.337 -19.545  15.466  1.00  0.00     0.009 C 
ENDBRANCH   8   9
ENDBRANCH   7   8
BRANCH   7  12
HETATM   12  N1  UNL     1      30.504 -17.542  12.031  1.00  0.00    -0.066 N 
ATOM     13  H13 UNL     1      31.380 -17.987  12.309  1.00  0.00     0.275 HD
ATOM     14  H12 UNL     1      30.175 -18.271  11.398  1.00  0.00     0.275 HD
ATOM     15  H11 UNL     1      30.648 -16.648  11.563  1.00  0.00     0.275 HD
ENDBRANCH   7  12
ENDBRANCH   4   7
ENDBRANCH   2   3
BRANCH   2  16
HETATM   16  C8  UNL     1      28.309 -13.246  11.306  1.00  0.00     0.004 C 
BRANCH  16  17
HETATM   17  C9  UNL     1      29.604 -13.301  10.624  1.00  0.00     0.002 C 
HETATM   18  C10 UNL     1      30.836 -13.264  11.489  1.00  0.00     0.013 C 
HETATM   19  C11 UNL     1      29.668 -12.009   9.774  1.00  0.00     0.013 C 
ENDBRANCH  16  17
ENDBRANCH   2  16
ENDBRANCH   1   2
BRANCH   1  20
HETATM   20  C13 UNL     1      26.478 -15.097   9.444  1.00  0.00     0.035 C 
BRANCH  20  21
HETATM   21  C14 UNL     1      26.431 -14.036   8.407  1.00  0.00    -0.020 C 
HETATM   22  C15 UNL     1      25.353 -14.396   7.396  1.00  0.00     0.009 C 
HETATM   23  C16 UNL     1      27.765 -14.107   7.655  1.00  0.00     0.009 C 
ENDBRANCH  20  21
ENDBRANCH   1  20
BRANCH   1  24
HETATM   24  N3  UNL     1      25.385 -13.430  10.858  1.00  0.00    -0.363 N 
ATOM     25  H3  UNL     1      25.882 -12.541  10.812  1.00  0.00     0.162 HD
BRANCH  24  26
HETATM   26  C17 UNL     1      23.977 -13.340  10.905  1.00  0.00     0.142 C 
HETATM   27  N4  UNL     1      23.211 -14.078  10.189  1.00  0.00    -0.383 N 
ATOM     28  H42 UNL     1      23.660 -14.745   9.561  1.00  0.00     0.157 HD
ATOM     29  H41 UNL     1      22.194 -14.013  10.223  1.00  0.00     0.157 HD
BRANCH  26  30
HETATM   30  C18 UNL     1      23.337 -12.389  11.801  1.00  0.00     0.178 A 
HETATM   31  N5  UNL     1      22.529 -12.589  12.855  1.00  0.00    -0.264 N 
HETATM   32  N6  UNL     1      22.203 -11.408  13.350  1.00  0.00    -0.005 NA
ATOM     33  H5  UNL     1      22.221 -13.493  13.211  1.00  0.00     0.186 HD
HETATM   34  N7  UNL     1      22.781 -10.433  12.640  1.00  0.00    -0.225 N 
HETATM   35  N8  UNL     1      23.458 -11.056  11.715  1.00  0.00    -0.269 N 
ATOM     36  H7  UNL     1      22.709  -9.427  12.790  1.00  0.00     0.205 HD
ATOM     37  H8  UNL     1      24.015 -10.582  11.004  1.00  0.00     0.190 HD
ENDBRANCH  26  30
ENDBRANCH  24  26
ENDBRANCH   1  24
TORSDOF 13
ENDMDL
MODEL 4
REMARK VINA RESULT: -7.597823276      2.971      6.306
REMARK  13 active torsions:
REMARK  status: ('A' for Active; 'I' for Inactive)
REMARK    1  A    between atoms: C2_2  and  C4_4 
REMARK    2  A    between atoms: C4_4  and  C5_5 
REMARK    3  A    between atoms: C5_5  and  N1_6 
REMARK    4  A    between atoms: C5_5  and  C6_10 
REMARK       I    between atoms: C6_10  and  N2_12 
REMARK    5  A    between atoms: N2_12  and  C7_14 
REMARK    6  A    between atoms: C7_14  and  C8_15 
REMARK    7  A    between atoms: C7_14  and  C12_19 
REMARK    8  A    between atoms: C8_15  and  C9_16 
REMARK    9  A    between atoms: C12_19  and  C13_20 
REMARK   10  A    between atoms: C12_19  and  N3_24 
REMARK   11  A    between atoms: C13_20  and  C14_21 
REMARK   12  A    between atoms: N3_24  and  C17_26 
REMARK   13  A    between atoms: C17_26  and  C18_30 
ROOT
HETATM    1  C12 UNL     1      25.359 -13.682   9.429  1.00  0.00     0.133 C 
ENDROOT
BRANCH   1   2
HETATM    2  C7  UNL     1      26.833 -13.870   9.724  1.00  0.00     0.031 C 
BRANCH   2   3
HETATM    3  N2  UNL     1      27.142 -14.698  10.840  1.00  0.00    -0.327 N 
HETATM    4  C6  UNL     1      27.723 -14.220  12.053  1.00  0.00     0.252 C 
HETATM    5  O1  UNL     1      27.982 -12.999  12.154  1.00  0.00    -0.271 OA
ATOM      6  H2  UNL     1      26.936 -15.694  10.767  1.00  0.00     0.168 HD
BRANCH   4   7
HETATM    7  C5  UNL     1      28.036 -15.093  13.196  1.00  0.00     0.275 C 
BRANCH   7   8
HETATM    8  C4  UNL     1      27.795 -16.545  12.852  1.00  0.00     0.046 C 
BRANCH   8   9
HETATM    9  C2  UNL     1      29.033 -17.364  12.761  1.00  0.00    -0.020 C 
HETATM   10  C1  UNL     1      29.169 -17.800  11.299  1.00  0.00     0.009 C 
HETATM   11  C3  UNL     1      28.999 -18.639  13.569  1.00  0.00     0.009 C 
ENDBRANCH   8   9
ENDBRANCH   7   8
BRANCH   7  12
HETATM   12  N1  UNL     1      29.408 -14.959  13.626  1.00  0.00    -0.066 N 
ATOM     13  H13 UNL     1      29.818 -15.845  13.922  1.00  0.00     0.275 HD
ATOM     14  H12 UNL     1      30.047 -14.765  12.853  1.00  0.00     0.275 HD
ATOM     15  H11 UNL     1      29.442 -14.247  14.354  1.00  0.00     0.275 HD
ENDBRANCH   7  12
ENDBRANCH   4   7
ENDBRANCH   2   3
BRANCH   2  16
HETATM   16  C8  UNL     1      27.720 -14.013   8.565  1.00  0.00     0.004 C 
BRANCH  16  17
HETATM   17  C9  UNL     1      29.169 -13.819   8.657  1.00  0.00     0.002 C 
HETATM   18  C10 UNL     1      29.651 -12.454   9.070  1.00  0.00     0.013 C 
HETATM   19  C11 UNL     1      29.695 -14.015   7.215  1.00  0.00     0.013 C 
ENDBRANCH  16  17
ENDBRANCH   2  16
ENDBRANCH   1   2
BRANCH   1  20
HETATM   20  C13 UNL     1      24.549 -14.087  10.666  1.00  0.00     0.035 C 
BRANCH  20  21
HETATM   21  C14 UNL     1      23.416 -13.179  10.970  1.00  0.00    -0.020 C 
HETATM   22  C15 UNL     1      23.978 -11.840  11.423  1.00  0.00     0.009 C 
HETATM   23  C16 UNL     1      22.696 -13.775  12.185  1.00  0.00     0.009 C 
ENDBRANCH  20  21
ENDBRANCH   1  20
BRANCH   1  24
HETATM   24  N3  UNL     1      24.884 -14.334   8.258  1.00  0.00    -0.363 N 
ATOM     25  H3  UNL     1      25.364 -15.198   8.009  1.00  0.00     0.162 HD
BRANCH  24  26
HETATM   26  C17 UNL     1      23.838 -13.947   7.393  1.00  0.00     0.142 C 
HETATM   27  N4  UNL     1      23.096 -12.925   7.616  1.00  0.00    -0.383 N 
ATOM     28  H42 UNL     1      23.283 -12.389   8.463  1.00  0.00     0.157 HD
ATOM     29  H41 UNL     1      22.340 -12.646   6.991  1.00  0.00     0.157 HD
BRANCH  26  30
HETATM   30  C18 UNL     1      23.571 -14.712   6.185  1.00  0.00     0.178 A 
HETATM   31  N5  UNL     1      24.056 -15.896   5.775  1.00  0.00    -0.264 N 
HETATM   32  N6  UNL     1      23.511 -16.178   4.604  1.00  0.00    -0.005 NA
ATOM     33  H5  UNL     1      24.726 -16.476   6.279  1.00  0.00     0.186 HD
HETATM   34  N7  UNL     1      22.678 -15.200   4.235  1.00  0.00    -0.225 N 
HETATM   35  N8  UNL     1      22.735 -14.332   5.207  1.00  0.00    -0.269 N 
ATOM     36  H7  UNL     1      22.121 -15.146   3.382  1.00  0.00     0.205 HD
ATOM     37  H8  UNL     1      22.204 -13.461   5.221  1.00  0.00     0.190 HD
ENDBRANCH  26  30
ENDBRANCH  24  26
ENDBRANCH   1  24
TORSDOF 13
ENDMDL
MODEL 5
REMARK VINA RESULT: -7.381018165      2.504      5.899
REMARK  13 active torsions:
REMARK  status: ('A' for Active; 'I' for Inactive)
REMARK    1  A    between atoms: C2_2  and  C4_4 
REMARK    2  A    between atoms: C4_4  and  C5_5 
REMARK    3  A    between atoms: C5_5  and  N1_6 
REMARK    4  A    between atoms: C5_5  and  C6_10 
REMARK       I    between atoms: C6_10  and  N2_12 
REMARK    5  A    between atoms: N2_12  and  C7_14 
REMARK    6  A    between atoms: C7_14  and  C8_15 
REMARK    7  A    between atoms: C7_14  and  C12_19 
REMARK    8  A    between atoms: C8_15  and  C9_16 
REMARK    9  A    between atoms: C12_19  and  C13_20 
REMARK   10  A    between atoms: C12_19  and  N3_24 
REMARK   11  A    between atoms: C13_20  and  C14_21 
REMARK   12  A    between atoms: N3_24  and  C17_26 
REMARK   13  A    between atoms: C17_26  and  C18_30 
ROOT
HETATM    1  C12 UNL     1      26.524 -14.884   8.911  1.00  0.00     0.133 C 
ENDROOT
BRANCH   1   2
HETATM    2  C7  UNL     1      27.965 -14.456   9.097  1.00  0.00     0.031 C 
BRANCH   2   3
HETATM    3  N2  UNL     1      28.653 -15.049  10.192  1.00  0.00    -0.327 N 
HETATM    4  C6  UNL     1      28.896 -14.390  11.435  1.00  0.00     0.252 C 
HETATM    5  O1  UNL     1      28.484 -13.216  11.582  1.00  0.00    -0.271 OA
ATOM      6  H2  UNL     1      28.994 -16.004  10.082  1.00  0.00     0.168 HD
BRANCH   4   7
HETATM    7  C5  UNL     1      29.611 -15.022  12.556  1.00  0.00     0.275 C 
BRANCH   7   8
HETATM    8  C4  UNL     1      29.994 -16.445  12.223  1.00  0.00     0.046 C 
BRANCH   8   9
HETATM    9  C2  UNL     1      29.743 -17.417  13.320  1.00  0.00    -0.020 C 
HETATM   10  C1  UNL     1      28.757 -18.454  12.776  1.00  0.00     0.009 C 
HETATM   11  C3  UNL     1      29.082 -16.823  14.542  1.00  0.00     0.009 C 
ENDBRANCH   8   9
ENDBRANCH   7   8
BRANCH   7  12
HETATM   12  N1  UNL     1      30.816 -14.307  12.907  1.00  0.00    -0.066 N 
ATOM     13  H13 UNL     1      30.653 -13.312  13.065  1.00  0.00     0.275 HD
ATOM     14  H12 UNL     1      31.155 -14.540  13.840  1.00  0.00     0.275 HD
ATOM     15  H11 UNL     1      31.508 -14.482  12.180  1.00  0.00     0.275 HD
ENDBRANCH   7  12
ENDBRANCH   4   7
ENDBRANCH   2   3
BRANCH   2  16
HETATM   16  C8  UNL     1      28.756 -14.275   7.875  1.00  0.00     0.004 C 
BRANCH  16  17
HETATM   17  C9  UNL     1      30.082 -13.651   7.885  1.00  0.00     0.002 C 
HETATM   18  C10 UNL     1      30.149 -12.190   8.241  1.00  0.00     0.013 C 
HETATM   19  C11 UNL     1      30.578 -13.734   6.421  1.00  0.00     0.013 C 
ENDBRANCH  16  17
ENDBRANCH   2  16
ENDBRANCH   1   2
BRANCH   1  20
HETATM   20  C13 UNL     1      25.896 -14.042   7.793  1.00  0.00     0.035 C 
BRANCH  20  21
HETATM   21  C14 UNL     1      24.499 -14.420   7.465  1.00  0.00    -0.020 C 
HETATM   22  C15 UNL     1      24.505 -15.205   6.162  1.00  0.00     0.009 C 
HETATM   23  C16 UNL     1      23.753 -13.113   7.174  1.00  0.00     0.009 C 
ENDBRANCH  20  21
ENDBRANCH   1  20
BRANCH   1  24
HETATM   24  N3  UNL     1      25.725 -14.867  10.088  1.00  0.00    -0.363 N 
ATOM     25  H3  UNL     1      25.539 -15.778  10.507  1.00  0.00     0.162 HD
BRANCH  24  26
HETATM   26  C17 UNL     1      25.156 -13.761  10.755  1.00  0.00     0.142 C 
HETATM   27  N4  UNL     1      25.803 -12.675  10.974  1.00  0.00    -0.383 N 
ATOM     28  H42 UNL     1      26.769 -12.635  10.650  1.00  0.00     0.157 HD
ATOM     29  H41 UNL     1      25.391 -11.876  11.456  1.00  0.00     0.157 HD
BRANCH  26  30
HETATM   30  C18 UNL     1      23.777 -13.819  11.215  1.00  0.00     0.178 A 
HETATM   31  N5  UNL     1      23.263 -13.694  12.450  1.00  0.00    -0.264 N 
HETATM   32  N6  UNL     1      21.950 -13.821  12.360  1.00  0.00    -0.005 NA
ATOM     33  H5  UNL     1      23.792 -13.530  13.306  1.00  0.00     0.186 HD
HETATM   34  N7  UNL     1      21.591 -14.028  11.089  1.00  0.00    -0.225 N 
HETATM   35  N8  UNL     1      22.714 -14.021  10.424  1.00  0.00    -0.269 N 
ATOM     36  H7  UNL     1      20.649 -14.161  10.722  1.00  0.00     0.205 HD
ATOM     37  H8  UNL     1      22.775 -14.155   9.415  1.00  0.00     0.190 HD
ENDBRANCH  26  30
ENDBRANCH  24  26
ENDBRANCH   1  24
TORSDOF 13
ENDMDL
