MODEL 1
REMARK VINA RESULT: -8.389539623      0.000      0.000
REMARK  6 active torsions:
REMARK  status: ('A' for Active; 'I' for Inactive)
REMARK    1  A    between atoms: C2_2  and  C3_3 
REMARK    2  A    between atoms: C3_3  and  N1_4 
REMARK    3  A    between atoms: N1_4  and  C4_6 
REMARK    4  A    between atoms: C5_9  and  N3_10 
REMARK    5  A    between atoms: N4_13  and  C8_14 
REMARK    6  A    between atoms: C8_14  and  C9_15 
ROOT
HETATM    1  C4  UNL     1      -7.838  -7.860  -8.650  1.00  0.00     0.708 A 
HETATM    2  N2  UNL     1      -6.523  -7.565  -8.820  1.00  0.00    -0.020 N 
ATOM      3  H2  UNL     1      -5.960  -7.842  -9.624  1.00  0.00     0.203 HD
HETATM    4  C5  UNL     1      -6.072  -6.851  -7.769  1.00  0.00     0.710 A 
HETATM    5  N5  UNL     1      -7.154  -6.730  -6.968  1.00  0.00    -0.117 N 
ATOM      6  H5  UNL     1      -7.156  -6.238  -6.074  1.00  0.00     0.206 HD
HETATM    7  N6  UNL     1      -8.209  -7.331  -7.491  1.00  0.00    -0.117 N 
ATOM      8  H6  UNL     1      -9.140  -7.380  -7.078  1.00  0.00     0.206 HD
ENDROOT
BRANCH   4   9
HETATM    9  N3  UNL     1      -4.755  -6.337  -7.540  1.00  0.00    -0.213 N 
HETATM   10  C6  UNL     1      -3.876  -6.235  -8.658  1.00  0.00     0.171 C 
HETATM   11  C7  UNL     1      -2.468  -5.882  -8.329  1.00  0.00     0.292 C 
HETATM   12  N4  UNL     1      -2.232  -5.504  -6.984  1.00  0.00     0.091 N 
HETATM   13  C11 UNL     1      -2.926  -6.306  -6.009  1.00  0.00     0.292 C 
HETATM   14  C12 UNL     1      -4.410  -5.957  -6.185  1.00  0.00     0.171 C 
BRANCH  12  15
HETATM   15  C8  UNL     1      -0.858  -5.270  -6.712  1.00  0.00     0.272 C 
BRANCH  15  16
HETATM   16  C9  UNL     1      -0.315  -5.898  -5.474  1.00  0.00     0.026 C 
HETATM   17  C10 UNL     1       0.099  -4.770  -4.522  1.00  0.00     0.007 C 
ENDBRANCH  15  16
ENDBRANCH  12  15
ENDBRANCH   4   9
BRANCH   1  18
HETATM   18  N1  UNL     1      -8.571  -8.535  -9.482  1.00  0.00    -0.221 N 
ATOM     19  H1  UNL     1      -8.139  -8.937 -10.313  1.00  0.00     0.178 HD
BRANCH  18  20
HETATM   20  C3  UNL     1      -9.967  -8.726  -9.260  1.00  0.00     0.164 C 
BRANCH  20  21
HETATM   21  C2  UNL     1     -10.711  -9.128 -10.492  1.00  0.00    -0.017 C 
HETATM   22  C1  UNL     1     -11.497  -8.265 -11.097  1.00  0.00     0.008 C 
ENDBRANCH  20  21
ENDBRANCH  18  20
ENDBRANCH   1  18
TORSDOF 6
ENDMDL
MODEL 2
REMARK VINA RESULT: -8.019270880      0.661      1.142
REMARK  6 active torsions:
REMARK  status: ('A' for Active; 'I' for Inactive)
REMARK    1  A    between atoms: C2_2  and  C3_3 
REMARK    2  A    between atoms: C3_3  and  N1_4 
REMARK    3  A    between atoms: N1_4  and  C4_6 
REMARK    4  A    between atoms: C5_9  and  N3_10 
REMARK    5  A    between atoms: N4_13  and  C8_14 
REMARK    6  A    between atoms: C8_14  and  C9_15 
ROOT
HETATM    1  C4  UNL     1      -8.022  -7.447  -8.188  1.00  0.00     0.708 A 
HETATM    2  N2  UNL     1      -7.008  -6.977  -7.417  1.00  0.00    -0.020 N 
ATOM      3  H2  UNL     1      -7.072  -6.790  -6.416  1.00  0.00     0.203 HD
HETATM    4  C5  UNL     1      -5.904  -6.794  -8.168  1.00  0.00     0.710 A 
HETATM    5  N5  UNL     1      -6.288  -7.166  -9.410  1.00  0.00    -0.117 N 
ATOM      6  H5  UNL     1      -5.682  -7.148 -10.229  1.00  0.00     0.206 HD
HETATM    7  N6  UNL     1      -7.551  -7.556  -9.425  1.00  0.00    -0.117 N 
ATOM      8  H6  UNL     1      -8.070  -7.883 -10.239  1.00  0.00     0.206 HD
ENDROOT
BRANCH   4   9
HETATM    9  N3  UNL     1      -4.618  -6.313  -7.761  1.00  0.00    -0.213 N 
HETATM   10  C6  UNL     1      -3.619  -6.149  -8.764  1.00  0.00     0.171 C 
HETATM   11  C7  UNL     1      -2.254  -5.837  -8.258  1.00  0.00     0.292 C 
HETATM   12  N4  UNL     1      -2.168  -5.552  -6.873  1.00  0.00     0.091 N 
HETATM   13  C11 UNL     1      -2.971  -6.407  -6.037  1.00  0.00     0.292 C 
HETATM   14  C12 UNL     1      -4.425  -6.028  -6.353  1.00  0.00     0.171 C 
BRANCH  12  15
HETATM   15  C8  UNL     1      -0.832  -5.353  -6.435  1.00  0.00     0.272 C 
BRANCH  15  16
HETATM   16  C9  UNL     1      -0.424  -6.096  -5.208  1.00  0.00     0.026 C 
HETATM   17  C10 UNL     1       0.121  -5.074  -4.204  1.00  0.00     0.007 C 
ENDBRANCH  15  16
ENDBRANCH  12  15
ENDBRANCH   4   9
BRANCH   1  18
HETATM   18  N1  UNL     1      -9.217  -7.729  -7.770  1.00  0.00    -0.221 N 
ATOM     19  H1  UNL     1      -9.682  -7.092  -7.123  1.00  0.00     0.178 HD
BRANCH  18  20
HETATM   20  C3  UNL     1      -9.897  -8.909  -8.193  1.00  0.00     0.164 C 
BRANCH  20  21
HETATM   21  C2  UNL     1     -10.912  -8.655  -9.261  1.00  0.00    -0.017 C 
HETATM   22  C1  UNL     1     -10.638  -8.950 -10.513  1.00  0.00     0.008 C 
ENDBRANCH  20  21
ENDBRANCH  18  20
ENDBRANCH   1  18
TORSDOF 6
ENDMDL
MODEL 3
REMARK VINA RESULT: -7.987507925      0.772      1.634
REMARK  6 active torsions:
REMARK  status: ('A' for Active; 'I' for Inactive)
REMARK    1  A    between atoms: C2_2  and  C3_3 
REMARK    2  A    between atoms: C3_3  and  N1_4 
REMARK    3  A    between atoms: N1_4  and  C4_6 
REMARK    4  A    between atoms: C5_9  and  N3_10 
REMARK    5  A    between atoms: N4_13  and  C8_14 
REMARK    6  A    between atoms: C8_14  and  C9_15 
ROOT
HETATM    1  C4  UNL     1      -8.134  -7.354  -8.140  1.00  0.00     0.708 A 
HETATM    2  N2  UNL     1      -7.115  -7.077  -7.287  1.00  0.00    -0.020 N 
ATOM      3  H2  UNL     1      -7.172  -7.129  -6.270  1.00  0.00     0.203 HD
HETATM    4  C5  UNL     1      -6.015  -6.723  -7.982  1.00  0.00     0.710 A 
HETATM    5  N5  UNL     1      -6.409  -6.796  -9.274  1.00  0.00    -0.117 N 
ATOM      6  H5  UNL     1      -5.807  -6.586 -10.070  1.00  0.00     0.206 HD
HETATM    7  N6  UNL     1      -7.672  -7.171  -9.371  1.00  0.00    -0.117 N 
ATOM      8  H6  UNL     1      -8.197  -7.298 -10.236  1.00  0.00     0.206 HD
ENDROOT
BRANCH   4   9
HETATM    9  N3  UNL     1      -4.726  -6.351  -7.482  1.00  0.00    -0.213 N 
HETATM   10  C6  UNL     1      -4.626  -5.976  -6.111  1.00  0.00     0.171 C 
HETATM   11  C7  UNL     1      -3.310  -5.415  -5.699  1.00  0.00     0.292 C 
HETATM   12  N4  UNL     1      -2.278  -5.511  -6.665  1.00  0.00     0.091 N 
HETATM   13  C11 UNL     1      -2.694  -5.220  -8.014  1.00  0.00     0.292 C 
HETATM   14  C12 UNL     1      -3.613  -6.384  -8.410  1.00  0.00     0.171 C 
BRANCH  12  15
HETATM   15  C8  UNL     1      -1.076  -4.877  -6.250  1.00  0.00     0.272 C 
BRANCH  15  16
HETATM   16  C9  UNL     1      -0.230  -5.638  -5.287  1.00  0.00     0.026 C 
HETATM   17  C10 UNL     1       0.100  -4.703  -4.117  1.00  0.00     0.007 C 
ENDBRANCH  15  16
ENDBRANCH  12  15
ENDBRANCH   4   9
BRANCH   1  18
HETATM   18  N1  UNL     1      -9.328  -7.725  -7.791  1.00  0.00    -0.221 N 
ATOM     19  H1  UNL     1      -9.858  -7.148  -7.139  1.00  0.00     0.178 HD
BRANCH  18  20
HETATM   20  C3  UNL     1      -9.915  -8.922  -8.298  1.00  0.00     0.164 C 
BRANCH  20  21
HETATM   21  C2  UNL     1     -10.927  -8.675  -9.369  1.00  0.00    -0.017 C 
HETATM   22  C1  UNL     1     -10.598  -8.830 -10.633  1.00  0.00     0.008 C 
ENDBRANCH  20  21
ENDBRANCH  18  20
ENDBRANCH   1  18
TORSDOF 6
ENDMDL
MODEL 4
REMARK VINA RESULT: -7.981031882      1.031      1.475
REMARK  6 active torsions:
REMARK  status: ('A' for Active; 'I' for Inactive)
REMARK    1  A    between atoms: C2_2  and  C3_3 
REMARK    2  A    between atoms: C3_3  and  N1_4 
REMARK    3  A    between atoms: N1_4  and  C4_6 
REMARK    4  A    between atoms: C5_9  and  N3_10 
REMARK    5  A    between atoms: N4_13  and  C8_14 
REMARK    6  A    between atoms: C8_14  and  C9_15 
ROOT
HETATM    1  C4  UNL     1      -7.218  -7.969  -9.575  1.00  0.00     0.708 A 
HETATM    2  N2  UNL     1      -6.545  -7.569  -8.466  1.00  0.00    -0.020 N 
ATOM      3  H2  UNL     1      -6.800  -7.807  -7.508  1.00  0.00     0.203 HD
HETATM    4  C5  UNL     1      -5.488  -6.809  -8.818  1.00  0.00     0.710 A 
HETATM    5  N5  UNL     1      -5.551  -6.767 -10.167  1.00  0.00    -0.117 N 
ATOM      6  H5  UNL     1      -4.889  -6.266 -10.758  1.00  0.00     0.206 HD
HETATM    7  N6  UNL     1      -6.583  -7.457 -10.622  1.00  0.00    -0.117 N 
ATOM      8  H6  UNL     1      -6.843  -7.576 -11.600  1.00  0.00     0.206 HD
ENDROOT
BRANCH   4   9
HETATM    9  N3  UNL     1      -4.518  -6.184  -7.969  1.00  0.00    -0.213 N 
HETATM   10  C6  UNL     1      -3.320  -5.701  -8.571  1.00  0.00     0.171 C 
HETATM   11  C7  UNL     1      -2.271  -5.240  -7.620  1.00  0.00     0.292 C 
HETATM   12  N4  UNL     1      -2.672  -5.159  -6.263  1.00  0.00     0.091 N 
HETATM   13  C11 UNL     1      -3.492  -6.257  -5.817  1.00  0.00     0.292 C 
HETATM   14  C12 UNL     1      -4.826  -6.088  -6.557  1.00  0.00     0.171 C 
BRANCH  12  15
HETATM   15  C8  UNL     1      -1.605  -4.804  -5.395  1.00  0.00     0.272 C 
BRANCH  15  16
HETATM   16  C9  UNL     1      -0.348  -5.591  -5.542  1.00  0.00     0.026 C 
HETATM   17  C10 UNL     1      -0.168  -6.424  -4.267  1.00  0.00     0.007 C 
ENDBRANCH  15  16
ENDBRANCH  12  15
ENDBRANCH   4   9
BRANCH   1  18
HETATM   18  N1  UNL     1      -8.282  -8.712  -9.581  1.00  0.00    -0.221 N 
ATOM     19  H1  UNL     1      -8.267  -9.599 -10.083  1.00  0.00     0.178 HD
BRANCH  18  20
HETATM   20  C3  UNL     1      -9.473  -8.316  -8.903  1.00  0.00     0.164 C 
BRANCH  20  21
HETATM   21  C2  UNL     1     -10.720  -8.645  -9.658  1.00  0.00    -0.017 C 
HETATM   22  C1  UNL     1     -10.739  -8.551 -10.970  1.00  0.00     0.008 C 
ENDBRANCH  20  21
ENDBRANCH  18  20
ENDBRANCH   1  18
TORSDOF 6
ENDMDL
MODEL 5
REMARK VINA RESULT: -7.869030109      1.286      2.229
REMARK  6 active torsions:
REMARK  status: ('A' for Active; 'I' for Inactive)
REMARK    1  A    between atoms: C2_2  and  C3_3 
REMARK    2  A    between atoms: C3_3  and  N1_4 
REMARK    3  A    between atoms: N1_4  and  C4_6 
REMARK    4  A    between atoms: C5_9  and  N3_10 
REMARK    5  A    between atoms: N4_13  and  C8_14 
REMARK    6  A    between atoms: C8_14  and  C9_15 
ROOT
HETATM    1  C4  UNL     1      -7.547  -8.035  -9.753  1.00  0.00     0.708 A 
HETATM    2  N2  UNL     1      -6.811  -7.756  -8.646  1.00  0.00    -0.020 N 
ATOM      3  H2  UNL     1      -7.053  -8.035  -7.696  1.00  0.00     0.203 HD
HETATM    4  C5  UNL     1      -5.711  -7.056  -8.989  1.00  0.00     0.710 A 
HETATM    5  N5  UNL     1      -5.813  -6.924 -10.331  1.00  0.00    -0.117 N 
ATOM      6  H5  UNL     1      -5.133  -6.437 -10.914  1.00  0.00     0.206 HD
HETATM    7  N6  UNL     1      -6.907  -7.507 -10.789  1.00  0.00    -0.117 N 
ATOM      8  H6  UNL     1      -7.206  -7.545 -11.763  1.00  0.00     0.206 HD
ENDROOT
BRANCH   4   9
HETATM    9  N3  UNL     1      -4.671  -6.557  -8.140  1.00  0.00    -0.213 N 
HETATM   10  C6  UNL     1      -4.998  -6.272  -6.783  1.00  0.00     0.171 C 
HETATM   11  C7  UNL     1      -3.936  -5.577  -6.005  1.00  0.00     0.292 C 
HETATM   12  N4  UNL     1      -2.680  -5.468  -6.651  1.00  0.00     0.091 N 
HETATM   13  C11 UNL     1      -2.756  -5.137  -8.052  1.00  0.00     0.292 C 
HETATM   14  C12 UNL     1      -3.357  -6.378  -8.725  1.00  0.00     0.171 C 
BRANCH  12  15
HETATM   15  C8  UNL     1      -1.738  -4.716  -5.899  1.00  0.00     0.272 C 
BRANCH  15  16
HETATM   16  C9  UNL     1      -0.351  -5.259  -5.850  1.00  0.00     0.026 C 
HETATM   17  C10 UNL     1      -0.250  -6.169  -4.621  1.00  0.00     0.007 C 
ENDBRANCH  15  16
ENDBRANCH  12  15
ENDBRANCH   4   9
BRANCH   1  18
HETATM   18  N1  UNL     1      -8.663  -8.697  -9.766  1.00  0.00    -0.221 N 
ATOM     19  H1  UNL     1      -8.747  -9.520 -10.362  1.00  0.00     0.178 HD
BRANCH  18  20
HETATM   20  C3  UNL     1      -9.776  -8.300  -8.966  1.00  0.00     0.164 C 
BRANCH  20  21
HETATM   21  C2  UNL     1     -10.193  -9.340  -7.977  1.00  0.00    -0.017 C 
HETATM   22  C1  UNL     1      -9.923  -9.179  -6.700  1.00  0.00     0.008 C 
ENDBRANCH  20  21
ENDBRANCH  18  20
ENDBRANCH   1  18
TORSDOF 6
ENDMDL
