MODEL 1
REMARK VINA RESULT: -7.289079979      0.000      0.000
REMARK  6 active torsions:
REMARK  status: ('A' for Active; 'I' for Inactive)
REMARK    1  A    between atoms: O1_1  and  C1_3 
REMARK    2  A    between atoms: N1_10  and  C8_11 
REMARK    3  A    between atoms: C8_11  and  C9_12 
REMARK    4  A    between atoms: C9_12  and  N2_13 
REMARK    5  A    between atoms: N2_13  and  C10_15 
REMARK    6  A    between atoms: C10_15  and  C11_16 
ROOT
HETATM    1  C1  UNL     1      -1.262  -5.680  -7.544  1.00  0.00     0.126 A 
HETATM    2  C2  UNL     1      -1.991  -5.768  -8.843  1.00  0.00     0.057 A 
HETATM    3  C3  UNL     1      -3.252  -5.281  -8.186  1.00  0.00     0.092 A 
HETATM    4  C4  UNL     1      -2.530  -5.270  -6.862  1.00  0.00     0.037 A 
HETATM    5  C5  UNL     1      -3.096  -6.347  -5.931  1.00  0.00     0.011 C 
HETATM    6  C6  UNL     1      -4.575  -6.083  -5.832  1.00  0.00     0.020 C 
HETATM    7  C7  UNL     1      -5.249  -6.204  -7.174  1.00  0.00     0.122 C 
HETATM    8  N1  UNL     1      -4.294  -6.230  -8.226  1.00  0.00    -0.387 N 
ENDROOT
BRANCH   8   9
HETATM    9  C8  UNL     1      -4.617  -6.860  -9.410  1.00  0.00     0.077 C 
BRANCH   9  10
HETATM   10  C9  UNL     1      -5.990  -6.796  -9.971  1.00  0.00     0.158 C 
BRANCH  10  11
HETATM   11  N2  UNL     1      -6.532  -8.104 -10.219  1.00  0.00    -0.414 N 
ATOM     12  H2  UNL     1      -6.296  -8.643 -11.052  1.00  0.00     0.153 HD
BRANCH  11  13
HETATM   13  C10 UNL     1      -7.420  -8.597  -9.220  1.00  0.00     0.145 C 
BRANCH  13  14
HETATM   14  C11 UNL     1      -8.578  -7.744  -8.866  1.00  0.00     0.138 C 
HETATM   15  C12 UNL     1      -9.844  -8.282  -9.495  1.00  0.00     0.035 C 
HETATM   16  C13 UNL     1     -10.343  -9.323  -8.525  1.00  0.00     0.029 C 
HETATM   17  C14 UNL     1      -9.556  -8.964  -7.274  1.00  0.00     0.168 C 
HETATM   18  O2  UNL     1      -8.890  -7.789  -7.505  1.00  0.00    -0.384 OA
ENDBRANCH  13  14
ENDBRANCH  11  13
ENDBRANCH  10  11
ENDBRANCH   9  10
ENDBRANCH   8   9
BRANCH   1  19
HETATM   19  O1  UNL     1      -0.267  -4.670  -7.487  1.00  0.00    -0.395 OA
ATOM     20  H1  UNL     1       0.480  -4.814  -8.057  1.00  0.00     0.210 HD
ENDBRANCH   1  19
TORSDOF 6
ENDMDL
MODEL 2
REMARK VINA RESULT: -7.090780266      1.744      7.293
REMARK  6 active torsions:
REMARK  status: ('A' for Active; 'I' for Inactive)
REMARK    1  A    between atoms: O1_1  and  C1_3 
REMARK    2  A    between atoms: N1_10  and  C8_11 
REMARK    3  A    between atoms: C8_11  and  C9_12 
REMARK    4  A    between atoms: C9_12  and  N2_13 
REMARK    5  A    between atoms: N2_13  and  C10_15 
REMARK    6  A    between atoms: C10_15  and  C11_16 
ROOT
HETATM    1  C1  UNL     1      -9.294  -8.851  -8.359  1.00  0.00     0.126 A 
HETATM    2  C2  UNL     1      -8.743  -7.856  -7.393  1.00  0.00     0.057 A 
HETATM    3  C3  UNL     1      -8.139  -7.070  -8.524  1.00  0.00     0.092 A 
HETATM    4  C4  UNL     1      -8.632  -8.122  -9.486  1.00  0.00     0.037 A 
HETATM    5  C5  UNL     1      -7.454  -8.887 -10.097  1.00  0.00     0.011 C 
HETATM    6  C6  UNL     1      -6.556  -7.850 -10.719  1.00  0.00     0.020 C 
HETATM    7  C7  UNL     1      -6.023  -6.890  -9.686  1.00  0.00     0.122 C 
HETATM    8  N1  UNL     1      -6.732  -7.011  -8.461  1.00  0.00    -0.387 N 
ENDROOT
BRANCH   8   9
HETATM    9  C8  UNL     1      -6.101  -6.665  -7.283  1.00  0.00     0.077 C 
BRANCH   9  10
HETATM   10  C9  UNL     1      -4.667  -6.280  -7.259  1.00  0.00     0.158 C 
BRANCH  10  11
HETATM   11  N2  UNL     1      -4.237  -5.894  -5.943  1.00  0.00    -0.414 N 
ATOM     12  H2  UNL     1      -4.814  -6.041  -5.115  1.00  0.00     0.153 HD
BRANCH  11  13
HETATM   13  C10 UNL     1      -2.948  -5.292  -5.875  1.00  0.00     0.145 C 
BRANCH  13  14
HETATM   14  C11 UNL     1      -1.806  -6.080  -6.395  1.00  0.00     0.138 C 
HETATM   15  C12 UNL     1      -0.567  -5.217  -6.492  1.00  0.00     0.035 C 
HETATM   16  C13 UNL     1       0.049  -5.276  -5.116  1.00  0.00     0.029 C 
HETATM   17  C14 UNL     1      -0.658  -6.485  -4.525  1.00  0.00     0.168 C 
HETATM   18  O2  UNL     1      -1.392  -7.083  -5.515  1.00  0.00    -0.384 OA
ENDBRANCH  13  14
ENDBRANCH  11  13
ENDBRANCH  10  11
ENDBRANCH   9  10
ENDBRANCH   8   9
BRANCH   1  19
HETATM   19  O1  UNL     1     -10.709  -8.850  -8.472  1.00  0.00    -0.395 OA
ATOM     20  H1  UNL     1     -11.080  -9.644  -8.840  1.00  0.00     0.210 HD
ENDBRANCH   1  19
TORSDOF 6
ENDMDL
MODEL 3
REMARK VINA RESULT: -6.997495515      1.964      3.086
REMARK  6 active torsions:
REMARK  status: ('A' for Active; 'I' for Inactive)
REMARK    1  A    between atoms: O1_1  and  C1_3 
REMARK    2  A    between atoms: N1_10  and  C8_11 
REMARK    3  A    between atoms: C8_11  and  C9_12 
REMARK    4  A    between atoms: C9_12  and  N2_13 
REMARK    5  A    between atoms: N2_13  and  C10_15 
REMARK    6  A    between atoms: C10_15  and  C11_16 
ROOT
HETATM    1  C1  UNL     1      -0.980  -6.257  -4.214  1.00  0.00     0.126 A 
HETATM    2  C2  UNL     1      -2.373  -6.763  -4.391  1.00  0.00     0.057 A 
HETATM    3  C3  UNL     1      -2.129  -6.967  -5.860  1.00  0.00     0.092 A 
HETATM    4  C4  UNL     1      -0.750  -6.381  -5.688  1.00  0.00     0.037 A 
HETATM    5  C5  UNL     1      -0.646  -5.031  -6.403  1.00  0.00     0.011 C 
HETATM    6  C6  UNL     1      -1.039  -5.281  -7.835  1.00  0.00     0.020 C 
HETATM    7  C7  UNL     1      -2.459  -5.774  -7.941  1.00  0.00     0.122 C 
HETATM    8  N1  UNL     1      -2.960  -6.167  -6.670  1.00  0.00    -0.387 N 
ENDROOT
BRANCH   8   9
HETATM    9  C8  UNL     1      -4.320  -6.119  -6.441  1.00  0.00     0.077 C 
BRANCH   9  10
HETATM   10  C9  UNL     1      -5.296  -6.429  -7.516  1.00  0.00     0.158 C 
BRANCH  10  11
HETATM   11  N2  UNL     1      -6.610  -6.688  -6.991  1.00  0.00    -0.414 N 
ATOM     12  H2  UNL     1      -6.807  -6.689  -5.990  1.00  0.00     0.153 HD
BRANCH  11  13
HETATM   13  C10 UNL     1      -7.617  -6.942  -7.966  1.00  0.00     0.145 C 
BRANCH  13  14
HETATM   14  C11 UNL     1      -7.918  -8.360  -8.273  1.00  0.00     0.138 C 
HETATM   15  C12 UNL     1      -9.263  -8.481  -8.952  1.00  0.00     0.035 C 
HETATM   16  C13 UNL     1      -8.976  -8.250 -10.415  1.00  0.00     0.029 C 
HETATM   17  C14 UNL     1      -7.469  -8.446 -10.456  1.00  0.00     0.168 C 
HETATM   18  O2  UNL     1      -7.059  -8.903  -9.232  1.00  0.00    -0.384 OA
ENDBRANCH  13  14
ENDBRANCH  11  13
ENDBRANCH  10  11
ENDBRANCH   9  10
ENDBRANCH   8   9
BRANCH   1  19
HETATM   19  O1  UNL     1      -0.130  -7.107  -3.461  1.00  0.00    -0.395 OA
ATOM     20  H1  UNL     1       0.139  -6.758  -2.619  1.00  0.00     0.210 HD
ENDBRANCH   1  19
TORSDOF 6
ENDMDL
MODEL 4
REMARK VINA RESULT: -6.913172620      2.089      7.435
REMARK  6 active torsions:
REMARK  status: ('A' for Active; 'I' for Inactive)
REMARK    1  A    between atoms: O1_1  and  C1_3 
REMARK    2  A    between atoms: N1_10  and  C8_11 
REMARK    3  A    between atoms: C8_11  and  C9_12 
REMARK    4  A    between atoms: C9_12  and  N2_13 
REMARK    5  A    between atoms: N2_13  and  C10_15 
REMARK    6  A    between atoms: C10_15  and  C11_16 
ROOT
HETATM    1  C1  UNL     1      -9.277  -8.851  -8.301  1.00  0.00     0.126 A 
HETATM    2  C2  UNL     1      -8.698  -7.859  -7.348  1.00  0.00     0.057 A 
HETATM    3  C3  UNL     1      -8.129  -7.068  -8.492  1.00  0.00     0.092 A 
HETATM    4  C4  UNL     1      -8.649  -8.116  -9.444  1.00  0.00     0.037 A 
HETATM    5  C5  UNL     1      -7.488  -8.877 -10.092  1.00  0.00     0.011 C 
HETATM    6  C6  UNL     1      -6.610  -7.837 -10.736  1.00  0.00     0.020 C 
HETATM    7  C7  UNL     1      -6.048  -6.881  -9.715  1.00  0.00     0.122 C 
HETATM    8  N1  UNL     1      -6.721  -7.008  -8.470  1.00  0.00    -0.387 N 
ENDROOT
BRANCH   8   9
HETATM    9  C8  UNL     1      -6.055  -6.666  -7.311  1.00  0.00     0.077 C 
BRANCH   9  10
HETATM   10  C9  UNL     1      -4.626  -6.265  -7.329  1.00  0.00     0.158 C 
BRANCH  10  11
HETATM   11  N2  UNL     1      -4.110  -6.054  -6.004  1.00  0.00    -0.414 N 
ATOM     12  H2  UNL     1      -4.424  -6.600  -5.202  1.00  0.00     0.153 HD
BRANCH  11  13
HETATM   13  C10 UNL     1      -3.128  -5.028  -5.888  1.00  0.00     0.145 C 
BRANCH  13  14
HETATM   14  C11 UNL     1      -2.903  -4.456  -4.540  1.00  0.00     0.138 C 
HETATM   15  C12 UNL     1      -1.512  -4.789  -4.048  1.00  0.00     0.035 C 
HETATM   16  C13 UNL     1      -0.632  -3.709  -4.627  1.00  0.00     0.029 C 
HETATM   17  C14 UNL     1      -1.664  -2.664  -5.020  1.00  0.00     0.168 C 
HETATM   18  O2  UNL     1      -2.885  -3.059  -4.538  1.00  0.00    -0.384 OA
ENDBRANCH  13  14
ENDBRANCH  11  13
ENDBRANCH  10  11
ENDBRANCH   9  10
ENDBRANCH   8   9
BRANCH   1  19
HETATM   19  O1  UNL     1     -10.694  -8.850  -8.372  1.00  0.00    -0.395 OA
ATOM     20  H1  UNL     1     -11.133  -9.083  -7.562  1.00  0.00     0.210 HD
ENDBRANCH   1  19
TORSDOF 6
ENDMDL
MODEL 5
REMARK VINA RESULT: -6.874638656      1.628      7.158
REMARK  6 active torsions:
REMARK  status: ('A' for Active; 'I' for Inactive)
REMARK    1  A    between atoms: O1_1  and  C1_3 
REMARK    2  A    between atoms: N1_10  and  C8_11 
REMARK    3  A    between atoms: C8_11  and  C9_12 
REMARK    4  A    between atoms: C9_12  and  N2_13 
REMARK    5  A    between atoms: N2_13  and  C10_15 
REMARK    6  A    between atoms: C10_15  and  C11_16 
ROOT
HETATM    1  C1  UNL     1     -10.263  -9.352  -7.335  1.00  0.00     0.126 A 
HETATM    2  C2  UNL     1      -8.913  -8.715  -7.322  1.00  0.00     0.057 A 
HETATM    3  C3  UNL     1      -9.237  -7.968  -8.585  1.00  0.00     0.092 A 
HETATM    4  C4  UNL     1     -10.568  -8.675  -8.635  1.00  0.00     0.037 A 
HETATM    5  C5  UNL     1     -10.622  -9.638  -9.824  1.00  0.00     0.011 C 
HETATM    6  C6  UNL     1     -10.313  -8.815 -11.047  1.00  0.00     0.020 C 
HETATM    7  C7  UNL     1      -8.932  -8.216 -10.974  1.00  0.00     0.122 C 
HETATM    8  N1  UNL     1      -8.398  -8.319  -9.661  1.00  0.00    -0.387 N 
ENDROOT
BRANCH   8   9
HETATM    9  C8  UNL     1      -7.028  -8.352  -9.495  1.00  0.00     0.077 C 
BRANCH   9  10
HETATM   10  C9  UNL     1      -6.209  -7.117  -9.586  1.00  0.00     0.158 C 
BRANCH  10  11
HETATM   11  N2  UNL     1      -5.591  -6.787  -8.330  1.00  0.00    -0.414 N 
ATOM     12  H2  UNL     1      -6.045  -6.968  -7.435  1.00  0.00     0.153 HD
BRANCH  11  13
HETATM   13  C10 UNL     1      -4.301  -6.192  -8.423  1.00  0.00     0.145 C 
BRANCH  13  14
HETATM   14  C11 UNL     1      -3.253  -6.703  -7.508  1.00  0.00     0.138 C 
HETATM   15  C12 UNL     1      -2.060  -5.775  -7.498  1.00  0.00     0.035 C 
HETATM   16  C13 UNL     1      -2.404  -4.719  -6.476  1.00  0.00     0.029 C 
HETATM   17  C14 UNL     1      -3.542  -5.392  -5.726  1.00  0.00     0.168 C 
HETATM   18  O2  UNL     1      -3.646  -6.685  -6.168  1.00  0.00    -0.384 OA
ENDBRANCH  13  14
ENDBRANCH  11  13
ENDBRANCH  10  11
ENDBRANCH   9  10
ENDBRANCH   8   9
BRANCH   1  19
HETATM   19  O1  UNL     1     -11.128  -8.933  -6.291  1.00  0.00    -0.395 OA
ATOM     20  H1  UNL     1     -10.702  -8.456  -5.588  1.00  0.00     0.210 HD
ENDBRANCH   1  19
TORSDOF 6
ENDMDL
