MODEL 1
REMARK VINA RESULT: -8.438416485      0.000      0.000
REMARK  4 active torsions:
REMARK  status: ('A' for Active; 'I' for Inactive)
REMARK    1  A    between atoms: C4_8  and  N3_9 
REMARK       I    between atoms: N3_9  and  C5_11 
REMARK    2  A    between atoms: C8_20  and  C9_21 
REMARK    3  A    between atoms: C9_21  and  C10_22 
REMARK    4  A    between atoms: C10_22  and  N7_23 
ROOT
HETATM    1  C1  UNL     1      28.203  65.176  14.279  1.00  0.00     0.068 C 
HETATM    2  C2  UNL     1      28.490  65.480  12.863  1.00  0.00     0.014 A 
HETATM    3  N1  UNL     1      29.474  64.948  12.109  1.00  0.00    -0.345 N 
ATOM      4  H1  UNL     1      30.150  64.258  12.438  1.00  0.00     0.167 HD
HETATM    5  C3  UNL     1      29.440  65.452  10.868  1.00  0.00     0.133 A 
HETATM    6  N2  UNL     1      30.182  65.267   9.740  1.00  0.00    -0.175 N 
ATOM      7  H2  UNL     1      30.964  64.612   9.746  1.00  0.00     0.186 HD
HETATM    8  C4  UNL     1      29.887  65.941   8.628  1.00  0.00     0.686 A 
HETATM    9  N6  UNL     1      28.858  66.800   8.621  1.00  0.00    -0.201 N 
ATOM     10  H6  UNL     1      28.650  67.304   7.759  1.00  0.00     0.183 HD
HETATM   11  C6  UNL     1      28.090  67.024   9.704  1.00  0.00     0.122 A 
HETATM   12  C7  UNL     1      28.379  66.343  10.851  1.00  0.00     0.033 A 
HETATM   13  C8  UNL     1      27.773  66.372  12.096  1.00  0.00    -0.019 A 
ENDROOT
BRANCH  13  14
HETATM   14  C9  UNL     1      26.592  67.198  12.520  1.00  0.00     0.061 C 
BRANCH  14  15
HETATM   15  C10 UNL     1      25.531  66.306  13.109  1.00  0.00     0.132 C 
BRANCH  15  16
HETATM   16  N7  UNL     1      25.038  65.412  12.097  1.00  0.00    -0.333 N 
HETATM   17  C11 UNL     1      25.014  63.969  12.275  1.00  0.00     0.136 C 
HETATM   18  C12 UNL     1      25.874  63.368  11.184  1.00  0.00     0.123 C 
HETATM   19  C13 UNL     1      25.276  63.787   9.876  1.00  0.00     0.229 C 
HETATM   20  O1  UNL     1      25.282  63.025   8.868  1.00  0.00    -0.273 OA
HETATM   21  N8  UNL     1      24.670  65.061   9.703  1.00  0.00    -0.274 N 
HETATM   22  C14 UNL     1      24.181  65.531   8.430  1.00  0.00     0.164 C 
HETATM   23  C15 UNL     1      24.543  65.908  10.846  1.00  0.00     0.326 C 
HETATM   24  O2  UNL     1      24.021  67.052  10.788  1.00  0.00    -0.247 OA
ENDBRANCH  15  16
ENDBRANCH  14  15
ENDBRANCH  13  14
BRANCH   8  25
HETATM   25  N3  UNL     1      30.572  65.775   7.571  1.00  0.00    -0.164 N 
HETATM   26  C5  UNL     1      31.417  66.816   7.117  1.00  0.00     0.200 C 
HETATM   27  N4  UNL     1      32.575  66.927   7.667  1.00  0.00    -0.373 N 
HETATM   28  N5  UNL     1      30.963  67.680   6.089  1.00  0.00    -0.063 NA
ATOM     29  H42 UNL     1      32.902  66.306   8.406  1.00  0.00     0.158 HD
ATOM     30  H41 UNL     1      33.185  67.678   7.340  1.00  0.00     0.158 HD
ATOM     31  H3  UNL     1      30.513  64.898   7.053  1.00  0.00     0.187 HD
ENDBRANCH   8  25
TORSDOF 4
ENDMDL
MODEL 2
REMARK VINA RESULT: -8.230822229      1.484      2.350
REMARK  4 active torsions:
REMARK  status: ('A' for Active; 'I' for Inactive)
REMARK    1  A    between atoms: C4_8  and  N3_9 
REMARK       I    between atoms: N3_9  and  C5_11 
REMARK    2  A    between atoms: C8_20  and  C9_21 
REMARK    3  A    between atoms: C9_21  and  C10_22 
REMARK    4  A    between atoms: C10_22  and  N7_23 
ROOT
HETATM    1  C1  UNL     1      25.978  69.001  12.244  1.00  0.00     0.068 C 
HETATM    2  C2  UNL     1      27.036  68.232  11.557  1.00  0.00     0.014 A 
HETATM    3  N1  UNL     1      27.385  68.326  10.257  1.00  0.00    -0.345 N 
ATOM      4  H1  UNL     1      26.949  68.954   9.583  1.00  0.00     0.167 HD
HETATM    5  C3  UNL     1      28.384  67.480   9.977  1.00  0.00     0.133 A 
HETATM    6  N2  UNL     1      29.095  67.177   8.854  1.00  0.00    -0.175 N 
ATOM      7  H2  UNL     1      28.888  67.655   7.976  1.00  0.00     0.186 HD
HETATM    8  C4  UNL     1      30.058  66.257   8.900  1.00  0.00     0.686 A 
HETATM    9  N6  UNL     1      30.329  65.630  10.053  1.00  0.00    -0.201 N 
ATOM     10  H6  UNL     1      31.070  64.930  10.066  1.00  0.00     0.183 HD
HETATM   11  C6  UNL     1      29.662  65.887  11.195  1.00  0.00     0.122 A 
HETATM   12  C7  UNL     1      28.671  66.826  11.164  1.00  0.00     0.033 A 
HETATM   13  C8  UNL     1      27.832  67.287  12.165  1.00  0.00    -0.019 A 
ENDROOT
BRANCH  13  14
HETATM   14  C9  UNL     1      27.796  66.850  13.603  1.00  0.00     0.061 C 
BRANCH  14  15
HETATM   15  C10 UNL     1      26.467  66.213  13.909  1.00  0.00     0.132 C 
BRANCH  15  16
HETATM   16  N7  UNL     1      26.391  64.927  13.271  1.00  0.00    -0.333 N 
HETATM   17  C11 UNL     1      27.128  63.771  13.756  1.00  0.00     0.136 C 
HETATM   18  C12 UNL     1      28.047  63.323  12.640  1.00  0.00     0.123 C 
HETATM   19  C13 UNL     1      27.180  62.989  11.466  1.00  0.00     0.229 C 
HETATM   20  O1  UNL     1      27.463  62.043  10.678  1.00  0.00    -0.273 OA
HETATM   21  N8  UNL     1      25.993  63.719  11.180  1.00  0.00    -0.274 N 
HETATM   22  C14 UNL     1      25.196  63.488  10.000  1.00  0.00     0.164 C 
HETATM   23  C15 UNL     1      25.578  64.722  12.107  1.00  0.00     0.326 C 
HETATM   24  O2  UNL     1      24.543  65.417  11.936  1.00  0.00    -0.247 OA
ENDBRANCH  15  16
ENDBRANCH  14  15
ENDBRANCH  13  14
BRANCH   8  25
HETATM   25  N3  UNL     1      30.726  65.968   7.858  1.00  0.00    -0.164 N 
HETATM   26  C5  UNL     1      31.587  66.937   7.289  1.00  0.00     0.200 C 
HETATM   27  N4  UNL     1      32.754  67.080   7.812  1.00  0.00    -0.373 N 
HETATM   28  N5  UNL     1      31.137  67.699   6.182  1.00  0.00    -0.063 NA
ATOM     29  H42 UNL     1      33.077  66.532   8.609  1.00  0.00     0.158 HD
ATOM     30  H41 UNL     1      33.374  67.779   7.403  1.00  0.00     0.158 HD
ATOM     31  H3  UNL     1      30.643  65.043   7.435  1.00  0.00     0.187 HD
ENDBRANCH   8  25
TORSDOF 4
ENDMDL
MODEL 3
REMARK VINA RESULT: -8.129954699      3.465      5.148
REMARK  4 active torsions:
REMARK  status: ('A' for Active; 'I' for Inactive)
REMARK    1  A    between atoms: C4_8  and  N3_9 
REMARK       I    between atoms: N3_9  and  C5_11 
REMARK    2  A    between atoms: C8_20  and  C9_21 
REMARK    3  A    between atoms: C9_21  and  C10_22 
REMARK    4  A    between atoms: C10_22  and  N7_23 
ROOT
HETATM    1  C1  UNL     1      26.422  68.584  12.335  1.00  0.00     0.068 C 
HETATM    2  C2  UNL     1      27.341  67.805  11.482  1.00  0.00     0.014 A 
HETATM    3  N1  UNL     1      27.793  68.151  10.259  1.00  0.00    -0.345 N 
ATOM      4  H1  UNL     1      27.546  69.012   9.771  1.00  0.00     0.167 HD
HETATM    5  C3  UNL     1      28.611  67.208   9.775  1.00  0.00     0.133 A 
HETATM    6  N2  UNL     1      29.320  67.055   8.621  1.00  0.00    -0.175 N 
ATOM      7  H2  UNL     1      29.281  67.777   7.901  1.00  0.00     0.186 HD
HETATM    8  C4  UNL     1      30.065  65.966   8.433  1.00  0.00     0.686 A 
HETATM    9  N6  UNL     1      30.117  65.020   9.380  1.00  0.00    -0.201 N 
ATOM     10  H6  UNL     1      30.693  64.195   9.216  1.00  0.00     0.183 HD
HETATM   11  C6  UNL     1      29.439  65.114  10.541  1.00  0.00     0.122 A 
HETATM   12  C7  UNL     1      28.671  66.224  10.749  1.00  0.00     0.033 A 
HETATM   13  C8  UNL     1      27.878  66.584  11.826  1.00  0.00    -0.019 A 
ENDROOT
BRANCH  13  14
HETATM   14  C9  UNL     1      27.650  65.811  13.094  1.00  0.00     0.061 C 
BRANCH  14  15
HETATM   15  C10 UNL     1      28.626  66.262  14.149  1.00  0.00     0.132 C 
BRANCH  15  16
HETATM   16  N7  UNL     1      28.189  65.801  15.438  1.00  0.00    -0.333 N 
HETATM   17  C11 UNL     1      27.078  64.877  15.601  1.00  0.00     0.136 C 
HETATM   18  C12 UNL     1      26.031  65.577  16.440  1.00  0.00     0.123 C 
HETATM   19  C13 UNL     1      26.676  65.921  17.747  1.00  0.00     0.229 C 
HETATM   20  O1  UNL     1      26.033  65.890  18.834  1.00  0.00    -0.273 OA
HETATM   21  N8  UNL     1      28.043  66.300  17.830  1.00  0.00    -0.274 N 
HETATM   22  C14 UNL     1      28.663  66.738  19.057  1.00  0.00     0.164 C 
HETATM   23  C15 UNL     1      28.833  66.241  16.641  1.00  0.00     0.326 C 
HETATM   24  O2  UNL     1      30.051  66.558  16.620  1.00  0.00    -0.247 OA
ENDBRANCH  15  16
ENDBRANCH  14  15
ENDBRANCH  13  14
BRANCH   8  25
HETATM   25  N3  UNL     1      30.730  65.815   7.360  1.00  0.00    -0.164 N 
HETATM   26  C5  UNL     1      31.621  66.833   6.942  1.00  0.00     0.200 C 
HETATM   27  N4  UNL     1      32.789  66.863   7.482  1.00  0.00    -0.373 N 
HETATM   28  N5  UNL     1      31.199  67.764   5.960  1.00  0.00    -0.063 NA
ATOM     29  H42 UNL     1      33.092  66.194   8.189  1.00  0.00     0.158 HD
ATOM     30  H41 UNL     1      33.431  67.597   7.181  1.00  0.00     0.158 HD
ATOM     31  H3  UNL     1      30.622  64.966   6.805  1.00  0.00     0.187 HD
ENDBRANCH   8  25
TORSDOF 4
ENDMDL
MODEL 4
REMARK VINA RESULT: -8.014567410      3.223      7.002
REMARK  4 active torsions:
REMARK  status: ('A' for Active; 'I' for Inactive)
REMARK    1  A    between atoms: C4_8  and  N3_9 
REMARK       I    between atoms: N3_9  and  C5_11 
REMARK    2  A    between atoms: C8_20  and  C9_21 
REMARK    3  A    between atoms: C9_21  and  C10_22 
REMARK    4  A    between atoms: C10_22  and  N7_23 
ROOT
HETATM    1  C1  UNL     1      24.995  63.407   9.490  1.00  0.00     0.068 C 
HETATM    2  C2  UNL     1      25.624  63.806  10.766  1.00  0.00     0.014 A 
HETATM    3  N1  UNL     1      25.356  63.300  11.988  1.00  0.00    -0.345 N 
ATOM      4  H1  UNL     1      24.672  62.567  12.176  1.00  0.00     0.167 HD
HETATM    5  C3  UNL     1      26.113  63.895  12.919  1.00  0.00     0.133 A 
HETATM    6  N2  UNL     1      26.242  63.771  14.270  1.00  0.00    -0.175 N 
ATOM      7  H2  UNL     1      25.671  63.094  14.776  1.00  0.00     0.186 HD
HETATM    8  C4  UNL     1      27.112  64.534  14.931  1.00  0.00     0.686 A 
HETATM    9  N6  UNL     1      27.862  65.423  14.266  1.00  0.00    -0.201 N 
ATOM     10  H6  UNL     1      28.522  65.996  14.791  1.00  0.00     0.183 HD
HETATM   11  C6  UNL     1      27.780  65.591  12.931  1.00  0.00     0.122 A 
HETATM   12  C7  UNL     1      26.892  64.817  12.240  1.00  0.00     0.033 A 
HETATM   13  C8  UNL     1      26.596  64.773  10.887  1.00  0.00    -0.019 A 
ENDROOT
BRANCH  13  14
HETATM   14  C9  UNL     1      27.201  65.603   9.790  1.00  0.00     0.061 C 
BRANCH  14  15
HETATM   15  C10 UNL     1      28.609  65.142   9.520  1.00  0.00     0.132 C 
BRANCH  15  16
HETATM   16  N7  UNL     1      29.298  66.132   8.737  1.00  0.00    -0.333 N 
HETATM   17  C11 UNL     1      28.620  66.955   7.749  1.00  0.00     0.136 C 
HETATM   18  C12 UNL     1      29.269  66.675   6.410  1.00  0.00     0.123 C 
HETATM   19  C13 UNL     1      30.718  67.030   6.544  1.00  0.00     0.229 C 
HETATM   20  O1  UNL     1      31.370  67.535   5.587  1.00  0.00    -0.273 OA
HETATM   21  N8  UNL     1      31.432  66.817   7.755  1.00  0.00    -0.274 N 
HETATM   22  C14 UNL     1      32.850  67.050   7.881  1.00  0.00     0.164 C 
HETATM   23  C15 UNL     1      30.706  66.353   8.894  1.00  0.00     0.326 C 
HETATM   24  O2  UNL     1      31.254  66.137  10.006  1.00  0.00    -0.247 OA
ENDBRANCH  15  16
ENDBRANCH  14  15
ENDBRANCH  13  14
BRANCH   8  25
HETATM   25  N3  UNL     1      27.240  64.426  16.191  1.00  0.00    -0.164 N 
HETATM   26  C5  UNL     1      26.870  65.507  17.025  1.00  0.00     0.200 C 
HETATM   27  N4  UNL     1      25.623  65.637  17.317  1.00  0.00    -0.373 N 
HETATM   28  N5  UNL     1      27.872  66.390  17.502  1.00  0.00    -0.063 NA
ATOM     29  H42 UNL     1      24.903  65.002  16.975  1.00  0.00     0.158 HD
ATOM     30  H41 UNL     1      25.357  66.417  17.919  1.00  0.00     0.158 HD
ATOM     31  H3  UNL     1      27.607  63.565  16.598  1.00  0.00     0.187 HD
ENDBRANCH   8  25
TORSDOF 4
ENDMDL
MODEL 5
REMARK VINA RESULT: -8.008832496      1.346      2.178
REMARK  4 active torsions:
REMARK  status: ('A' for Active; 'I' for Inactive)
REMARK    1  A    between atoms: C4_8  and  N3_9 
REMARK       I    between atoms: N3_9  and  C5_11 
REMARK    2  A    between atoms: C8_20  and  C9_21 
REMARK    3  A    between atoms: C9_21  and  C10_22 
REMARK    4  A    between atoms: C10_22  and  N7_23 
ROOT
HETATM    1  C1  UNL     1      25.824  69.610  11.962  1.00  0.00     0.068 C 
HETATM    2  C2  UNL     1      26.776  68.557  11.554  1.00  0.00     0.014 A 
HETATM    3  N1  UNL     1      27.733  68.660  10.609  1.00  0.00    -0.345 N 
ATOM      4  H1  UNL     1      27.915  69.496  10.054  1.00  0.00     0.167 HD
HETATM    5  C3  UNL     1      28.413  67.510  10.502  1.00  0.00     0.133 A 
HETATM    6  N2  UNL     1      29.449  67.080   9.728  1.00  0.00    -0.175 N 
ATOM      7  H2  UNL     1      29.869  67.709   9.044  1.00  0.00     0.186 HD
HETATM    8  C4  UNL     1      29.914  65.838   9.864  1.00  0.00     0.686 A 
HETATM    9  N6  UNL     1      29.362  65.013  10.764  1.00  0.00    -0.201 N 
ATOM     10  H6  UNL     1      29.733  64.067  10.852  1.00  0.00     0.183 HD
HETATM   11  C6  UNL     1      28.337  65.381  11.557  1.00  0.00     0.122 A 
HETATM   12  C7  UNL     1      27.849  66.650  11.430  1.00  0.00     0.033 A 
HETATM   13  C8  UNL     1      26.819  67.293  12.097  1.00  0.00    -0.019 A 
ENDROOT
BRANCH  13  14
HETATM   14  C9  UNL     1      25.938  66.732  13.178  1.00  0.00     0.061 C 
BRANCH  14  15
HETATM   15  C10 UNL     1      24.511  66.686  12.700  1.00  0.00     0.132 C 
BRANCH  15  16
HETATM   16  N7  UNL     1      24.344  65.587  11.788  1.00  0.00    -0.333 N 
HETATM   17  C11 UNL     1      24.162  64.218  12.243  1.00  0.00     0.136 C 
HETATM   18  C12 UNL     1      25.307  63.402  11.680  1.00  0.00     0.123 C 
HETATM   19  C13 UNL     1      25.234  63.518  10.189  1.00  0.00     0.229 C 
HETATM   20  O1  UNL     1      25.541  62.554   9.432  1.00  0.00    -0.273 OA
HETATM   21  N8  UNL     1      24.815  64.717   9.550  1.00  0.00    -0.274 N 
HETATM   22  C14 UNL     1      24.836  64.891   8.118  1.00  0.00     0.164 C 
HETATM   23  C15 UNL     1      24.353  65.792  10.369  1.00  0.00     0.326 C 
HETATM   24  O2  UNL     1      23.964  66.889   9.892  1.00  0.00    -0.247 OA
ENDBRANCH  15  16
ENDBRANCH  14  15
ENDBRANCH  13  14
BRANCH   8  25
HETATM   25  N3  UNL     1      30.879  65.427   9.148  1.00  0.00    -0.164 N 
HETATM   26  C5  UNL     1      32.076  66.180   9.091  1.00  0.00     0.200 C 
HETATM   27  N4  UNL     1      32.923  66.030  10.048  1.00  0.00    -0.373 N 
HETATM   28  N5  UNL     1      32.293  67.056   7.997  1.00  0.00    -0.063 NA
ATOM     29  H42 UNL     1      32.767  65.400  10.834  1.00  0.00     0.158 HD
ATOM     30  H41 UNL     1      33.786  66.573  10.007  1.00  0.00     0.158 HD
ATOM     31  H3  UNL     1      30.792  64.559   8.617  1.00  0.00     0.187 HD
ENDBRANCH   8  25
TORSDOF 4
ENDMDL
