MODEL 1
REMARK VINA RESULT: -6.570567498      0.000      0.000
REMARK  2 active torsions:
REMARK  status: ('A' for Active; 'I' for Inactive)
REMARK    1  A    between atoms: N1_1  and  C1_4 
REMARK    2  A    between atoms: C3_10  and  C4_11 
ROOT
HETATM    1  C1  UNL     1      16.289   2.159  49.147  1.00  0.00     0.145 A 
HETATM    2  N2  UNL     1      17.204   1.253  49.491  1.00  0.00    -0.321 N 
ATOM      3  H2  UNL     1      18.184   1.385  49.244  1.00  0.00     0.169 HD
HETATM    4  C2  UNL     1      16.821   0.192  50.152  1.00  0.00     0.143 A 
HETATM    5  N3  UNL     1      17.375  -0.943  50.689  1.00  0.00    -0.325 N 
ATOM      6  H3  UNL     1      18.367  -1.175  50.641  1.00  0.00     0.169 HD
HETATM    7  C3  UNL     1      16.453  -1.708  51.281  1.00  0.00     0.130 A 
HETATM    8  N5  UNL     1      15.248  -1.073  51.140  1.00  0.00    -0.332 N 
ATOM      9  H5  UNL     1      14.343  -1.397  51.482  1.00  0.00     0.168 HD
HETATM   10  C8  UNL     1      15.496   0.069  50.458  1.00  0.00     0.123 A 
HETATM   11  S1  UNL     1      14.844   1.495  49.776  1.00  0.00    -0.033 SA
ENDROOT
BRANCH   7  12
HETATM   12  C4  UNL     1      16.683  -2.982  51.952  1.00  0.00     0.053 C 
HETATM   13  N4  UNL     1      16.096  -4.072  51.613  1.00  0.00    -0.369 N 
HETATM   14  C5  UNL     1      16.291  -5.346  52.245  1.00  0.00     0.290 C 
ATOM     15  H4  UNL     1      15.441  -4.029  50.833  1.00  0.00     0.161 HD
HETATM   16  O1  UNL     1      17.234  -5.324  53.258  1.00  0.00    -0.372 OA
HETATM   17  C6  UNL     1      18.256  -4.432  53.044  1.00  0.00     0.176 C 
HETATM   18  C7  UNL     1      17.634  -3.030  53.076  1.00  0.00     0.087 C 
ENDBRANCH   7  12
BRANCH   1  19
HETATM   19  N1  UNL     1      16.462   3.283  48.489  1.00  0.00    -0.380 N 
ATOM     20  H12 UNL     1      16.670   4.213  48.853  1.00  0.00     0.158 HD
ATOM     21  H11 UNL     1      16.422   3.439  47.482  1.00  0.00     0.158 HD
ENDBRANCH   1  19
TORSDOF 2
ENDMDL
MODEL 2
REMARK VINA RESULT: -6.439641301      1.039      1.166
REMARK  2 active torsions:
REMARK  status: ('A' for Active; 'I' for Inactive)
REMARK    1  A    between atoms: N1_1  and  C1_4 
REMARK    2  A    between atoms: C3_10  and  C4_11 
ROOT
HETATM    1  C1  UNL     1      16.191   2.345  49.195  1.00  0.00     0.145 A 
HETATM    2  N2  UNL     1      17.049   1.338  49.353  1.00  0.00    -0.321 N 
ATOM      3  H2  UNL     1      18.024   1.438  49.070  1.00  0.00     0.169 HD
HETATM    4  C2  UNL     1      16.619   0.221  49.877  1.00  0.00     0.143 A 
HETATM    5  N3  UNL     1      17.111  -1.016  50.214  1.00  0.00    -0.325 N 
ATOM      6  H3  UNL     1      18.079  -1.305  50.076  1.00  0.00     0.169 HD
HETATM    7  C3  UNL     1      16.163  -1.794  50.743  1.00  0.00     0.130 A 
HETATM    8  N5  UNL     1      15.004  -1.065  50.764  1.00  0.00    -0.332 N 
ATOM      9  H5  UNL     1      14.094  -1.374  51.109  1.00  0.00     0.168 HD
HETATM   10  C8  UNL     1      15.304   0.144  50.238  1.00  0.00     0.123 A 
HETATM   11  S1  UNL     1      14.731   1.696  49.805  1.00  0.00    -0.033 SA
ENDROOT
BRANCH   7  12
HETATM   12  C4  UNL     1      16.327  -3.165  51.212  1.00  0.00     0.053 C 
HETATM   13  N4  UNL     1      17.336  -3.897  50.907  1.00  0.00    -0.369 N 
HETATM   14  C5  UNL     1      17.539  -5.250  51.343  1.00  0.00     0.290 C 
ATOM     15  H4  UNL     1      18.051  -3.484  50.307  1.00  0.00     0.161 HD
HETATM   16  O1  UNL     1      16.548  -5.712  52.193  1.00  0.00    -0.372 OA
HETATM   17  C6  UNL     1      16.013  -4.738  53.000  1.00  0.00     0.176 C 
HETATM   18  C7  UNL     1      15.288  -3.748  52.079  1.00  0.00     0.087 C 
ENDBRANCH   7  12
BRANCH   1  19
HETATM   19  N1  UNL     1      16.416   3.538  48.694  1.00  0.00    -0.380 N 
ATOM     20  H12 UNL     1      16.768   4.374  49.162  1.00  0.00     0.158 HD
ATOM     21  H11 UNL     1      16.282   3.859  47.734  1.00  0.00     0.158 HD
ENDBRANCH   1  19
TORSDOF 2
ENDMDL
MODEL 3
REMARK VINA RESULT: -6.211521464      1.097      1.163
REMARK  2 active torsions:
REMARK  status: ('A' for Active; 'I' for Inactive)
REMARK    1  A    between atoms: N1_1  and  C1_4 
REMARK    2  A    between atoms: C3_10  and  C4_11 
ROOT
HETATM    1  C1  UNL     1      16.514   1.120  49.251  1.00  0.00     0.145 A 
HETATM    2  N2  UNL     1      17.350   0.208  49.747  1.00  0.00    -0.321 N 
ATOM      3  H2  UNL     1      18.358   0.310  49.632  1.00  0.00     0.169 HD
HETATM    4  C2  UNL     1      16.854  -0.821  50.382  1.00  0.00     0.143 A 
HETATM    5  N3  UNL     1      17.300  -1.948  51.026  1.00  0.00    -0.325 N 
ATOM      6  H3  UNL     1      18.283  -2.202  51.123  1.00  0.00     0.169 HD
HETATM    7  C3  UNL     1      16.287  -2.673  51.509  1.00  0.00     0.130 A 
HETATM    8  N5  UNL     1      15.129  -2.018  51.184  1.00  0.00    -0.332 N 
ATOM      9  H5  UNL     1      14.177  -2.312  51.408  1.00  0.00     0.168 HD
HETATM   10  C8  UNL     1      15.496  -0.907  50.506  1.00  0.00     0.123 A 
HETATM   11  S1  UNL     1      14.980   0.508  49.696  1.00  0.00    -0.033 SA
ENDROOT
BRANCH   7  12
HETATM   12  C4  UNL     1      16.390  -3.927  52.246  1.00  0.00     0.053 C 
HETATM   13  N4  UNL     1      15.380  -4.673  52.510  1.00  0.00    -0.369 N 
HETATM   14  C5  UNL     1      15.435  -5.913  53.231  1.00  0.00     0.290 C 
ATOM     15  H4  UNL     1      14.467  -4.361  52.180  1.00  0.00     0.161 HD
HETATM   16  O1  UNL     1      16.718  -6.286  53.596  1.00  0.00    -0.372 OA
HETATM   17  C6  UNL     1      17.683  -5.901  52.698  1.00  0.00     0.176 C 
HETATM   18  C7  UNL     1      17.716  -4.367  52.715  1.00  0.00     0.087 C 
ENDBRANCH   7  12
BRANCH   1  19
HETATM   19  N1  UNL     1      16.804   2.216  48.588  1.00  0.00    -0.380 N 
ATOM     20  H12 UNL     1      16.424   2.547  47.701  1.00  0.00     0.158 HD
ATOM     21  H11 UNL     1      17.469   2.949  48.835  1.00  0.00     0.158 HD
ENDBRANCH   1  19
TORSDOF 2
ENDMDL
MODEL 4
REMARK VINA RESULT: -6.023564354      1.414      1.585
REMARK  2 active torsions:
REMARK  status: ('A' for Active; 'I' for Inactive)
REMARK    1  A    between atoms: N1_1  and  C1_4 
REMARK    2  A    between atoms: C3_10  and  C4_11 
ROOT
HETATM    1  C1  UNL     1      16.490   1.127  49.323  1.00  0.00     0.145 A 
HETATM    2  N2  UNL     1      17.280   0.126  49.708  1.00  0.00    -0.321 N 
ATOM      3  H2  UNL     1      18.292   0.190  49.594  1.00  0.00     0.169 HD
HETATM    4  C2  UNL     1      16.737  -0.939  50.235  1.00  0.00     0.143 A 
HETATM    5  N3  UNL     1      17.129  -2.150  50.749  1.00  0.00    -0.325 N 
ATOM      6  H3  UNL     1      18.098  -2.461  50.807  1.00  0.00     0.169 HD
HETATM    7  C3  UNL     1      16.083  -2.871  51.163  1.00  0.00     0.130 A 
HETATM    8  N5  UNL     1      14.958  -2.128  50.923  1.00  0.00    -0.332 N 
ATOM      9  H5  UNL     1      13.994  -2.396  51.125  1.00  0.00     0.168 HD
HETATM   10  C8  UNL     1      15.377  -0.970  50.364  1.00  0.00     0.123 A 
HETATM   11  S1  UNL     1      14.929   0.547  49.716  1.00  0.00    -0.033 SA
ENDROOT
BRANCH   7  12
HETATM   12  C4  UNL     1      16.127  -4.201  51.760  1.00  0.00     0.053 C 
HETATM   13  N4  UNL     1      17.071  -5.040  51.538  1.00  0.00    -0.369 N 
HETATM   14  C5  UNL     1      17.154  -6.359  52.102  1.00  0.00     0.290 C 
ATOM     15  H4  UNL     1      17.822  -4.749  50.912  1.00  0.00     0.161 HD
HETATM   16  O1  UNL     1      16.123  -6.653  52.978  1.00  0.00    -0.372 OA
HETATM   17  C6  UNL     1      15.669  -5.566  53.683  1.00  0.00     0.176 C 
HETATM   18  C7  UNL     1      15.037  -4.609  52.663  1.00  0.00     0.087 C 
ENDBRANCH   7  12
BRANCH   1  19
HETATM   19  N1  UNL     1      16.831   2.272  48.777  1.00  0.00    -0.380 N 
ATOM     20  H12 UNL     1      16.479   3.208  48.979  1.00  0.00     0.158 HD
ATOM     21  H11 UNL     1      17.518   2.444  48.042  1.00  0.00     0.158 HD
ENDBRANCH   1  19
TORSDOF 2
ENDMDL
MODEL 5
REMARK VINA RESULT: -5.953908992      4.105      5.505
REMARK  2 active torsions:
REMARK  status: ('A' for Active; 'I' for Inactive)
REMARK    1  A    between atoms: N1_1  and  C1_4 
REMARK    2  A    between atoms: C3_10  and  C4_11 
ROOT
HETATM    1  C1  UNL     1      15.617  -0.488  57.470  1.00  0.00     0.145 A 
HETATM    2  N2  UNL     1      16.598  -0.647  56.583  1.00  0.00    -0.321 N 
ATOM      3  H2  UNL     1      17.573  -0.546  56.864  1.00  0.00     0.169 HD
HETATM    4  C2  UNL     1      16.289  -0.934  55.346  1.00  0.00     0.143 A 
HETATM    5  N3  UNL     1      16.925  -1.175  54.154  1.00  0.00    -0.325 N 
ATOM      6  H3  UNL     1      17.937  -1.163  54.031  1.00  0.00     0.169 HD
HETATM    7  C3  UNL     1      16.053  -1.428  53.174  1.00  0.00     0.130 A 
HETATM    8  N5  UNL     1      14.798  -1.356  53.718  1.00  0.00    -0.332 N 
ATOM      9  H5  UNL     1      13.912  -1.498  53.232  1.00  0.00     0.168 HD
HETATM   10  C8  UNL     1      14.967  -1.057  55.026  1.00  0.00     0.123 A 
HETATM   11  S1  UNL     1      14.212  -0.752  56.530  1.00  0.00    -0.033 SA
ENDROOT
BRANCH   7  12
HETATM   12  C4  UNL     1      16.373  -1.725  51.782  1.00  0.00     0.053 C 
HETATM   13  N4  UNL     1      17.046  -0.932  51.031  1.00  0.00    -0.369 N 
HETATM   14  C5  UNL     1      17.383  -1.183  49.657  1.00  0.00     0.290 C 
ATOM     15  H4  UNL     1      17.366  -0.055  51.441  1.00  0.00     0.161 HD
HETATM   16  O1  UNL     1      16.953  -2.416  49.197  1.00  0.00    -0.372 OA
HETATM   17  C6  UNL     1      16.956  -3.397  50.158  1.00  0.00     0.176 C 
HETATM   18  C7  UNL     1      15.906  -2.996  51.202  1.00  0.00     0.087 C 
ENDBRANCH   7  12
BRANCH   1  19
HETATM   19  N1  UNL     1      15.711  -0.200  58.748  1.00  0.00    -0.380 N 
ATOM     20  H12 UNL     1      15.929   0.694  59.189  1.00  0.00     0.158 HD
ATOM     21  H11 UNL     1      15.584  -0.820  59.548  1.00  0.00     0.158 HD
ENDBRANCH   1  19
TORSDOF 2
ENDMDL
