MODEL 1
REMARK VINA RESULT: -5.994845537      0.000      0.000
REMARK  1 active torsions:
REMARK  status: ('A' for Active; 'I' for Inactive)
REMARK    1  A    between atoms: C2_5  and  C3_6 
ROOT
HETATM    1  N1  UNL     1      17.477  -2.055  53.908  1.00  0.00    -0.081 NA
HETATM    2  C1  UNL     1      17.170  -2.197  52.499  1.00  0.00     0.141 A 
HETATM    3  N2  UNL     1      16.836  -1.192  51.736  1.00  0.00    -0.339 N 
ATOM      4  H2  UNL     1      16.782  -0.252  52.127  1.00  0.00     0.167 HD
HETATM    5  C2  UNL     1      16.570  -1.388  50.463  1.00  0.00     0.084 A 
HETATM    6  S1  UNL     1      16.791  -3.067  50.300  1.00  0.00    -0.063 SA
HETATM    7  C8  UNL     1      17.225  -3.437  51.916  1.00  0.00     0.095 A 
HETATM    8  S2  UNL     1      17.647  -5.013  52.677  1.00  0.00    -0.041 SA
ENDROOT
BRANCH   5   9
HETATM    9  C3  UNL     1      16.170  -0.416  49.394  1.00  0.00     0.242 C 
HETATM   10  C4  UNL     1      14.721  -0.133  49.377  1.00  0.00     0.040 C 
HETATM   11  C5  UNL     1      14.276   1.163  49.937  1.00  0.00     0.004 C 
HETATM   12  C6  UNL     1      15.280   2.251  49.964  1.00  0.00     0.027 C 
HETATM   13  C7  UNL     1      16.401   1.935  49.002  1.00  0.00     0.233 C 
HETATM   14  N3  UNL     1      17.029   0.725  49.508  1.00  0.00    -0.065 N 
ATOM     15  H32 UNL     1      17.351   0.850  50.468  1.00  0.00     0.278 HD
ATOM     16  H31 UNL     1      17.928   0.559  49.056  1.00  0.00     0.278 HD
ENDBRANCH   5   9
TORSDOF 1
ENDMDL
MODEL 2
REMARK VINA RESULT: -5.900375810      1.068      1.076
REMARK  1 active torsions:
REMARK  status: ('A' for Active; 'I' for Inactive)
REMARK    1  A    between atoms: C2_5  and  C3_6 
ROOT
HETATM    1  N1  UNL     1      18.154  -2.383  53.768  1.00  0.00    -0.081 NA
HETATM    2  C1  UNL     1      17.109  -2.278  52.770  1.00  0.00     0.141 A 
HETATM    3  N2  UNL     1      17.158  -1.440  51.771  1.00  0.00    -0.339 N 
ATOM      4  H2  UNL     1      17.959  -0.818  51.667  1.00  0.00     0.167 HD
HETATM    5  C2  UNL     1      16.175  -1.394  50.898  1.00  0.00     0.084 A 
HETATM    6  S1  UNL     1      15.110  -2.583  51.487  1.00  0.00    -0.063 SA
HETATM    7  C8  UNL     1      16.006  -3.088  52.857  1.00  0.00     0.095 A 
HETATM    8  S2  UNL     1      15.632  -4.339  54.096  1.00  0.00    -0.041 SA
ENDROOT
BRANCH   5   9
HETATM    9  C3  UNL     1      15.995  -0.534  49.683  1.00  0.00     0.242 C 
HETATM   10  C4  UNL     1      14.595  -0.121  49.465  1.00  0.00     0.040 C 
HETATM   11  C5  UNL     1      14.235   1.272  49.813  1.00  0.00     0.004 C 
HETATM   12  C6  UNL     1      15.342   2.255  49.829  1.00  0.00     0.027 C 
HETATM   13  C7  UNL     1      16.517   1.715  49.048  1.00  0.00     0.233 C 
HETATM   14  N3  UNL     1      16.954   0.527  49.762  1.00  0.00    -0.065 N 
ATOM     15  H32 UNL     1      17.187   0.743  50.731  1.00  0.00     0.278 HD
ATOM     16  H31 UNL     1      17.872   0.220  49.440  1.00  0.00     0.278 HD
ENDBRANCH   5   9
TORSDOF 1
ENDMDL
MODEL 3
REMARK VINA RESULT: -5.813529902      1.658      1.766
REMARK  1 active torsions:
REMARK  status: ('A' for Active; 'I' for Inactive)
REMARK    1  A    between atoms: C2_5  and  C3_6 
ROOT
HETATM    1  N1  UNL     1      17.699  -4.554  50.187  1.00  0.00    -0.081 NA
HETATM    2  C1  UNL     1      17.178  -3.232  50.473  1.00  0.00     0.141 A 
HETATM    3  N2  UNL     1      16.883  -2.365  49.543  1.00  0.00    -0.339 N 
ATOM      4  H2  UNL     1      17.017  -2.606  48.561  1.00  0.00     0.167 HD
HETATM    5  C2  UNL     1      16.413  -1.180  49.869  1.00  0.00     0.084 A 
HETATM    6  S1  UNL     1      16.374  -1.260  51.568  1.00  0.00    -0.063 SA
HETATM    7  C8  UNL     1      16.978  -2.850  51.774  1.00  0.00     0.095 A 
HETATM    8  S2  UNL     1      17.280  -3.795  53.276  1.00  0.00    -0.041 SA
ENDROOT
BRANCH   5   9
HETATM    9  C3  UNL     1      16.004  -0.026  49.003  1.00  0.00     0.242 C 
HETATM   10  C4  UNL     1      14.574   0.317  49.130  1.00  0.00     0.040 C 
HETATM   11  C5  UNL     1      14.232   1.519  49.923  1.00  0.00     0.004 C 
HETATM   12  C6  UNL     1      15.293   2.543  50.062  1.00  0.00     0.027 C 
HETATM   13  C7  UNL     1      16.337   2.345  48.989  1.00  0.00     0.233 C 
HETATM   14  N3  UNL     1      16.927   1.041  49.247  1.00  0.00    -0.065 N 
ATOM     15  H32 UNL     1      17.311   0.990  50.190  1.00  0.00     0.278 HD
ATOM     16  H31 UNL     1      17.789   0.915  48.715  1.00  0.00     0.278 HD
ENDBRANCH   5   9
TORSDOF 1
ENDMDL
MODEL 4
REMARK VINA RESULT: -5.374940737      3.370      3.681
REMARK  1 active torsions:
REMARK  status: ('A' for Active; 'I' for Inactive)
REMARK    1  A    between atoms: C2_5  and  C3_6 
ROOT
HETATM    1  N1  UNL     1      14.460  -1.099  55.765  1.00  0.00    -0.081 NA
HETATM    2  C1  UNL     1      14.119  -1.158  54.358  1.00  0.00     0.141 A 
HETATM    3  N2  UNL     1      15.011  -1.251  53.410  1.00  0.00    -0.339 N 
ATOM      4  H2  UNL     1      16.003  -1.284  53.646  1.00  0.00     0.167 HD
HETATM    5  C2  UNL     1      14.635  -1.301  52.150  1.00  0.00     0.084 A 
HETATM    6  S1  UNL     1      12.940  -1.214  52.274  1.00  0.00    -0.063 SA
HETATM    7  C8  UNL     1      12.802  -1.116  53.979  1.00  0.00     0.095 A 
HETATM    8  S2  UNL     1      11.340  -0.992  55.022  1.00  0.00    -0.041 SA
ENDROOT
BRANCH   5   9
HETATM    9  C3  UNL     1      15.452  -1.406  50.897  1.00  0.00     0.242 C 
HETATM   10  C4  UNL     1      14.790  -0.807  49.721  1.00  0.00     0.040 C 
HETATM   11  C5  UNL     1      15.284   0.510  49.261  1.00  0.00     0.004 C 
HETATM   12  C6  UNL     1      16.672   0.863  49.636  1.00  0.00     0.027 C 
HETATM   13  C7  UNL     1      17.432  -0.387  50.017  1.00  0.00     0.233 C 
HETATM   14  N3  UNL     1      16.762  -0.912  51.196  1.00  0.00    -0.065 N 
ATOM     15  H32 UNL     1      16.735  -0.219  51.944  1.00  0.00     0.278 HD
ATOM     16  H31 UNL     1      17.330  -1.624  51.656  1.00  0.00     0.278 HD
ENDBRANCH   5   9
TORSDOF 1
ENDMDL
MODEL 5
REMARK VINA RESULT: -5.343622417      1.822      1.890
REMARK  1 active torsions:
REMARK  status: ('A' for Active; 'I' for Inactive)
REMARK    1  A    between atoms: C2_5  and  C3_6 
ROOT
HETATM    1  N1  UNL     1      17.988  -4.250  53.440  1.00  0.00    -0.081 NA
HETATM    2  C1  UNL     1      17.152  -3.161  52.974  1.00  0.00     0.141 A 
HETATM    3  N2  UNL     1      17.151  -2.740  51.739  1.00  0.00    -0.339 N 
ATOM      4  H2  UNL     1      17.759  -3.183  51.050  1.00  0.00     0.167 HD
HETATM    5  C2  UNL     1      16.367  -1.747  51.380  1.00  0.00     0.084 A 
HETATM    6  S1  UNL     1      15.578  -1.363  52.838  1.00  0.00    -0.063 SA
HETATM    7  C8  UNL     1      16.315  -2.528  53.855  1.00  0.00     0.095 A 
HETATM    8  S2  UNL     1      16.077  -2.858  55.609  1.00  0.00    -0.041 SA
ENDROOT
BRANCH   5   9
HETATM    9  C3  UNL     1      16.183  -1.090  50.046  1.00  0.00     0.242 C 
HETATM   10  C4  UNL     1      14.768  -1.002  49.631  1.00  0.00     0.040 C 
HETATM   11  C5  UNL     1      14.107   0.317  49.743  1.00  0.00     0.004 C 
HETATM   12  C6  UNL     1      14.994   1.503  49.735  1.00  0.00     0.027 C 
HETATM   13  C7  UNL     1      16.341   1.130  49.160  1.00  0.00     0.233 C 
HETATM   14  N3  UNL     1      16.903   0.148  50.074  1.00  0.00    -0.065 N 
ATOM     15  H32 UNL     1      16.964   0.519  51.022  1.00  0.00     0.278 HD
ATOM     16  H31 UNL     1      17.896   0.002  49.893  1.00  0.00     0.278 HD
ENDBRANCH   5   9
TORSDOF 1
ENDMDL
