MODEL 1
REMARK VINA RESULT: -5.673102746      0.000      0.000
REMARK  3 active torsions:
REMARK  status: ('A' for Active; 'I' for Inactive)
REMARK    1  A    between atoms: C2_2  and  S1_3 
REMARK    2  A    between atoms: S1_3  and  C3_4 
REMARK    3  A    between atoms: C4_8  and  O1_9 
ROOT
HETATM    1  C3  UNL     1      16.233  -2.202  52.194  1.00  0.00     0.069 C 
HETATM    2  N1  UNL     1      17.243  -1.456  51.908  1.00  0.00    -0.297 N 
ATOM      3  H1  UNL     1      18.072  -1.362  52.495  1.00  0.00     0.183 HD
HETATM    4  N2  UNL     1      17.061  -0.793  50.701  1.00  0.00    -0.072 NA
HETATM    5  C4  UNL     1      16.076  -1.585  49.975  1.00  0.00     0.327 C 
HETATM    6  N3  UNL     1      15.196  -0.793  49.184  1.00  0.00    -0.017 N 
ATOM      7  H31 UNL     1      14.888  -1.278  48.341  1.00  0.00     0.283 HD
ATOM      8  H32 UNL     1      15.675  -0.013  48.732  1.00  0.00     0.283 HD
HETATM    9  C5  UNL     1      14.099  -0.364  49.998  1.00  0.00     0.124 C 
HETATM   10  C6  UNL     1      14.067   1.150  49.989  1.00  0.00     0.046 C 
HETATM   11  C7  UNL     1      12.769  -0.882  49.493  1.00  0.00     0.046 C 
HETATM   12  C8  UNL     1      14.309  -0.922  51.376  1.00  0.00     0.056 C 
HETATM   13  C9  UNL     1      15.230  -2.088  51.127  1.00  0.00     0.129 C 
ENDROOT
BRANCH   1  14
HETATM   14  S1  UNL     1      16.007  -3.246  53.644  1.00  0.00    -0.116 SA
BRANCH  14  15
HETATM   15  C2  UNL     1      16.577  -4.942  53.281  1.00  0.00     0.076 C 
HETATM   16  C1  UNL     1      17.963  -4.891  52.741  1.00  0.00     0.016 C 
ENDBRANCH  14  15
ENDBRANCH   1  14
BRANCH   5  17
HETATM   17  O1  UNL     1      16.670  -2.628  49.279  1.00  0.00    -0.350 OA
ATOM     18  H1  UNL     1      16.192  -2.838  48.485  1.00  0.00     0.214 HD
ENDBRANCH   5  17
TORSDOF 3
ENDMDL
MODEL 2
REMARK VINA RESULT: -5.624867742      2.440      2.859
REMARK  3 active torsions:
REMARK  status: ('A' for Active; 'I' for Inactive)
REMARK    1  A    between atoms: C2_2  and  S1_3 
REMARK    2  A    between atoms: S1_3  and  C3_4 
REMARK    3  A    between atoms: C4_8  and  O1_9 
ROOT
HETATM    1  C3  UNL     1      15.507  -2.722  52.080  1.00  0.00     0.069 C 
HETATM    2  N1  UNL     1      14.404  -3.379  52.182  1.00  0.00    -0.297 N 
ATOM      3  H1  UNL     1      14.346  -4.367  52.433  1.00  0.00     0.183 HD
HETATM    4  N2  UNL     1      13.305  -2.576  51.909  1.00  0.00    -0.072 NA
HETATM    5  C4  UNL     1      13.762  -1.212  52.139  1.00  0.00     0.327 C 
HETATM    6  N3  UNL     1      13.181  -0.270  51.242  1.00  0.00    -0.017 N 
ATOM      7  H31 UNL     1      13.064   0.650  51.667  1.00  0.00     0.283 HD
ATOM      8  H32 UNL     1      12.198  -0.466  51.055  1.00  0.00     0.283 HD
HETATM    9  C5  UNL     1      13.967  -0.223  50.046  1.00  0.00     0.124 C 
HETATM   10  C6  UNL     1      13.072  -0.577  48.877  1.00  0.00     0.046 C 
HETATM   11  C7  UNL     1      14.566   1.147  49.803  1.00  0.00     0.046 C 
HETATM   12  C8  UNL     1      15.103  -1.191  50.208  1.00  0.00     0.056 C 
HETATM   13  C9  UNL     1      15.208  -1.333  51.704  1.00  0.00     0.129 C 
ENDROOT
BRANCH   1  14
HETATM   14  S1  UNL     1      17.182  -3.329  52.337  1.00  0.00    -0.116 SA
BRANCH  14  15
HETATM   15  C2  UNL     1      17.568  -4.624  51.109  1.00  0.00     0.076 C 
HETATM   16  C1  UNL     1      17.529  -4.033  49.743  1.00  0.00     0.016 C 
ENDBRANCH  14  15
ENDBRANCH   1  14
BRANCH   5  17
HETATM   17  O1  UNL     1      13.654  -0.853  53.475  1.00  0.00    -0.350 OA
ATOM     18  H1  UNL     1      12.749  -0.717  53.730  1.00  0.00     0.214 HD
ENDBRANCH   5  17
TORSDOF 3
ENDMDL
MODEL 3
REMARK VINA RESULT: -5.596216692      1.253      1.614
REMARK  3 active torsions:
REMARK  status: ('A' for Active; 'I' for Inactive)
REMARK    1  A    between atoms: C2_2  and  S1_3 
REMARK    2  A    between atoms: S1_3  and  C3_4 
REMARK    3  A    between atoms: C4_8  and  O1_9 
ROOT
HETATM    1  C3  UNL     1      15.904  -2.301  52.192  1.00  0.00     0.069 C 
HETATM    2  N1  UNL     1      16.967  -1.581  52.093  1.00  0.00    -0.297 N 
ATOM      3  H1  UNL     1      17.710  -1.555  52.792  1.00  0.00     0.183 HD
HETATM    4  N2  UNL     1      16.975  -0.845  50.916  1.00  0.00    -0.072 NA
HETATM    5  C4  UNL     1      16.075  -1.553  50.015  1.00  0.00     0.327 C 
HETATM    6  N3  UNL     1      15.340  -0.682  49.162  1.00  0.00    -0.017 N 
ATOM      7  H31 UNL     1      15.135  -1.106  48.257  1.00  0.00     0.283 HD
ATOM      8  H32 UNL     1      15.901   0.102  48.829  1.00  0.00     0.283 HD
HETATM    9  C5  UNL     1      14.155  -0.255  49.845  1.00  0.00     0.124 C 
HETATM   10  C6  UNL     1      14.175   1.257  49.924  1.00  0.00     0.046 C 
HETATM   11  C7  UNL     1      12.892  -0.689  49.132  1.00  0.00     0.046 C 
HETATM   12  C8  UNL     1      14.154  -0.898  51.201  1.00  0.00     0.056 C 
HETATM   13  C9  UNL     1      15.061  -2.085  51.008  1.00  0.00     0.129 C 
ENDROOT
BRANCH   1  14
HETATM   14  S1  UNL     1      15.445  -3.414  53.531  1.00  0.00    -0.116 SA
BRANCH  14  15
HETATM   15  C2  UNL     1      14.039  -4.458  53.015  1.00  0.00     0.076 C 
HETATM   16  C1  UNL     1      12.764  -3.795  53.406  1.00  0.00     0.016 C 
ENDBRANCH  14  15
ENDBRANCH   1  14
BRANCH   5  17
HETATM   17  O1  UNL     1      16.726  -2.579  49.343  1.00  0.00    -0.350 OA
ATOM     18  H1  UNL     1      17.094  -3.215  49.945  1.00  0.00     0.214 HD
ENDBRANCH   5  17
TORSDOF 3
ENDMDL
MODEL 4
REMARK VINA RESULT: -5.583578821      1.245      1.669
REMARK  3 active torsions:
REMARK  status: ('A' for Active; 'I' for Inactive)
REMARK    1  A    between atoms: C2_2  and  S1_3 
REMARK    2  A    between atoms: S1_3  and  C3_4 
REMARK    3  A    between atoms: C4_8  and  O1_9 
ROOT
HETATM    1  C3  UNL     1      16.291  -2.132  52.292  1.00  0.00     0.069 C 
HETATM    2  N1  UNL     1      17.303  -1.443  51.893  1.00  0.00    -0.297 N 
ATOM      3  H1  UNL     1      18.166  -1.330  52.425  1.00  0.00     0.183 HD
HETATM    4  N2  UNL     1      17.071  -0.872  50.648  1.00  0.00    -0.072 NA
HETATM    5  C4  UNL     1      16.026  -1.686  50.043  1.00  0.00     0.327 C 
HETATM    6  N3  UNL     1      15.125  -0.931  49.239  1.00  0.00    -0.017 N 
ATOM      7  H31 UNL     1      14.757  -1.471  48.456  1.00  0.00     0.283 HD
ATOM      8  H32 UNL     1      15.598  -0.205  48.701  1.00  0.00     0.283 HD
HETATM    9  C5  UNL     1      14.088  -0.405  50.075  1.00  0.00     0.124 C 
HETATM   10  C6  UNL     1      14.097   1.104  49.946  1.00  0.00     0.046 C 
HETATM   11  C7  UNL     1      12.718  -0.918  49.685  1.00  0.00     0.046 C 
HETATM   12  C8  UNL     1      14.360  -0.859  51.480  1.00  0.00     0.056 C 
HETATM   13  C9  UNL     1      15.232  -2.070  51.275  1.00  0.00     0.129 C 
ENDROOT
BRANCH   1  14
HETATM   14  S1  UNL     1      16.118  -3.051  53.831  1.00  0.00    -0.116 SA
BRANCH  14  15
HETATM   15  C2  UNL     1      15.549  -1.935  55.159  1.00  0.00     0.076 C 
HETATM   16  C1  UNL     1      16.572  -0.876  55.383  1.00  0.00     0.016 C 
ENDBRANCH  14  15
ENDBRANCH   1  14
BRANCH   5  17
HETATM   17  O1  UNL     1      16.551  -2.800  49.401  1.00  0.00    -0.350 OA
ATOM     18  H1  UNL     1      16.144  -3.603  49.703  1.00  0.00     0.214 HD
ENDBRANCH   5  17
TORSDOF 3
ENDMDL
MODEL 5
REMARK VINA RESULT: -5.477219771      2.678      3.581
REMARK  3 active torsions:
REMARK  status: ('A' for Active; 'I' for Inactive)
REMARK    1  A    between atoms: C2_2  and  S1_3 
REMARK    2  A    between atoms: S1_3  and  C3_4 
REMARK    3  A    between atoms: C4_8  and  O1_9 
ROOT
HETATM    1  C3  UNL     1      13.351  -2.228  52.973  1.00  0.00     0.069 C 
HETATM    2  N1  UNL     1      14.449  -1.771  53.467  1.00  0.00    -0.297 N 
ATOM      3  H1  UNL     1      14.676  -1.772  54.461  1.00  0.00     0.183 HD
HETATM    4  N2  UNL     1      15.288  -1.279  52.475  1.00  0.00    -0.072 NA
HETATM    5  C4  UNL     1      14.859  -1.939  51.249  1.00  0.00     0.327 C 
HETATM    6  N3  UNL     1      14.964  -1.106  50.099  1.00  0.00    -0.017 N 
ATOM      7  H31 UNL     1      15.171  -1.635  49.253  1.00  0.00     0.283 HD
ATOM      8  H32 UNL     1      15.805  -0.527  50.114  1.00  0.00     0.283 HD
HETATM    9  C5  UNL     1      13.768  -0.328  49.978  1.00  0.00     0.124 C 
HETATM   10  C6  UNL     1      14.151   1.136  50.001  1.00  0.00     0.046 C 
HETATM   11  C7  UNL     1      13.022  -0.616  48.692  1.00  0.00     0.046 C 
HETATM   12  C8  UNL     1      12.865  -0.700  51.118  1.00  0.00     0.056 C 
HETATM   13  C9  UNL     1      13.372  -2.063  51.513  1.00  0.00     0.129 C 
ENDROOT
BRANCH   1  14
HETATM   14  S1  UNL     1      11.964  -2.962  53.857  1.00  0.00    -0.116 SA
BRANCH  14  15
HETATM   15  C2  UNL     1      11.307  -1.772  55.076  1.00  0.00     0.076 C 
HETATM   16  C1  UNL     1       9.986  -1.269  54.609  1.00  0.00     0.016 C 
ENDBRANCH  14  15
ENDBRANCH   1  14
BRANCH   5  17
HETATM   17  O1  UNL     1      15.460  -3.181  51.098  1.00  0.00    -0.350 OA
ATOM     18  H1  UNL     1      15.835  -3.286  50.232  1.00  0.00     0.214 HD
ENDBRANCH   5  17
TORSDOF 3
ENDMDL
