MODEL 1
REMARK VINA RESULT: -5.321966515      0.000      0.000
REMARK  2 active torsions:
REMARK  status: ('A' for Active; 'I' for Inactive)
REMARK    1  A    between atoms: C2_7  and  S2_8 
REMARK    2  A    between atoms: S2_8  and  C3_9 
ROOT
HETATM    1  C3  UNL     1      16.813  -3.644  51.479  1.00  0.00     0.281 C 
HETATM    2  C4  UNL     1      17.280  -2.614  52.471  1.00  0.00     0.278 C 
HETATM    3  N3  UNL     1      18.032  -3.360  53.453  1.00  0.00    -0.049 N 
ATOM      4  H31 UNL     1      17.637  -3.294  54.391  1.00  0.00     0.279 HD
ATOM      5  H32 UNL     1      18.939  -2.943  53.660  1.00  0.00     0.279 HD
HETATM    6  C5  UNL     1      18.133  -4.708  52.985  1.00  0.00     0.464 C 
HETATM    7  N4  UNL     1      17.873  -4.633  51.568  1.00  0.00    -0.036 N 
ATOM      8  H41 UNL     1      18.693  -4.430  50.996  1.00  0.00     0.280 HD
ATOM      9  H42 UNL     1      17.658  -5.527  51.128  1.00  0.00     0.280 HD
ENDROOT
BRANCH   1  10
HETATM   10  S2  UNL     1      16.817  -3.069  49.788  1.00  0.00    -0.068 SA
BRANCH  10  11
HETATM   11  C2  UNL     1      16.638  -1.314  49.652  1.00  0.00     0.131 A 
HETATM   12  N2  UNL     1      17.615  -0.452  49.459  1.00  0.00    -0.286 N 
HETATM   13  N1  UNL     1      17.367   0.789  49.376  1.00  0.00    -0.283 N 
ATOM     14  H2  UNL     1      18.575  -0.785  49.376  1.00  0.00     0.188 HD
HETATM   15  C1  UNL     1      16.107   1.209  49.484  1.00  0.00     0.159 A 
ATOM     16  H1  UNL     1      18.123   1.457  49.228  1.00  0.00     0.188 HD
HETATM   17  S1  UNL     1      15.548   2.765  49.406  1.00  0.00    -0.051 SA
HETATM   18  S3  UNL     1      15.268  -0.268  49.716  1.00  0.00    -0.033 SA
ENDBRANCH  10  11
ENDBRANCH   1  10
TORSDOF 2
ENDMDL
MODEL 2
REMARK VINA RESULT: -5.190831258      1.994      5.686
REMARK  2 active torsions:
REMARK  status: ('A' for Active; 'I' for Inactive)
REMARK    1  A    between atoms: C2_7  and  S2_8 
REMARK    2  A    between atoms: S2_8  and  C3_9 
ROOT
HETATM    1  C3  UNL     1      15.099   0.641  49.555  1.00  0.00     0.281 C 
HETATM    2  C4  UNL     1      16.596   0.575  49.426  1.00  0.00     0.278 C 
HETATM    3  N3  UNL     1      16.997   1.919  49.080  1.00  0.00    -0.049 N 
ATOM      4  H31 UNL     1      17.466   1.973  48.176  1.00  0.00     0.279 HD
ATOM      5  H32 UNL     1      17.768   2.263  49.651  1.00  0.00     0.279 HD
HETATM    6  C5  UNL     1      15.835   2.748  49.154  1.00  0.00     0.464 C 
HETATM    7  N4  UNL     1      14.905   2.017  49.980  1.00  0.00    -0.036 N 
ATOM      8  H41 UNL     1      15.014   2.171  50.982  1.00  0.00     0.280 HD
ATOM      9  H42 UNL     1      13.941   2.345  49.929  1.00  0.00     0.280 HD
ENDROOT
BRANCH   1  10
HETATM   10  S2  UNL     1      14.443  -0.377  50.867  1.00  0.00    -0.068 SA
BRANCH  10  11
HETATM   11  C2  UNL     1      15.636  -1.499  51.537  1.00  0.00     0.131 A 
HETATM   12  N2  UNL     1      16.576  -1.195  52.408  1.00  0.00    -0.286 N 
HETATM   13  N1  UNL     1      17.379  -2.086  52.821  1.00  0.00    -0.283 N 
ATOM     14  H2  UNL     1      16.659  -0.239  52.751  1.00  0.00     0.188 HD
HETATM   15  C1  UNL     1      17.258  -3.332  52.365  1.00  0.00     0.159 A 
ATOM     16  H1  UNL     1      18.108  -1.851  53.494  1.00  0.00     0.188 HD
HETATM   17  S1  UNL     1      18.179  -4.649  52.759  1.00  0.00    -0.051 SA
HETATM   18  S3  UNL     1      15.925  -3.183  51.298  1.00  0.00    -0.033 SA
ENDBRANCH  10  11
ENDBRANCH   1  10
TORSDOF 2
ENDMDL
MODEL 3
REMARK VINA RESULT: -5.146988626      2.743      5.425
REMARK  2 active torsions:
REMARK  status: ('A' for Active; 'I' for Inactive)
REMARK    1  A    between atoms: C2_7  and  S2_8 
REMARK    2  A    between atoms: S2_8  and  C3_9 
ROOT
HETATM    1  C3  UNL     1      15.433   0.318  49.209  1.00  0.00     0.281 C 
HETATM    2  C4  UNL     1      16.795   0.953  49.291  1.00  0.00     0.278 C 
HETATM    3  N3  UNL     1      16.536   2.352  49.537  1.00  0.00    -0.049 N 
ATOM      4  H31 UNL     1      16.897   2.958  48.801  1.00  0.00     0.279 HD
ATOM      5  H32 UNL     1      17.091   2.730  50.305  1.00  0.00     0.279 HD
HETATM    6  C5  UNL     1      15.129   2.502  49.742  1.00  0.00     0.464 C 
HETATM    7  N4  UNL     1      14.658   1.182  50.083  1.00  0.00    -0.036 N 
ATOM      8  H41 UNL     1      14.723   0.951  51.075  1.00  0.00     0.280 HD
ATOM      9  H42 UNL     1      13.648   1.060  50.015  1.00  0.00     0.280 HD
ENDROOT
BRANCH   1  10
HETATM   10  S2  UNL     1      15.353  -1.313  49.931  1.00  0.00    -0.068 SA
BRANCH  10  11
HETATM   11  C2  UNL     1      15.806  -1.339  51.641  1.00  0.00     0.131 A 
HETATM   12  N2  UNL     1      17.033  -1.419  52.112  1.00  0.00    -0.286 N 
HETATM   13  N1  UNL     1      17.238  -1.428  53.364  1.00  0.00    -0.283 N 
ATOM     14  H2  UNL     1      17.821  -1.473  51.468  1.00  0.00     0.188 HD
HETATM   15  C1  UNL     1      16.199  -1.355  54.194  1.00  0.00     0.159 A 
ATOM     16  H1  UNL     1      18.188  -1.491  53.730  1.00  0.00     0.188 HD
HETATM   17  S1  UNL     1      16.223  -1.348  55.849  1.00  0.00    -0.051 SA
HETATM   18  S3  UNL     1      14.884  -1.271  53.097  1.00  0.00    -0.033 SA
ENDBRANCH  10  11
ENDBRANCH   1  10
TORSDOF 2
ENDMDL
MODEL 4
REMARK VINA RESULT: -5.117393964      2.838      5.102
REMARK  2 active torsions:
REMARK  status: ('A' for Active; 'I' for Inactive)
REMARK    1  A    between atoms: C2_7  and  S2_8 
REMARK    2  A    between atoms: S2_8  and  C3_9 
ROOT
HETATM    1  C3  UNL     1      16.106  -1.090  49.647  1.00  0.00     0.281 C 
HETATM    2  C4  UNL     1      17.453  -0.424  49.725  1.00  0.00     0.278 C 
HETATM    3  N3  UNL     1      17.188   0.975  49.480  1.00  0.00    -0.049 N 
ATOM      4  H31 UNL     1      17.665   1.330  48.652  1.00  0.00     0.279 HD
ATOM      5  H32 UNL     1      17.631   1.588  50.163  1.00  0.00     0.279 HD
HETATM    6  C5  UNL     1      15.769   1.141  49.419  1.00  0.00     0.464 C 
HETATM    7  N4  UNL     1      15.228  -0.019  50.085  1.00  0.00    -0.036 N 
ATOM      8  H41 UNL     1      15.141   0.074  51.097  1.00  0.00     0.280 HD
ATOM      9  H42 UNL     1      14.236  -0.184  49.911  1.00  0.00     0.280 HD
ENDROOT
BRANCH   1  10
HETATM   10  S2  UNL     1      15.889  -2.416  50.823  1.00  0.00    -0.068 SA
BRANCH  10  11
HETATM   11  C2  UNL     1      16.087  -1.895  52.502  1.00  0.00     0.131 A 
HETATM   12  N2  UNL     1      17.232  -1.646  53.103  1.00  0.00    -0.286 N 
HETATM   13  N1  UNL     1      17.252  -1.276  54.316  1.00  0.00    -0.283 N 
ATOM     14  H2  UNL     1      18.107  -1.753  52.590  1.00  0.00     0.188 HD
HETATM   15  C1  UNL     1      16.102  -1.139  54.973  1.00  0.00     0.159 A 
ATOM     16  H1  UNL     1      18.139  -1.084  54.782  1.00  0.00     0.188 HD
HETATM   17  S1  UNL     1      15.882  -0.669  56.545  1.00  0.00    -0.051 SA
HETATM   18  S3  UNL     1      14.961  -1.571  53.768  1.00  0.00    -0.033 SA
ENDBRANCH  10  11
ENDBRANCH   1  10
TORSDOF 2
ENDMDL
MODEL 5
REMARK VINA RESULT: -5.084617341      2.175      5.844
REMARK  2 active torsions:
REMARK  status: ('A' for Active; 'I' for Inactive)
REMARK    1  A    between atoms: C2_7  and  S2_8 
REMARK    2  A    between atoms: S2_8  and  C3_9 
ROOT
HETATM    1  C3  UNL     1      16.004  -1.101  49.719  1.00  0.00     0.281 C 
HETATM    2  C4  UNL     1      17.351  -0.532  50.075  1.00  0.00     0.278 C 
HETATM    3  N3  UNL     1      17.379   0.770  49.449  1.00  0.00    -0.049 N 
ATOM      4  H31 UNL     1      18.126   0.864  48.761  1.00  0.00     0.279 HD
ATOM      5  H32 UNL     1      17.685   1.508  50.081  1.00  0.00     0.279 HD
HETATM    6  C5  UNL     1      16.082   1.011  48.897  1.00  0.00     0.464 C 
HETATM    7  N4  UNL     1      15.204   0.105  49.596  1.00  0.00    -0.036 N 
ATOM      8  H41 UNL     1      14.836   0.463  50.477  1.00  0.00     0.280 HD
ATOM      9  H42 UNL     1      14.295  -0.032  49.153  1.00  0.00     0.280 HD
ENDROOT
BRANCH   1  10
HETATM   10  S2  UNL     1      15.257  -2.057  51.029  1.00  0.00    -0.068 SA
BRANCH  10  11
HETATM   11  C2  UNL     1      16.080  -3.597  51.320  1.00  0.00     0.131 A 
HETATM   12  N2  UNL     1      17.089  -4.076  50.624  1.00  0.00    -0.286 N 
HETATM   13  N1  UNL     1      17.602  -5.196  50.926  1.00  0.00    -0.283 N 
ATOM     14  H2  UNL     1      17.460  -3.543  49.838  1.00  0.00     0.188 HD
HETATM   15  C1  UNL     1      17.108  -5.880  51.957  1.00  0.00     0.159 A 
ATOM     16  H1  UNL     1      18.383  -5.568  50.387  1.00  0.00     0.188 HD
HETATM   17  S1  UNL     1      17.612  -7.347  52.534  1.00  0.00    -0.051 SA
HETATM   18  S3  UNL     1      15.853  -4.842  52.492  1.00  0.00    -0.033 SA
ENDBRANCH  10  11
ENDBRANCH   1  10
TORSDOF 2
ENDMDL
