MODEL 1
REMARK VINA RESULT: -8.751745395      0.000      0.000
REMARK  13 active torsions:
REMARK  status: ('A' for Active; 'I' for Inactive)
REMARK    1  A    between atoms: N2_6  and  C5_7 
REMARK    2  A    between atoms: C5_7  and  C6_8 
REMARK    3  A    between atoms: C6_8  and  C7_9 
REMARK    4  A    between atoms: C7_9  and  N3_10 
REMARK    5  A    between atoms: N3_10  and  C8_13 
REMARK    6  A    between atoms: C8_13  and  C9_14 
REMARK    7  A    between atoms: C9_14  and  C10_15 
REMARK    8  A    between atoms: C10_15  and  N4_16 
REMARK    9  A    between atoms: N4_16  and  C11_18 
REMARK   10  A    between atoms: C17_26  and  C18_27 
REMARK   11  A    between atoms: C20_30  and  N6_31 
REMARK   12  A    between atoms: N6_31  and  C21_33 
REMARK   13  A    between atoms: C21_33  and  C22_34 
ROOT
HETATM    1  C22 UNL     1      10.345 -21.479  29.993  1.00  0.00     0.143 C 
HETATM    2  C23 UNL     1       9.975 -22.675  29.250  1.00  0.00     0.060 C 
HETATM    3  N7  UNL     1       9.676 -23.643  28.662  1.00  0.00    -0.197 NA
ENDROOT
BRANCH   1   4
HETATM    4  C21 UNL     1      10.194 -21.716  31.498  1.00  0.00     0.136 C 
BRANCH   4   5
HETATM    5  N6  UNL     1      11.525 -21.897  32.027  1.00  0.00    -0.370 N 
ATOM      6  H6  UNL     1      12.118 -22.674  31.736  1.00  0.00     0.161 HD
BRANCH   5   7
HETATM    7  C20 UNL     1      11.934 -21.003  32.909  1.00  0.00     0.144 A 
HETATM    8  S1  UNL     1      11.025 -19.906  33.830  1.00  0.00    -0.064 SA
HETATM    9  C19 UNL     1      12.309 -19.163  34.667  1.00  0.00     0.083 A 
HETATM   10  C18 UNL     1      13.408 -19.824  34.174  1.00  0.00     0.051 A 
HETATM   11  N8  UNL     1      13.191 -20.761  33.277  1.00  0.00    -0.336 N 
ATOM     12  H8  UNL     1      13.966 -21.288  32.873  1.00  0.00     0.168 HD
BRANCH  10  13
HETATM   13  C17 UNL     1      14.786 -19.480  34.649  1.00  0.00    -0.008 A 
HETATM   14  C16 UNL     1      15.846 -19.465  33.779  1.00  0.00     0.016 A 
HETATM   15  C15 UNL     1      17.134 -19.144  34.217  1.00  0.00     0.031 A 
HETATM   16  C14 UNL     1      17.384 -18.834  35.530  1.00  0.00     0.044 A 
HETATM   17  N5  UNL     1      18.629 -18.517  35.974  1.00  0.00    -0.365 N 
HETATM   18  C25 UNL     1      16.329 -18.845  36.414  1.00  0.00     0.018 A 
HETATM   19  C13 UNL     1      18.894 -18.208  37.254  1.00  0.00     0.090 A 
ATOM     20  H5  UNL     1      19.398 -18.514  35.303  1.00  0.00     0.165 HD
HETATM   21  C12 UNL     1      17.828 -18.220  38.149  1.00  0.00     0.047 A 
HETATM   22  C11 UNL     1      16.555 -18.533  37.747  1.00  0.00     0.042 A 
HETATM   23  C24 UNL     1      15.056 -19.166  35.960  1.00  0.00     0.029 A 
BRANCH  22  24
HETATM   24  N4  UNL     1      15.557 -18.551  38.537  1.00  0.00    -0.389 N 
ATOM     25  H4  UNL     1      14.762 -17.981  38.246  1.00  0.00     0.159 HD
BRANCH  24  26
HETATM   26  C10 UNL     1      15.387 -19.245  39.761  1.00  0.00     0.121 C 
BRANCH  26  27
HETATM   27  C9  UNL     1      14.009 -19.909  39.835  1.00  0.00     0.047 C 
BRANCH  27  28
HETATM   28  C8  UNL     1      12.931 -18.979  39.306  1.00  0.00     0.234 C 
BRANCH  28  29
HETATM   29  N3  UNL     1      12.158 -19.595  38.263  1.00  0.00    -0.075 N 
ATOM     30  H32 UNL     1      12.211 -19.070  37.391  1.00  0.00     0.277 HD
ATOM     31  H31 UNL     1      11.156 -19.508  38.431  1.00  0.00     0.277 HD
BRANCH  29  32
HETATM   32  C7  UNL     1      12.555 -20.964  38.089  1.00  0.00     0.234 C 
BRANCH  32  33
HETATM   33  C6  UNL     1      11.582 -21.716  37.187  1.00  0.00     0.057 C 
BRANCH  33  34
HETATM   34  C5  UNL     1      10.215 -21.110  37.401  1.00  0.00     0.274 C 
BRANCH  34  35
HETATM   35  N2  UNL     1       9.245 -21.594  36.469  1.00  0.00     0.090 N 
HETATM   36  C4  UNL     1       9.673 -22.850  35.923  1.00  0.00     0.274 C 
HETATM   37  C3  UNL     1       8.872 -24.033  36.431  1.00  0.00     0.060 C 
HETATM   38  C2  UNL     1       7.623 -24.221  35.594  1.00  0.00     0.273 C 
HETATM   39  N1  UNL     1       6.564 -23.357  36.144  1.00  0.00     0.086 N 
HETATM   40  C1  UNL     1       5.281 -23.680  35.567  1.00  0.00     0.309 C 
HETATM   41  C27 UNL     1       6.905 -21.974  35.853  1.00  0.00     0.302 C 
HETATM   42  C26 UNL     1       7.894 -21.529  36.909  1.00  0.00     0.302 C 
ENDBRANCH  34  35
ENDBRANCH  33  34
ENDBRANCH  32  33
ENDBRANCH  29  32
ENDBRANCH  28  29
ENDBRANCH  27  28
ENDBRANCH  26  27
ENDBRANCH  24  26
ENDBRANCH  22  24
ENDBRANCH  10  13
ENDBRANCH   5   7
ENDBRANCH   4   5
ENDBRANCH   1   4
TORSDOF 13
ENDMDL
MODEL 2
REMARK VINA RESULT: -8.627886325      1.772      8.154
REMARK  13 active torsions:
REMARK  status: ('A' for Active; 'I' for Inactive)
REMARK    1  A    between atoms: N2_6  and  C5_7 
REMARK    2  A    between atoms: C5_7  and  C6_8 
REMARK    3  A    between atoms: C6_8  and  C7_9 
REMARK    4  A    between atoms: C7_9  and  N3_10 
REMARK    5  A    between atoms: N3_10  and  C8_13 
REMARK    6  A    between atoms: C8_13  and  C9_14 
REMARK    7  A    between atoms: C9_14  and  C10_15 
REMARK    8  A    between atoms: C10_15  and  N4_16 
REMARK    9  A    between atoms: N4_16  and  C11_18 
REMARK   10  A    between atoms: C17_26  and  C18_27 
REMARK   11  A    between atoms: C20_30  and  N6_31 
REMARK   12  A    between atoms: N6_31  and  C21_33 
REMARK   13  A    between atoms: C21_33  and  C22_34 
ROOT
HETATM    1  C22 UNL     1      16.633 -19.083  34.263  1.00  0.00     0.143 C 
HETATM    2  C23 UNL     1      16.300 -18.289  33.089  1.00  0.00     0.060 C 
HETATM    3  N7  UNL     1      16.029 -17.659  32.139  1.00  0.00    -0.197 NA
ENDROOT
BRANCH   1   4
HETATM    4  C21 UNL     1      16.257 -20.550  34.041  1.00  0.00     0.136 C 
BRANCH   4   5
HETATM    5  N6  UNL     1      15.192 -20.853  34.968  1.00  0.00    -0.370 N 
ATOM      6  H6  UNL     1      15.375 -21.291  35.871  1.00  0.00     0.161 HD
BRANCH   5   7
HETATM    7  C20 UNL     1      13.970 -20.533  34.584  1.00  0.00     0.144 A 
HETATM    8  S1  UNL     1      13.029 -19.185  35.001  1.00  0.00    -0.064 SA
HETATM    9  C19 UNL     1      11.640 -19.561  34.090  1.00  0.00     0.083 A 
HETATM   10  C18 UNL     1      11.989 -20.748  33.491  1.00  0.00     0.051 A 
HETATM   11  N8  UNL     1      13.185 -21.225  33.759  1.00  0.00    -0.336 N 
ATOM     12  H8  UNL     1      13.504 -22.102  33.346  1.00  0.00     0.168 HD
BRANCH  10  13
HETATM   13  C17 UNL     1      11.037 -21.454  32.577  1.00  0.00    -0.008 A 
HETATM   14  C16 UNL     1      11.229 -21.447  31.219  1.00  0.00     0.016 A 
HETATM   15  C15 UNL     1      10.344 -22.104  30.361  1.00  0.00     0.031 A 
HETATM   16  C14 UNL     1       9.251 -22.780  30.845  1.00  0.00     0.044 A 
HETATM   17  N5  UNL     1       8.381 -23.428  30.026  1.00  0.00    -0.365 N 
HETATM   18  C25 UNL     1       9.046 -22.796  32.206  1.00  0.00     0.018 A 
HETATM   19  C13 UNL     1       7.308 -24.097  30.481  1.00  0.00     0.090 A 
ATOM     20  H5  UNL     1       8.550 -23.404  29.020  1.00  0.00     0.165 HD
HETATM   21  C12 UNL     1       7.099 -24.113  31.857  1.00  0.00     0.047 A 
HETATM   22  C11 UNL     1       7.951 -23.474  32.721  1.00  0.00     0.042 A 
HETATM   23  C24 UNL     1       9.938 -22.137  33.043  1.00  0.00     0.029 A 
BRANCH  22  24
HETATM   24  N4  UNL     1       7.792 -23.471  33.984  1.00  0.00    -0.389 N 
ATOM     25  H4  UNL     1       7.930 -22.567  34.437  1.00  0.00     0.159 HD
BRANCH  24  26
HETATM   26  C10 UNL     1       7.450 -24.537  34.854  1.00  0.00     0.121 C 
BRANCH  26  27
HETATM   27  C9  UNL     1       8.221 -24.443  36.173  1.00  0.00     0.047 C 
BRANCH  27  28
HETATM   28  C8  UNL     1       8.795 -23.051  36.368  1.00  0.00     0.234 C 
BRANCH  28  29
HETATM   29  N3  UNL     1      10.216 -23.084  36.582  1.00  0.00    -0.075 N 
ATOM     30  H32 UNL     1      10.702 -23.574  35.831  1.00  0.00     0.277 HD
ATOM     31  H31 UNL     1      10.470 -23.701  37.353  1.00  0.00     0.277 HD
BRANCH  29  32
HETATM   32  C7  UNL     1      10.724 -21.754  36.770  1.00  0.00     0.234 C 
BRANCH  32  33
HETATM   33  C6  UNL     1      11.984 -21.756  37.629  1.00  0.00     0.057 C 
BRANCH  33  34
HETATM   34  C5  UNL     1      11.818 -20.671  38.668  1.00  0.00     0.274 C 
BRANCH  34  35
HETATM   35  N2  UNL     1      12.906 -19.745  38.678  1.00  0.00     0.090 N 
HETATM   36  C4  UNL     1      12.824 -18.904  39.838  1.00  0.00     0.274 C 
HETATM   37  C3  UNL     1      13.880 -19.209  40.882  1.00  0.00     0.060 C 
HETATM   38  C2  UNL     1      15.160 -18.463  40.568  1.00  0.00     0.273 C 
HETATM   39  N1  UNL     1      15.952 -19.278  39.631  1.00  0.00     0.086 N 
HETATM   40  C1  UNL     1      17.292 -18.759  39.497  1.00  0.00     0.309 C 
HETATM   41  C27 UNL     1      15.284 -19.267  38.339  1.00  0.00     0.302 C 
HETATM   42  C26 UNL     1      14.184 -20.304  38.399  1.00  0.00     0.302 C 
ENDBRANCH  34  35
ENDBRANCH  33  34
ENDBRANCH  32  33
ENDBRANCH  29  32
ENDBRANCH  28  29
ENDBRANCH  27  28
ENDBRANCH  26  27
ENDBRANCH  24  26
ENDBRANCH  22  24
ENDBRANCH  10  13
ENDBRANCH   5   7
ENDBRANCH   4   5
ENDBRANCH   1   4
TORSDOF 13
ENDMDL
MODEL 3
REMARK VINA RESULT: -8.454763142      1.512      5.120
REMARK  13 active torsions:
REMARK  status: ('A' for Active; 'I' for Inactive)
REMARK    1  A    between atoms: N2_6  and  C5_7 
REMARK    2  A    between atoms: C5_7  and  C6_8 
REMARK    3  A    between atoms: C6_8  and  C7_9 
REMARK    4  A    between atoms: C7_9  and  N3_10 
REMARK    5  A    between atoms: N3_10  and  C8_13 
REMARK    6  A    between atoms: C8_13  and  C9_14 
REMARK    7  A    between atoms: C9_14  and  C10_15 
REMARK    8  A    between atoms: C10_15  and  N4_16 
REMARK    9  A    between atoms: N4_16  and  C11_18 
REMARK   10  A    between atoms: C17_26  and  C18_27 
REMARK   11  A    between atoms: C20_30  and  N6_31 
REMARK   12  A    between atoms: N6_31  and  C21_33 
REMARK   13  A    between atoms: C21_33  and  C22_34 
ROOT
HETATM    1  C22 UNL     1       7.774 -24.683  35.457  1.00  0.00     0.143 C 
HETATM    2  C23 UNL     1       6.591 -23.856  35.647  1.00  0.00     0.060 C 
HETATM    3  N7  UNL     1       5.643 -23.187  35.809  1.00  0.00    -0.197 NA
ENDROOT
BRANCH   1   4
HETATM    4  C21 UNL     1       8.751 -24.492  36.620  1.00  0.00     0.136 C 
BRANCH   4   5
HETATM    5  N6  UNL     1       9.973 -23.968  36.056  1.00  0.00    -0.370 N 
ATOM      6  H6  UNL     1      10.553 -24.520  35.424  1.00  0.00     0.161 HD
BRANCH   5   7
HETATM    7  C20 UNL     1      10.299 -22.736  36.403  1.00  0.00     0.144 A 
HETATM    8  S1  UNL     1       9.539 -21.271  36.012  1.00  0.00    -0.064 SA
HETATM    9  C19 UNL     1      10.587 -20.219  36.846  1.00  0.00     0.083 A 
HETATM   10  C18 UNL     1      11.499 -21.084  37.401  1.00  0.00     0.051 A 
HETATM   11  N8  UNL     1      11.331 -22.366  37.161  1.00  0.00    -0.336 N 
ATOM     12  H8  UNL     1      11.974 -23.060  37.544  1.00  0.00     0.168 HD
BRANCH  10  13
HETATM   13  C17 UNL     1      12.629 -20.573  38.239  1.00  0.00    -0.008 A 
HETATM   14  C16 UNL     1      12.549 -20.581  39.608  1.00  0.00     0.016 A 
HETATM   15  C15 UNL     1      13.601 -20.106  40.395  1.00  0.00     0.031 A 
HETATM   16  C14 UNL     1      14.750 -19.613  39.829  1.00  0.00     0.044 A 
HETATM   17  N5  UNL     1      15.784 -19.149  40.578  1.00  0.00    -0.365 N 
HETATM   18  C25 UNL     1      14.843 -19.599  38.456  1.00  0.00     0.018 A 
HETATM   19  C13 UNL     1      16.918 -18.665  40.042  1.00  0.00     0.090 A 
ATOM     20  H5  UNL     1      15.695 -19.168  41.595  1.00  0.00     0.165 HD
HETATM   21  C12 UNL     1      17.013 -18.649  38.654  1.00  0.00     0.047 A 
HETATM   22  C11 UNL     1      15.996 -19.108  37.858  1.00  0.00     0.042 A 
HETATM   23  C24 UNL     1      13.787 -20.077  37.690  1.00  0.00     0.029 A 
BRANCH  22  24
HETATM   24  N4  UNL     1      16.050 -19.111  36.586  1.00  0.00    -0.389 N 
ATOM     25  H4  UNL     1      15.220 -19.471  36.116  1.00  0.00     0.159 HD
BRANCH  24  26
HETATM   26  C10 UNL     1      17.095 -18.686  35.726  1.00  0.00     0.121 C 
BRANCH  26  27
HETATM   27  C9  UNL     1      16.901 -19.230  34.308  1.00  0.00     0.047 C 
BRANCH  27  28
HETATM   28  C8  UNL     1      15.512 -18.906  33.789  1.00  0.00     0.234 C 
BRANCH  28  29
HETATM   29  N3  UNL     1      14.739 -20.094  33.549  1.00  0.00    -0.075 N 
ATOM     30  H32 UNL     1      15.184 -20.922  33.944  1.00  0.00     0.277 HD
ATOM     31  H31 UNL     1      14.756 -20.366  32.567  1.00  0.00     0.277 HD
BRANCH  29  32
HETATM   32  C7  UNL     1      13.399 -19.925  34.035  1.00  0.00     0.234 C 
BRANCH  32  33
HETATM   33  C6  UNL     1      12.538 -21.146  33.732  1.00  0.00     0.057 C 
BRANCH  33  34
HETATM   34  C5  UNL     1      11.486 -20.715  32.736  1.00  0.00     0.274 C 
BRANCH  34  35
HETATM   35  N2  UNL     1      11.061 -21.783  31.887  1.00  0.00     0.090 N 
HETATM   36  C4  UNL     1      10.374 -22.780  32.657  1.00  0.00     0.274 C 
HETATM   37  C3  UNL     1       8.879 -22.811  32.412  1.00  0.00     0.060 C 
HETATM   38  C2  UNL     1       8.560 -23.678  31.212  1.00  0.00     0.273 C 
HETATM   39  N1  UNL     1       8.671 -22.848  30.000  1.00  0.00     0.086 N 
HETATM   40  C1  UNL     1       8.126 -23.533  28.853  1.00  0.00     0.309 C 
HETATM   41  C27 UNL     1      10.077 -22.549  29.778  1.00  0.00     0.302 C 
HETATM   42  C26 UNL     1      10.429 -21.383  30.676  1.00  0.00     0.302 C 
ENDBRANCH  34  35
ENDBRANCH  33  34
ENDBRANCH  32  33
ENDBRANCH  29  32
ENDBRANCH  28  29
ENDBRANCH  27  28
ENDBRANCH  26  27
ENDBRANCH  24  26
ENDBRANCH  22  24
ENDBRANCH  10  13
ENDBRANCH   5   7
ENDBRANCH   4   5
ENDBRANCH   1   4
TORSDOF 13
ENDMDL
MODEL 4
REMARK VINA RESULT: -8.364907361      2.217      3.510
REMARK  13 active torsions:
REMARK  status: ('A' for Active; 'I' for Inactive)
REMARK    1  A    between atoms: N2_6  and  C5_7 
REMARK    2  A    between atoms: C5_7  and  C6_8 
REMARK    3  A    between atoms: C6_8  and  C7_9 
REMARK    4  A    between atoms: C7_9  and  N3_10 
REMARK    5  A    between atoms: N3_10  and  C8_13 
REMARK    6  A    between atoms: C8_13  and  C9_14 
REMARK    7  A    between atoms: C9_14  and  C10_15 
REMARK    8  A    between atoms: C10_15  and  N4_16 
REMARK    9  A    between atoms: N4_16  and  C11_18 
REMARK   10  A    between atoms: C17_26  and  C18_27 
REMARK   11  A    between atoms: C20_30  and  N6_31 
REMARK   12  A    between atoms: N6_31  and  C21_33 
REMARK   13  A    between atoms: C21_33  and  C22_34 
ROOT
HETATM    1  C22 UNL     1      12.230 -21.238  33.090  1.00  0.00     0.143 C 
HETATM    2  C23 UNL     1      12.290 -22.291  34.093  1.00  0.00     0.060 C 
HETATM    3  N7  UNL     1      12.347 -23.134  34.905  1.00  0.00    -0.197 NA
ENDROOT
BRANCH   1   4
HETATM    4  C21 UNL     1      13.176 -20.093  33.460  1.00  0.00     0.136 C 
BRANCH   4   5
HETATM    5  N6  UNL     1      14.386 -20.698  33.965  1.00  0.00    -0.370 N 
ATOM      6  H6  UNL     1      14.524 -21.709  33.960  1.00  0.00     0.161 HD
BRANCH   5   7
HETATM    7  C20 UNL     1      15.305 -19.873  34.433  1.00  0.00     0.144 A 
HETATM    8  S1  UNL     1      16.455 -18.953  33.592  1.00  0.00    -0.064 SA
HETATM    9  C19 UNL     1      17.202 -18.209  34.929  1.00  0.00     0.083 A 
HETATM   10  C18 UNL     1      16.499 -18.727  35.991  1.00  0.00     0.051 A 
HETATM   11  N8  UNL     1      15.534 -19.576  35.712  1.00  0.00    -0.336 N 
ATOM     12  H8  UNL     1      14.975 -19.996  36.455  1.00  0.00     0.168 HD
BRANCH  10  13
HETATM   13  C17 UNL     1      16.831 -18.333  37.396  1.00  0.00    -0.008 A 
HETATM   14  C16 UNL     1      17.809 -17.406  37.654  1.00  0.00     0.016 A 
HETATM   15  C15 UNL     1      18.123 -17.034  38.963  1.00  0.00     0.031 A 
HETATM   16  C14 UNL     1      17.466 -17.580  40.037  1.00  0.00     0.044 A 
HETATM   17  N5  UNL     1      17.757 -17.229  41.318  1.00  0.00    -0.365 N 
HETATM   18  C25 UNL     1      16.483 -18.511  39.793  1.00  0.00     0.018 A 
HETATM   19  C13 UNL     1      17.123 -17.751  42.382  1.00  0.00     0.090 A 
ATOM     20  H5  UNL     1      18.489 -16.537  41.478  1.00  0.00     0.165 HD
HETATM   21  C12 UNL     1      16.129 -18.693  42.136  1.00  0.00     0.047 A 
HETATM   22  C11 UNL     1      15.802 -19.078  40.861  1.00  0.00     0.042 A 
HETATM   23  C24 UNL     1      16.184 -18.868  38.484  1.00  0.00     0.029 A 
BRANCH  22  24
HETATM   24  N4  UNL     1      14.897 -19.934  40.600  1.00  0.00    -0.389 N 
ATOM     25  H4  UNL     1      15.228 -20.802  40.180  1.00  0.00     0.159 HD
BRANCH  24  26
HETATM   26  C10 UNL     1      13.497 -19.859  40.808  1.00  0.00     0.121 C 
BRANCH  26  27
HETATM   27  C9  UNL     1      12.746 -19.719  39.481  1.00  0.00     0.047 C 
BRANCH  27  28
HETATM   28  C8  UNL     1      12.979 -20.930  38.596  1.00  0.00     0.234 C 
BRANCH  28  29
HETATM   29  N3  UNL     1      12.625 -20.668  37.228  1.00  0.00    -0.075 N 
ATOM     30  H32 UNL     1      12.423 -21.527  36.717  1.00  0.00     0.277 HD
ATOM     31  H31 UNL     1      13.426 -20.352  36.682  1.00  0.00     0.277 HD
BRANCH  29  32
HETATM   32  C7  UNL     1      11.533 -19.738  37.163  1.00  0.00     0.234 C 
BRANCH  32  33
HETATM   33  C6  UNL     1      10.455 -20.211  36.195  1.00  0.00     0.057 C 
BRANCH  33  34
HETATM   34  C5  UNL     1       9.732 -21.360  36.858  1.00  0.00     0.274 C 
BRANCH  34  35
HETATM   35  N2  UNL     1       8.747 -21.955  36.010  1.00  0.00     0.090 N 
HETATM   36  C4  UNL     1       9.036 -23.349  35.824  1.00  0.00     0.274 C 
HETATM   37  C3  UNL     1       8.074 -24.267  36.551  1.00  0.00     0.060 C 
HETATM   38  C2  UNL     1       6.847 -24.523  35.701  1.00  0.00     0.273 C 
HETATM   39  N1  UNL     1       5.882 -23.436  35.944  1.00  0.00     0.086 N 
HETATM   40  C1  UNL     1       4.594 -23.752  35.377  1.00  0.00     0.309 C 
HETATM   41  C27 UNL     1       6.405 -22.219  35.344  1.00  0.00     0.302 C 
HETATM   42  C26 UNL     1       7.398 -21.632  36.323  1.00  0.00     0.302 C 
ENDBRANCH  34  35
ENDBRANCH  33  34
ENDBRANCH  32  33
ENDBRANCH  29  32
ENDBRANCH  28  29
ENDBRANCH  27  28
ENDBRANCH  26  27
ENDBRANCH  24  26
ENDBRANCH  22  24
ENDBRANCH  10  13
ENDBRANCH   5   7
ENDBRANCH   4   5
ENDBRANCH   1   4
TORSDOF 13
ENDMDL
MODEL 5
REMARK VINA RESULT: -8.313325614      1.631      5.162
REMARK  13 active torsions:
REMARK  status: ('A' for Active; 'I' for Inactive)
REMARK    1  A    between atoms: N2_6  and  C5_7 
REMARK    2  A    between atoms: C5_7  and  C6_8 
REMARK    3  A    between atoms: C6_8  and  C7_9 
REMARK    4  A    between atoms: C7_9  and  N3_10 
REMARK    5  A    between atoms: N3_10  and  C8_13 
REMARK    6  A    between atoms: C8_13  and  C9_14 
REMARK    7  A    between atoms: C9_14  and  C10_15 
REMARK    8  A    between atoms: C10_15  and  N4_16 
REMARK    9  A    between atoms: N4_16  and  C11_18 
REMARK   10  A    between atoms: C17_26  and  C18_27 
REMARK   11  A    between atoms: C20_30  and  N6_31 
REMARK   12  A    between atoms: N6_31  and  C21_33 
REMARK   13  A    between atoms: C21_33  and  C22_34 
ROOT
HETATM    1  C22 UNL     1       7.768 -24.727  34.918  1.00  0.00     0.143 C 
HETATM    2  C23 UNL     1       6.721 -23.759  34.626  1.00  0.00     0.060 C 
HETATM    3  N7  UNL     1       5.880 -22.975  34.401  1.00  0.00    -0.197 NA
ENDROOT
BRANCH   1   4
HETATM    4  C21 UNL     1       8.405 -24.432  36.278  1.00  0.00     0.136 C 
BRANCH   4   5
HETATM    5  N6  UNL     1       9.775 -24.057  36.024  1.00  0.00    -0.370 N 
ATOM      6  H6  UNL     1      10.445 -24.709  35.615  1.00  0.00     0.161 HD
BRANCH   5   7
HETATM    7  C20 UNL     1      10.116 -22.823  36.350  1.00  0.00     0.144 A 
HETATM    8  S1  UNL     1       9.397 -21.353  35.902  1.00  0.00    -0.064 SA
HETATM    9  C19 UNL     1      10.443 -20.301  36.738  1.00  0.00     0.083 A 
HETATM   10  C18 UNL     1      11.323 -21.170  37.339  1.00  0.00     0.051 A 
HETATM   11  N8  UNL     1      11.135 -22.454  37.126  1.00  0.00    -0.336 N 
ATOM     12  H8  UNL     1      11.753 -23.150  37.544  1.00  0.00     0.168 HD
BRANCH  10  13
HETATM   13  C17 UNL     1      12.439 -20.660  38.195  1.00  0.00    -0.008 A 
HETATM   14  C16 UNL     1      12.343 -20.681  39.564  1.00  0.00     0.016 A 
HETATM   15  C15 UNL     1      13.382 -20.206  40.367  1.00  0.00     0.031 A 
HETATM   16  C14 UNL     1      14.535 -19.703  39.819  1.00  0.00     0.044 A 
HETATM   17  N5  UNL     1      15.558 -19.239  40.585  1.00  0.00    -0.365 N 
HETATM   18  C25 UNL     1      14.645 -19.675  38.448  1.00  0.00     0.018 A 
HETATM   19  C13 UNL     1      16.695 -18.744  40.068  1.00  0.00     0.090 A 
ATOM     20  H5  UNL     1      15.457 -19.267  41.600  1.00  0.00     0.165 HD
HETATM   21  C12 UNL     1      16.807 -18.716  38.680  1.00  0.00     0.047 A 
HETATM   22  C11 UNL     1      15.802 -19.173  37.868  1.00  0.00     0.042 A 
HETATM   23  C24 UNL     1      13.601 -20.152  37.665  1.00  0.00     0.029 A 
BRANCH  22  24
HETATM   24  N4  UNL     1      15.872 -19.164  36.597  1.00  0.00    -0.389 N 
ATOM     25  H4  UNL     1      16.073 -20.067  36.167  1.00  0.00     0.159 HD
BRANCH  24  26
HETATM   26  C10 UNL     1      15.712 -18.085  35.692  1.00  0.00     0.121 C 
BRANCH  26  27
HETATM   27  C9  UNL     1      15.588 -18.586  34.250  1.00  0.00     0.047 C 
BRANCH  27  28
HETATM   28  C8  UNL     1      14.182 -19.085  33.969  1.00  0.00     0.234 C 
BRANCH  28  29
HETATM   29  N3  UNL     1      14.170 -20.477  33.610  1.00  0.00    -0.075 N 
ATOM     30  H32 UNL     1      14.989 -20.968  33.967  1.00  0.00     0.277 HD
ATOM     31  H31 UNL     1      14.335 -20.613  32.613  1.00  0.00     0.277 HD
BRANCH  29  32
HETATM   32  C7  UNL     1      12.946 -21.093  34.039  1.00  0.00     0.234 C 
BRANCH  32  33
HETATM   33  C6  UNL     1      11.809 -20.813  33.063  1.00  0.00     0.057 C 
BRANCH  33  34
HETATM   34  C5  UNL     1      11.178 -22.142  32.719  1.00  0.00     0.274 C 
BRANCH  34  35
HETATM   35  N2  UNL     1      10.055 -22.010  31.845  1.00  0.00     0.090 N 
HETATM   36  C4  UNL     1      10.446 -21.333  30.641  1.00  0.00     0.274 C 
HETATM   37  C3  UNL     1      10.501 -22.241  29.429  1.00  0.00     0.060 C 
HETATM   38  C2  UNL     1       9.132 -22.350  28.790  1.00  0.00     0.273 C 
HETATM   39  N1  UNL     1       8.389 -23.424  29.472  1.00  0.00     0.086 N 
HETATM   40  C1  UNL     1       7.187 -23.761  28.748  1.00  0.00     0.309 C 
HETATM   41  C27 UNL     1       8.051 -22.966  30.811  1.00  0.00     0.302 C 
HETATM   42  C26 UNL     1       9.273 -23.186  31.676  1.00  0.00     0.302 C 
ENDBRANCH  34  35
ENDBRANCH  33  34
ENDBRANCH  32  33
ENDBRANCH  29  32
ENDBRANCH  28  29
ENDBRANCH  27  28
ENDBRANCH  26  27
ENDBRANCH  24  26
ENDBRANCH  22  24
ENDBRANCH  10  13
ENDBRANCH   5   7
ENDBRANCH   4   5
ENDBRANCH   1   4
TORSDOF 13
ENDMDL
