MODEL 1
REMARK VINA RESULT: -7.152935089      0.000      0.000
REMARK  2 active torsions:
REMARK  status: ('A' for Active; 'I' for Inactive)
REMARK    1  A    between atoms: N1_2  and  C1_4 
REMARK    2  A    between atoms: C17_20  and  O3_21 
ROOT
HETATM    1  C1  UNL     1      15.098  -2.190  53.335  1.00  0.00     0.130 C 
HETATM    2  C2  UNL     1      15.855  -1.133  54.190  1.00  0.00     0.044 C 
HETATM    3  C3  UNL     1      17.092  -1.827  54.657  1.00  0.00     0.013 C 
HETATM    4  C4  UNL     1      16.872  -3.315  54.290  1.00  0.00     0.024 C 
HETATM    5  C5  UNL     1      17.609  -3.471  53.007  1.00  0.00    -0.001 C 
HETATM    6  C6  UNL     1      17.932  -4.930  52.762  1.00  0.00     0.005 C 
HETATM    7  C7  UNL     1      17.759  -5.156  51.284  1.00  0.00     0.001 C 
HETATM    8  C8  UNL     1      16.860  -4.048  50.787  1.00  0.00     0.006 C 
HETATM    9  C9  UNL     1      16.977  -2.905  51.802  1.00  0.00     0.002 C 
HETATM   10  C10 UNL     1      15.686  -2.141  51.982  1.00  0.00    -0.001 C 
HETATM   11  C11 UNL     1      16.090  -0.670  51.685  1.00  0.00     0.013 C 
HETATM   12  C12 UNL     1      16.379  -0.504  50.188  1.00  0.00     0.001 C 
HETATM   13  C13 UNL     1      15.030  -0.296  49.519  1.00  0.00     0.000 C 
HETATM   14  C14 UNL     1      14.053  -1.148  50.306  1.00  0.00     0.001 C 
HETATM   15  C15 UNL     1      14.746  -2.412  50.828  1.00  0.00     0.013 C 
HETATM   16  C16 UNL     1      15.390  -3.334  54.232  1.00  0.00    -0.019 C 
HETATM   17  C17 UNL     1      14.641  -4.557  54.242  1.00  0.00     0.137 C 
ENDROOT
BRANCH   1  18
HETATM   18  N1  UNL     1      13.717  -1.790  53.428  1.00  0.00    -0.140 N 
HETATM   19  O1  UNL     1      13.337  -0.623  53.735  1.00  0.00    -0.536 OA
HETATM   20  O2  UNL     1      12.677  -2.651  53.188  1.00  0.00    -0.536 OA
ENDBRANCH   1  18
BRANCH  17  21
HETATM   21  O3  UNL     1      14.489  -5.391  53.200  1.00  0.00    -0.372 OA
ATOM     22  H3  UNL     1      13.718  -5.914  53.017  1.00  0.00     0.216 HD
ENDBRANCH  17  21
TORSDOF 2
ENDMDL
MODEL 2
REMARK VINA RESULT: -6.861400638      1.842      4.314
REMARK  2 active torsions:
REMARK  status: ('A' for Active; 'I' for Inactive)
REMARK    1  A    between atoms: N1_2  and  C1_4 
REMARK    2  A    between atoms: C17_20  and  O3_21 
ROOT
HETATM    1  C1  UNL     1      14.684  -3.604  53.921  1.00  0.00     0.130 C 
HETATM    2  C2  UNL     1      13.807  -4.846  53.586  1.00  0.00     0.044 C 
HETATM    3  C3  UNL     1      12.671  -4.311  52.778  1.00  0.00     0.013 C 
HETATM    4  C4  UNL     1      12.784  -2.772  52.909  1.00  0.00     0.024 C 
HETATM    5  C5  UNL     1      13.490  -2.367  51.663  1.00  0.00    -0.001 C 
HETATM    6  C6  UNL     1      13.243  -0.901  51.374  1.00  0.00     0.005 C 
HETATM    7  C7  UNL     1      14.539  -0.354  50.837  1.00  0.00     0.001 C 
HETATM    8  C8  UNL     1      15.623  -1.299  51.304  1.00  0.00     0.006 C 
HETATM    9  C9  UNL     1      14.937  -2.638  51.598  1.00  0.00     0.002 C 
HETATM   10  C10 UNL     1      15.562  -3.379  52.756  1.00  0.00    -0.001 C 
HETATM   11  C11 UNL     1      15.923  -4.764  52.149  1.00  0.00     0.013 C 
HETATM   12  C12 UNL     1      17.092  -4.611  51.169  1.00  0.00     0.001 C 
HETATM   13  C13 UNL     1      18.356  -4.625  52.016  1.00  0.00     0.000 C 
HETATM   14  C14 UNL     1      17.981  -3.931  53.311  1.00  0.00     0.001 C 
HETATM   15  C15 UNL     1      16.943  -2.833  53.050  1.00  0.00     0.013 C 
HETATM   16  C16 UNL     1      13.544  -2.692  54.180  1.00  0.00    -0.019 C 
HETATM   17  C17 UNL     1      13.645  -1.477  54.933  1.00  0.00     0.137 C 
ENDROOT
BRANCH   1  18
HETATM   18  N1  UNL     1      15.352  -3.969  55.144  1.00  0.00    -0.140 N 
HETATM   19  O1  UNL     1      15.558  -5.163  55.510  1.00  0.00    -0.536 OA
HETATM   20  O2  UNL     1      15.832  -3.041  56.032  1.00  0.00    -0.536 OA
ENDBRANCH   1  18
BRANCH  17  21
HETATM   21  O3  UNL     1      14.435  -0.432  54.632  1.00  0.00    -0.372 OA
ATOM     22  H3  UNL     1      14.905   0.106  55.258  1.00  0.00     0.216 HD
ENDBRANCH  17  21
TORSDOF 2
ENDMDL
MODEL 3
REMARK VINA RESULT: -6.839829571      2.330      3.974
REMARK  2 active torsions:
REMARK  status: ('A' for Active; 'I' for Inactive)
REMARK    1  A    between atoms: N1_2  and  C1_4 
REMARK    2  A    between atoms: C17_20  and  O3_21 
ROOT
HETATM    1  C1  UNL     1      16.245  -3.640  52.948  1.00  0.00     0.130 C 
HETATM    2  C2  UNL     1      16.071  -5.036  52.280  1.00  0.00     0.044 C 
HETATM    3  C3  UNL     1      14.692  -5.473  52.651  1.00  0.00     0.013 C 
HETATM    4  C4  UNL     1      14.233  -4.457  53.727  1.00  0.00     0.024 C 
HETATM    5  C5  UNL     1      13.412  -3.483  52.959  1.00  0.00    -0.001 C 
HETATM    6  C6  UNL     1      12.483  -2.732  53.891  1.00  0.00     0.005 C 
HETATM    7  C7  UNL     1      12.440  -1.314  53.387  1.00  0.00     0.001 C 
HETATM    8  C8  UNL     1      13.687  -1.121  52.557  1.00  0.00     0.006 C 
HETATM    9  C9  UNL     1      14.138  -2.518  52.116  1.00  0.00     0.002 C 
HETATM   10  C10 UNL     1      15.640  -2.654  52.032  1.00  0.00    -0.001 C 
HETATM   11  C11 UNL     1      15.880  -3.138  50.574  1.00  0.00     0.013 C 
HETATM   12  C12 UNL     1      15.585  -1.997  49.594  1.00  0.00     0.001 C 
HETATM   13  C13 UNL     1      16.845  -1.146  49.546  1.00  0.00     0.000 C 
HETATM   14  C14 UNL     1      17.420  -1.196  50.949  1.00  0.00     0.001 C 
HETATM   15  C15 UNL     1      16.294  -1.289  51.985  1.00  0.00     0.013 C 
HETATM   16  C16 UNL     1      15.559  -4.001  54.211  1.00  0.00    -0.019 C 
HETATM   17  C17 UNL     1      15.715  -3.283  55.442  1.00  0.00     0.137 C 
ENDROOT
BRANCH   1  18
HETATM   18  N1  UNL     1      17.668  -3.522  53.140  1.00  0.00    -0.140 N 
HETATM   19  O1  UNL     1      18.519  -4.315  52.642  1.00  0.00    -0.536 OA
HETATM   20  O2  UNL     1      18.234  -2.523  53.890  1.00  0.00    -0.536 OA
ENDBRANCH   1  18
BRANCH  17  21
HETATM   21  O3  UNL     1      15.425  -1.986  55.635  1.00  0.00    -0.372 OA
ATOM     22  H3  UNL     1      15.223  -1.582  56.470  1.00  0.00     0.216 HD
ENDBRANCH  17  21
TORSDOF 2
ENDMDL
MODEL 4
REMARK VINA RESULT: -6.791545725      2.395      4.014
REMARK  2 active torsions:
REMARK  status: ('A' for Active; 'I' for Inactive)
REMARK    1  A    between atoms: N1_2  and  C1_4 
REMARK    2  A    between atoms: C17_20  and  O3_21 
ROOT
HETATM    1  C1  UNL     1      14.866  -4.588  53.499  1.00  0.00     0.130 C 
HETATM    2  C2  UNL     1      13.505  -4.363  52.779  1.00  0.00     0.044 C 
HETATM    3  C3  UNL     1      12.926  -3.145  53.419  1.00  0.00     0.013 C 
HETATM    4  C4  UNL     1      13.828  -2.878  54.649  1.00  0.00     0.024 C 
HETATM    5  C5  UNL     1      14.772  -1.832  54.170  1.00  0.00    -0.001 C 
HETATM    6  C6  UNL     1      15.379  -1.095  55.346  1.00  0.00     0.005 C 
HETATM    7  C7  UNL     1      16.816  -0.834  54.981  1.00  0.00     0.001 C 
HETATM    8  C8  UNL     1      17.169  -1.835  53.906  1.00  0.00     0.006 C 
HETATM    9  C9  UNL     1      15.847  -2.270  53.263  1.00  0.00     0.002 C 
HETATM   10  C10 UNL     1      15.850  -3.716  52.828  1.00  0.00    -0.001 C 
HETATM   11  C11 UNL     1      15.479  -3.643  51.320  1.00  0.00     0.013 C 
HETATM   12  C12 UNL     1      16.648  -3.045  50.528  1.00  0.00     0.001 C 
HETATM   13  C13 UNL     1      17.608  -4.194  50.262  1.00  0.00     0.000 C 
HETATM   14  C14 UNL     1      17.523  -5.083  51.488  1.00  0.00     0.001 C 
HETATM   15  C15 UNL     1      17.267  -4.241  52.743  1.00  0.00     0.013 C 
HETATM   16  C16 UNL     1      14.369  -4.244  54.853  1.00  0.00    -0.019 C 
HETATM   17  C17 UNL     1      15.021  -4.632  56.069  1.00  0.00     0.137 C 
ENDROOT
BRANCH   1  18
HETATM   18  N1  UNL     1      15.098  -6.004  53.371  1.00  0.00    -0.140 N 
HETATM   19  O1  UNL     1      14.512  -6.745  52.530  1.00  0.00    -0.536 OA
HETATM   20  O2  UNL     1      15.990  -6.684  54.160  1.00  0.00    -0.536 OA
ENDBRANCH   1  18
BRANCH  17  21
HETATM   21  O3  UNL     1      16.274  -4.303  56.427  1.00  0.00    -0.372 OA
ATOM     22  H3  UNL     1      16.977  -4.914  56.610  1.00  0.00     0.216 HD
ENDBRANCH  17  21
TORSDOF 2
ENDMDL
MODEL 5
REMARK VINA RESULT: -6.499354549      1.944      3.395
REMARK  2 active torsions:
REMARK  status: ('A' for Active; 'I' for Inactive)
REMARK    1  A    between atoms: N1_2  and  C1_4 
REMARK    2  A    between atoms: C17_20  and  O3_21 
ROOT
HETATM    1  C1  UNL     1      15.573  -3.115  54.240  1.00  0.00     0.130 C 
HETATM    2  C2  UNL     1      16.187  -2.090  55.239  1.00  0.00     0.044 C 
HETATM    3  C3  UNL     1      17.189  -1.325  54.440  1.00  0.00     0.013 C 
HETATM    4  C4  UNL     1      17.312  -2.105  53.107  1.00  0.00     0.024 C 
HETATM    5  C5  UNL     1      16.421  -1.356  52.181  1.00  0.00    -0.001 C 
HETATM    6  C6  UNL     1      16.795  -1.650  50.743  1.00  0.00     0.005 C 
HETATM    7  C7  UNL     1      15.500  -1.726  49.979  1.00  0.00     0.001 C 
HETATM    8  C8  UNL     1      14.422  -2.010  51.000  1.00  0.00     0.006 C 
HETATM    9  C9  UNL     1      14.970  -1.544  52.353  1.00  0.00     0.002 C 
HETATM   10  C10 UNL     1      14.509  -2.406  53.505  1.00  0.00    -0.001 C 
HETATM   11  C11 UNL     1      13.847  -1.388  54.477  1.00  0.00     0.013 C 
HETATM   12  C12 UNL     1      12.529  -0.883  53.879  1.00  0.00     0.001 C 
HETATM   13  C13 UNL     1      11.481  -1.930  54.222  1.00  0.00     0.000 C 
HETATM   14  C14 UNL     1      12.208  -3.260  54.171  1.00  0.00     0.001 C 
HETATM   15  C15 UNL     1      13.305  -3.230  53.101  1.00  0.00     0.013 C 
HETATM   16  C16 UNL     1      16.854  -3.439  53.566  1.00  0.00    -0.019 C 
HETATM   17  C17 UNL     1      17.075  -4.628  52.795  1.00  0.00     0.137 C 
ENDROOT
BRANCH   1  18
HETATM   18  N1  UNL     1      15.135  -4.200  55.080  1.00  0.00    -0.140 N 
HETATM   19  O1  UNL     1      14.902  -4.088  56.318  1.00  0.00    -0.536 OA
HETATM   20  O2  UNL     1      14.926  -5.469  54.604  1.00  0.00    -0.536 OA
ENDBRANCH   1  18
BRANCH  17  21
HETATM   21  O3  UNL     1      16.387  -4.992  51.701  1.00  0.00    -0.372 OA
ATOM     22  H3  UNL     1      15.442  -5.054  51.635  1.00  0.00     0.216 HD
ENDBRANCH  17  21
TORSDOF 2
ENDMDL
