MODEL 1
REMARK VINA RESULT: -6.962102063      0.000      0.000
REMARK  4 active torsions:
REMARK  status: ('A' for Active; 'I' for Inactive)
REMARK    1  A    between atoms: C2_2  and  C4_4 
REMARK    2  A    between atoms: C4_4  and  O2_6 
REMARK    3  A    between atoms: O2_6  and  C5_7 
REMARK    4  A    between atoms: C10_15  and  O3_16 
ROOT
HETATM    1  C5  UNL     1      15.785  -2.094  51.459  1.00  0.00     0.141 C 
HETATM    2  C6  UNL     1      14.369  -2.322  50.995  1.00  0.00     0.034 C 
HETATM    3  C7  UNL     1      13.471  -1.728  52.077  1.00  0.00     0.010 C 
HETATM    4  C8  UNL     1      14.409  -1.221  53.111  1.00  0.00     0.027 C 
HETATM    5  C9  UNL     1      13.870  -1.149  54.489  1.00  0.00     0.198 C 
HETATM    6  N1  UNL     1      12.465  -0.791  54.531  1.00  0.00    -0.043 N 
ATOM      7  H11 UNL     1      11.896  -1.208  53.794  1.00  0.00     0.280 HD
ATOM      8  H12 UNL     1      12.264   0.177  54.281  1.00  0.00     0.280 HD
HETATM    9  C10 UNL     1      12.083  -1.158  55.861  1.00  0.00     0.327 C 
HETATM   10  C11 UNL     1      12.745  -2.505  56.037  1.00  0.00     0.009 C 
HETATM   11  C12 UNL     1      11.839  -3.537  55.411  1.00  0.00     0.020 C 
HETATM   12  C13 UNL     1      12.946  -2.861  57.478  1.00  0.00     0.020 C 
HETATM   13  C14 UNL     1      14.062  -2.369  55.312  1.00  0.00     0.029 C 
HETATM   14  C15 UNL     1      14.367  -3.611  54.557  1.00  0.00     0.008 C 
HETATM   15  C16 UNL     1      15.450  -3.469  53.533  1.00  0.00     0.012 C 
HETATM   16  C17 UNL     1      15.614  -2.107  52.975  1.00  0.00    -0.012 C 
HETATM   17  C18 UNL     1      16.806  -1.388  53.567  1.00  0.00     0.018 C 
ENDROOT
BRANCH   1  18
HETATM   18  O2  UNL     1      16.235  -0.780  51.168  1.00  0.00    -0.311 OA
BRANCH  18  19
HETATM   19  C4  UNL     1      16.457  -0.282  49.927  1.00  0.00     0.288 C 
HETATM   20  O1  UNL     1      17.277  -0.870  49.173  1.00  0.00    -0.260 OA
BRANCH  19  21
HETATM   21  C2  UNL     1      15.757   0.909  49.486  1.00  0.00     0.004 C 
HETATM   22  C1  UNL     1      16.407   1.922  48.889  1.00  0.00     0.024 C 
HETATM   23  C3  UNL     1      14.294   0.998  49.705  1.00  0.00     0.054 C 
ENDBRANCH  19  21
ENDBRANCH  18  19
ENDBRANCH   1  18
BRANCH   9  24
HETATM   24  O3  UNL     1      10.699  -1.291  55.915  1.00  0.00    -0.369 OA
ATOM     25  H3  UNL     1      10.377  -0.854  56.694  1.00  0.00     0.212 HD
ENDBRANCH   9  24
TORSDOF 4
ENDMDL
MODEL 2
REMARK VINA RESULT: -6.921958640      1.794      2.433
REMARK  4 active torsions:
REMARK  status: ('A' for Active; 'I' for Inactive)
REMARK    1  A    between atoms: C2_2  and  C4_4 
REMARK    2  A    between atoms: C4_4  and  O2_6 
REMARK    3  A    between atoms: O2_6  and  C5_7 
REMARK    4  A    between atoms: C10_15  and  O3_16 
ROOT
HETATM    1  C5  UNL     1      14.640  -2.519  53.016  1.00  0.00     0.141 C 
HETATM    2  C6  UNL     1      13.656  -3.507  52.444  1.00  0.00     0.034 C 
HETATM    3  C7  UNL     1      12.366  -3.325  53.238  1.00  0.00     0.010 C 
HETATM    4  C8  UNL     1      12.683  -2.272  54.237  1.00  0.00     0.027 C 
HETATM    5  C9  UNL     1      11.882  -2.305  55.483  1.00  0.00     0.198 C 
HETATM    6  N1  UNL     1      10.510  -2.724  55.265  1.00  0.00    -0.043 N 
ATOM      7  H11 UNL     1      10.395  -3.470  54.579  1.00  0.00     0.280 HD
ATOM      8  H12 UNL     1       9.929  -2.044  54.776  1.00  0.00     0.280 HD
HETATM    9  C10 UNL     1      10.065  -3.053  56.585  1.00  0.00     0.327 C 
HETATM   10  C11 UNL     1      11.236  -3.825  57.148  1.00  0.00     0.009 C 
HETATM   11  C12 UNL     1      11.108  -5.250  56.668  1.00  0.00     0.020 C 
HETATM   12  C13 UNL     1      11.254  -3.828  58.646  1.00  0.00     0.020 C 
HETATM   13  C14 UNL     1      12.448  -3.125  56.582  1.00  0.00     0.029 C 
HETATM   14  C15 UNL     1      13.476  -4.118  56.178  1.00  0.00     0.008 C 
HETATM   15  C16 UNL     1      14.554  -3.575  55.292  1.00  0.00     0.012 C 
HETATM   16  C17 UNL     1      14.160  -2.415  54.461  1.00  0.00    -0.012 C 
HETATM   17  C18 UNL     1      14.689  -1.110  55.015  1.00  0.00     0.018 C 
ENDROOT
BRANCH   1  18
HETATM   18  O2  UNL     1      14.452  -1.215  52.489  1.00  0.00    -0.311 OA
BRANCH  18  19
HETATM   19  C4  UNL     1      14.937  -0.768  51.305  1.00  0.00     0.288 C 
HETATM   20  O1  UNL     1      16.179  -0.823  51.097  1.00  0.00    -0.260 OA
BRANCH  19  21
HETATM   21  C2  UNL     1      14.034  -0.236  50.303  1.00  0.00     0.004 C 
HETATM   22  C1  UNL     1      13.004  -0.961  49.835  1.00  0.00     0.024 C 
HETATM   23  C3  UNL     1      14.263   1.136  49.793  1.00  0.00     0.054 C 
ENDBRANCH  19  21
ENDBRANCH  18  19
ENDBRANCH   1  18
BRANCH   9  24
HETATM   24  O3  UNL     1       8.946  -3.874  56.495  1.00  0.00    -0.369 OA
ATOM     25  H3  UNL     1       8.213  -3.447  56.923  1.00  0.00     0.212 HD
ENDBRANCH   9  24
TORSDOF 4
ENDMDL
MODEL 3
REMARK VINA RESULT: -6.803736457      1.632      2.355
REMARK  4 active torsions:
REMARK  status: ('A' for Active; 'I' for Inactive)
REMARK    1  A    between atoms: C2_2  and  C4_4 
REMARK    2  A    between atoms: C4_4  and  O2_6 
REMARK    3  A    between atoms: O2_6  and  C5_7 
REMARK    4  A    between atoms: C10_15  and  O3_16 
ROOT
HETATM    1  C5  UNL     1      15.817  -0.811  49.526  1.00  0.00     0.141 C 
HETATM    2  C6  UNL     1      14.362  -0.905  49.142  1.00  0.00     0.034 C 
HETATM    3  C7  UNL     1      13.580  -0.913  50.452  1.00  0.00     0.010 C 
HETATM    4  C8  UNL     1      14.619  -0.853  51.512  1.00  0.00     0.027 C 
HETATM    5  C9  UNL     1      14.237  -1.435  52.820  1.00  0.00     0.198 C 
HETATM    6  N1  UNL     1      12.838  -1.229  53.147  1.00  0.00    -0.043 N 
ATOM      7  H11 UNL     1      12.198  -1.314  52.357  1.00  0.00     0.280 HD
ATOM      8  H12 UNL     1      12.592  -0.266  53.376  1.00  0.00     0.280 HD
HETATM    9  C10 UNL     1      12.616  -2.170  54.201  1.00  0.00     0.327 C 
HETATM   10  C11 UNL     1      13.319  -3.409  53.694  1.00  0.00     0.009 C 
HETATM   11  C12 UNL     1      12.369  -4.116  52.759  1.00  0.00     0.020 C 
HETATM   12  C13 UNL     1      13.688  -4.351  54.799  1.00  0.00     0.020 C 
HETATM   13  C14 UNL     1      14.543  -2.877  52.989  1.00  0.00     0.029 C 
HETATM   14  C15 UNL     1      14.786  -3.634  51.734  1.00  0.00     0.008 C 
HETATM   15  C16 UNL     1      15.744  -2.980  50.787  1.00  0.00     0.012 C 
HETATM   16  C17 UNL     1      15.817  -1.505  50.885  1.00  0.00    -0.012 C 
HETATM   17  C18 UNL     1      17.055  -1.042  51.623  1.00  0.00     0.018 C 
ENDROOT
BRANCH   1  18
HETATM   18  O2  UNL     1      16.205   0.524  49.813  1.00  0.00    -0.311 OA
BRANCH  18  19
HETATM   19  C4  UNL     1      16.307   1.526  48.906  1.00  0.00     0.288 C 
HETATM   20  O1  UNL     1      17.114   1.399  47.947  1.00  0.00    -0.260 OA
BRANCH  19  21
HETATM   21  C2  UNL     1      15.496   2.719  49.047  1.00  0.00     0.004 C 
HETATM   22  C1  UNL     1      14.378   2.720  49.792  1.00  0.00     0.024 C 
HETATM   23  C3  UNL     1      15.919   3.956  48.350  1.00  0.00     0.054 C 
ENDBRANCH  19  21
ENDBRANCH  18  19
ENDBRANCH   1  18
BRANCH   9  24
HETATM   24  O3  UNL     1      11.250  -2.407  54.317  1.00  0.00    -0.369 OA
ATOM     25  H3  UNL     1      10.928  -1.983  55.104  1.00  0.00     0.212 HD
ENDBRANCH   9  24
TORSDOF 4
ENDMDL
MODEL 4
REMARK VINA RESULT: -6.744356234      1.925      6.347
REMARK  4 active torsions:
REMARK  status: ('A' for Active; 'I' for Inactive)
REMARK    1  A    between atoms: C2_2  and  C4_4 
REMARK    2  A    between atoms: C4_4  and  O2_6 
REMARK    3  A    between atoms: O2_6  and  C5_7 
REMARK    4  A    between atoms: C10_15  and  O3_16 
ROOT
HETATM    1  C5  UNL     1      13.178  -2.608  55.259  1.00  0.00     0.141 C 
HETATM    2  C6  UNL     1      13.328  -1.120  55.074  1.00  0.00     0.034 C 
HETATM    3  C7  UNL     1      13.328  -0.880  53.567  1.00  0.00     0.010 C 
HETATM    4  C8  UNL     1      13.208  -2.235  52.969  1.00  0.00     0.027 C 
HETATM    5  C9  UNL     1      13.768  -2.388  51.606  1.00  0.00     0.198 C 
HETATM    6  N1  UNL     1      13.599  -1.204  50.786  1.00  0.00    -0.043 N 
ATOM      7  H11 UNL     1      13.725  -0.321  51.280  1.00  0.00     0.280 HD
ATOM      8  H12 UNL     1      12.639  -1.022  50.493  1.00  0.00     0.280 HD
HETATM    9  C10 UNL     1      14.520  -1.426  49.713  1.00  0.00     0.327 C 
HETATM   10  C11 UNL     1      15.747  -1.940  50.430  1.00  0.00     0.009 C 
HETATM   11  C12 UNL     1      16.508  -0.739  50.937  1.00  0.00     0.020 C 
HETATM   12  C13 UNL     1      16.648  -2.729  49.530  1.00  0.00     0.020 C 
HETATM   13  C14 UNL     1      15.194  -2.793  51.546  1.00  0.00     0.029 C 
HETATM   14  C15 UNL     1      15.975  -2.583  52.792  1.00  0.00     0.008 C 
HETATM   15  C16 UNL     1      15.315  -3.094  54.035  1.00  0.00     0.012 C 
HETATM   16  C17 UNL     1      13.836  -3.140  53.989  1.00  0.00    -0.012 C 
HETATM   17  C18 UNL     1      13.315  -4.544  53.770  1.00  0.00     0.018 C 
ENDROOT
BRANCH   1  18
HETATM   18  O2  UNL     1      11.824  -3.022  55.153  1.00  0.00    -0.311 OA
BRANCH  18  19
HETATM   19  C4  UNL     1      10.860  -2.805  56.080  1.00  0.00     0.288 C 
HETATM   20  O1  UNL     1      10.985  -3.323  57.221  1.00  0.00    -0.260 OA
BRANCH  19  21
HETATM   21  C2  UNL     1       9.709  -1.987  55.753  1.00  0.00     0.004 C 
HETATM   22  C1  UNL     1       9.734  -1.124  54.723  1.00  0.00     0.024 C 
HETATM   23  C3  UNL     1       8.485  -2.114  56.579  1.00  0.00     0.054 C 
ENDBRANCH  19  21
ENDBRANCH  18  19
ENDBRANCH   1  18
BRANCH   9  24
HETATM   24  O3  UNL     1      14.797  -0.211  49.095  1.00  0.00    -0.369 OA
ATOM     25  H3  UNL     1      15.399  -0.360  48.376  1.00  0.00     0.212 HD
ENDBRANCH   9  24
TORSDOF 4
ENDMDL
MODEL 5
REMARK VINA RESULT: -6.701212229      2.253      6.870
REMARK  4 active torsions:
REMARK  status: ('A' for Active; 'I' for Inactive)
REMARK    1  A    between atoms: C2_2  and  C4_4 
REMARK    2  A    between atoms: C4_4  and  O2_6 
REMARK    3  A    between atoms: O2_6  and  C5_7 
REMARK    4  A    between atoms: C10_15  and  O3_16 
ROOT
HETATM    1  C5  UNL     1      11.842  -3.987  55.355  1.00  0.00     0.141 C 
HETATM    2  C6  UNL     1      13.034  -4.853  55.676  1.00  0.00     0.034 C 
HETATM    3  C7  UNL     1      14.260  -3.958  55.522  1.00  0.00     0.010 C 
HETATM    4  C8  UNL     1      13.716  -2.643  55.095  1.00  0.00     0.027 C 
HETATM    5  C9  UNL     1      14.639  -1.789  54.311  1.00  0.00     0.198 C 
HETATM    6  N1  UNL     1      16.022  -1.912  54.731  1.00  0.00    -0.043 N 
ATOM      7  H11 UNL     1      16.310  -2.858  54.981  1.00  0.00     0.280 HD
ATOM      8  H12 UNL     1      16.230  -1.498  55.640  1.00  0.00     0.280 HD
HETATM    9  C10 UNL     1      16.740  -1.339  53.634  1.00  0.00     0.327 C 
HETATM   10  C11 UNL     1      16.037  -1.929  52.433  1.00  0.00     0.009 C 
HETATM   11  C12 UNL     1      16.620  -3.301  52.198  1.00  0.00     0.020 C 
HETATM   12  C13 UNL     1      16.234  -1.110  51.194  1.00  0.00     0.020 C 
HETATM   13  C14 UNL     1      14.584  -1.976  52.840  1.00  0.00     0.029 C 
HETATM   14  C15 UNL     1      13.957  -3.240  52.376  1.00  0.00     0.008 C 
HETATM   15  C16 UNL     1      12.640  -3.555  53.015  1.00  0.00     0.012 C 
HETATM   16  C17 UNL     1      12.448  -2.991  54.370  1.00  0.00    -0.012 C 
HETATM   17  C18 UNL     1      11.552  -1.772  54.359  1.00  0.00     0.018 C 
ENDROOT
BRANCH   1  18
HETATM   18  O2  UNL     1      11.451  -3.190  56.463  1.00  0.00    -0.311 OA
BRANCH  18  19
HETATM   19  C4  UNL     1      10.489  -3.512  57.362  1.00  0.00     0.288 C 
HETATM   20  O1  UNL     1      10.832  -3.850  58.526  1.00  0.00    -0.260 OA
BRANCH  19  21
HETATM   21  C2  UNL     1       9.091  -3.462  56.979  1.00  0.00     0.004 C 
HETATM   22  C1  UNL     1       8.508  -2.309  56.611  1.00  0.00     0.024 C 
HETATM   23  C3  UNL     1       8.302  -4.716  56.997  1.00  0.00     0.054 C 
ENDBRANCH  19  21
ENDBRANCH  18  19
ENDBRANCH   1  18
BRANCH   9  24
HETATM   24  O3  UNL     1      18.060  -1.774  53.680  1.00  0.00    -0.369 OA
ATOM     25  H3  UNL     1      18.237  -2.309  52.915  1.00  0.00     0.212 HD
ENDBRANCH   9  24
TORSDOF 4
ENDMDL
