MODEL 1
REMARK VINA RESULT: -8.469148796      0.000      0.000
REMARK  13 active torsions:
REMARK  status: ('A' for Active; 'I' for Inactive)
REMARK    1  A    between atoms: C2_2  and  C3_3 
REMARK    2  A    between atoms: C3_3  and  C4_4 
REMARK       I    between atoms: C4_4  and  N1_6 
REMARK    3  A    between atoms: C7_13  and  C8_14 
REMARK    4  A    between atoms: C8_14  and  C9_15 
REMARK    5  A    between atoms: C12_20  and  O3_21 
REMARK    6  A    between atoms: C19_31  and  C20_32 
REMARK    7  A    between atoms: C20_32  and  C21_33 
REMARK    8  A    between atoms: C21_33  and  C22_34 
REMARK    9  A    between atoms: C22_34  and  N5_35 
REMARK   10  A    between atoms: C24_42  and  O5_43 
REMARK   11  A    between atoms: C25_45  and  C26_46 
REMARK   12  A    between atoms: C29_50  and  O6_51 
REMARK   13  A    between atoms: C30_53  and  C31_54 
ROOT
HETATM    1  C4  UNL     1       0.897   2.023  11.063  1.00  0.00     0.223 C 
HETATM    2  O1  UNL     1       0.576   2.630  12.148  1.00  0.00    -0.273 OA
HETATM    3  N1  UNL     1       1.353   2.664   9.935  1.00  0.00    -0.313 N 
ATOM      4  H1  UNL     1       0.893   2.404   9.062  1.00  0.00     0.170 HD
HETATM    5  C5  UNL     1       2.288   3.551   9.833  1.00  0.00     0.117 C 
HETATM    6  N2  UNL     1       2.951   3.929  11.024  1.00  0.00    -0.311 N 
ATOM      7  H2  UNL     1       2.313   4.285  11.735  1.00  0.00     0.170 HD
HETATM    8  C6  UNL     1       4.287   3.923  11.447  1.00  0.00     0.246 C 
HETATM    9  O2  UNL     1       4.837   5.092  11.553  1.00  0.00    -0.271 OA
HETATM   10  C7  UNL     1       5.182   2.770  11.802  1.00  0.00     0.181 C 
HETATM   11  N4  UNL     1       6.380   3.280  12.339  1.00  0.00    -0.346 N 
ATOM     12  H4  UNL     1       6.235   3.793  13.209  1.00  0.00     0.163 HD
HETATM   13  C18 UNL     1       7.715   3.243  11.955  1.00  0.00     0.241 C 
HETATM   14  O4  UNL     1       8.579   3.421  12.903  1.00  0.00    -0.271 OA
HETATM   15  C19 UNL     1       8.263   3.026  10.576  1.00  0.00     0.176 C 
HETATM   16  N8  UNL     1       7.584   1.965   9.945  1.00  0.00    -0.355 N 
ATOM     17  H8  UNL     1       7.289   1.245  10.604  1.00  0.00     0.162 HD
HETATM   18  C24 UNL     1       7.222   1.668   8.636  1.00  0.00     0.174 C 
HETATM   19  C25 UNL     1       6.586   2.531   7.595  1.00  0.00     0.141 C 
HETATM   20  N9  UNL     1       5.791   3.365   7.977  1.00  0.00    -0.380 NA
HETATM   21  C29 UNL     1       4.885   4.379   7.979  1.00  0.00     0.221 C 
HETATM   22  C30 UNL     1       3.432   4.448   7.716  1.00  0.00     0.016 C 
HETATM   23  C33 UNL     1       2.428   4.101   8.482  1.00  0.00    -0.006 C 
HETATM   24  C34 UNL     1       1.073   4.235   7.721  1.00  0.00     0.053 C 
ENDROOT
BRANCH  10  25
HETATM   25  C8  UNL     1       4.533   1.804  12.760  1.00  0.00     0.075 C 
BRANCH  25  26
HETATM   26  C9  UNL     1       5.335   0.608  13.005  1.00  0.00    -0.028 A 
HETATM   27  C10 UNL     1       6.077  -0.085  12.040  1.00  0.00     0.096 A 
HETATM   28  N3  UNL     1       6.720  -1.107  12.621  1.00  0.00    -0.362 N 
HETATM   29  C11 UNL     1       6.440  -1.130  13.942  1.00  0.00     0.076 A 
ATOM     30  H3  UNL     1       7.329  -1.767  12.138  1.00  0.00     0.165 HD
HETATM   31  C12 UNL     1       6.831  -1.983  14.959  1.00  0.00     0.095 A 
HETATM   32  C17 UNL     1       5.577  -0.060  14.177  1.00  0.00     0.001 A 
HETATM   33  C14 UNL     1       6.370  -1.793  16.231  1.00  0.00     0.039 A 
HETATM   34  C15 UNL     1       5.513  -0.743  16.489  1.00  0.00     0.004 A 
HETATM   35  C16 UNL     1       5.130   0.095  15.490  1.00  0.00     0.014 A 
BRANCH  31  36
HETATM   36  O3  UNL     1       7.696  -3.030  14.665  1.00  0.00    -0.354 OA
HETATM   37  C13 UNL     1       8.900  -3.204  15.373  1.00  0.00     0.210 C 
ENDBRANCH  31  36
ENDBRANCH  25  26
ENDBRANCH  10  25
BRANCH  15  38
HETATM   38  C20 UNL     1       8.337   4.358   9.939  1.00  0.00     0.036 C 
BRANCH  38  39
HETATM   39  C21 UNL     1       9.421   4.351   8.883  1.00  0.00     0.022 C 
BRANCH  39  40
HETATM   40  C22 UNL     1       9.577   5.600   8.103  1.00  0.00     0.122 C 
BRANCH  40  41
HETATM   41  N5  UNL     1       8.323   5.775   7.348  1.00  0.00    -0.367 N 
HETATM   42  C23 UNL     1       7.915   6.939   6.951  1.00  0.00     0.196 C 
HETATM   43  N6  UNL     1       8.722   8.060   7.267  1.00  0.00    -0.067 NA
HETATM   44  N7  UNL     1       6.729   7.137   6.232  1.00  0.00    -0.067 NA
ATOM     45  H5  UNL     1       7.758   4.953   7.132  1.00  0.00     0.161 HD
ENDBRANCH  40  41
ENDBRANCH  39  40
ENDBRANCH  38  39
ENDBRANCH  15  38
BRANCH   1  46
HETATM   46  C3  UNL     1       0.722   0.533  11.154  1.00  0.00     0.103 C 
BRANCH  46  47
HETATM   47  C2  UNL     1       0.375   0.049  12.520  1.00  0.00     0.005 C 
HETATM   48  C1  UNL     1       1.516  -0.283  13.411  1.00  0.00     0.005 C 
ENDBRANCH  46  47
ENDBRANCH   1  46
BRANCH  22  49
HETATM   49  C31 UNL     1       3.101   5.192   6.398  1.00  0.00     0.040 C 
HETATM   50  C32 UNL     1       3.795   4.656   5.214  1.00  0.00     0.010 C 
ENDBRANCH  22  49
BRANCH  18  51
HETATM   51  O5  UNL     1       7.451   0.462   8.206  1.00  0.00    -0.344 OA
ATOM     52  H5  UNL     1       6.894   0.127   7.513  1.00  0.00     0.219 HD
ENDBRANCH  18  51
BRANCH  21  53
HETATM   53  O6  UNL     1       5.356   5.576   8.269  1.00  0.00    -0.335 OA
ATOM     54  H6  UNL     1       5.133   5.915   9.129  1.00  0.00     0.220 HD
ENDBRANCH  21  53
BRANCH  19  55
HETATM   55  C26 UNL     1       7.081   2.122   6.218  1.00  0.00     0.046 C 
HETATM   56  C27 UNL     1       5.926   1.982   5.237  1.00  0.00     0.017 C 
HETATM   57  C28 UNL     1       8.229   2.912   5.679  1.00  0.00     0.017 C 
ENDBRANCH  19  55
TORSDOF 13
ENDMDL
MODEL 2
REMARK VINA RESULT: -8.402363091      0.916      1.218
REMARK  13 active torsions:
REMARK  status: ('A' for Active; 'I' for Inactive)
REMARK    1  A    between atoms: C2_2  and  C3_3 
REMARK    2  A    between atoms: C3_3  and  C4_4 
REMARK       I    between atoms: C4_4  and  N1_6 
REMARK    3  A    between atoms: C7_13  and  C8_14 
REMARK    4  A    between atoms: C8_14  and  C9_15 
REMARK    5  A    between atoms: C12_20  and  O3_21 
REMARK    6  A    between atoms: C19_31  and  C20_32 
REMARK    7  A    between atoms: C20_32  and  C21_33 
REMARK    8  A    between atoms: C21_33  and  C22_34 
REMARK    9  A    between atoms: C22_34  and  N5_35 
REMARK   10  A    between atoms: C24_42  and  O5_43 
REMARK   11  A    between atoms: C25_45  and  C26_46 
REMARK   12  A    between atoms: C29_50  and  O6_51 
REMARK   13  A    between atoms: C30_53  and  C31_54 
ROOT
HETATM    1  C4  UNL     1       1.021   2.263  10.728  1.00  0.00     0.223 C 
HETATM    2  O1  UNL     1       0.636   3.020  11.691  1.00  0.00    -0.273 OA
HETATM    3  N1  UNL     1       1.532   2.736   9.542  1.00  0.00    -0.313 N 
ATOM      4  H1  UNL     1       1.123   2.342   8.695  1.00  0.00     0.170 HD
HETATM    5  C5  UNL     1       2.463   3.615   9.358  1.00  0.00     0.117 C 
HETATM    6  N2  UNL     1       3.056   4.177  10.513  1.00  0.00    -0.311 N 
ATOM      7  H2  UNL     1       2.377   4.625  11.127  1.00  0.00     0.170 HD
HETATM    8  C6  UNL     1       4.366   4.258  11.002  1.00  0.00     0.246 C 
HETATM    9  O2  UNL     1       4.899   5.440  10.960  1.00  0.00    -0.271 OA
HETATM   10  C7  UNL     1       5.251   3.187  11.572  1.00  0.00     0.181 C 
HETATM   11  N4  UNL     1       6.414   3.792  12.089  1.00  0.00    -0.346 N 
ATOM     12  H4  UNL     1       6.217   4.427  12.864  1.00  0.00     0.163 HD
HETATM   13  C18 UNL     1       7.768   3.722  11.785  1.00  0.00     0.241 C 
HETATM   14  O4  UNL     1       8.577   4.054  12.740  1.00  0.00    -0.271 OA
HETATM   15  C19 UNL     1       8.392   3.311  10.485  1.00  0.00     0.176 C 
HETATM   16  N8  UNL     1       7.760   2.157   9.985  1.00  0.00    -0.355 N 
ATOM     17  H8  UNL     1       7.436   1.537  10.728  1.00  0.00     0.162 HD
HETATM   18  C24 UNL     1       7.472   1.661   8.719  1.00  0.00     0.174 C 
HETATM   19  C25 UNL     1       6.887   2.349   7.528  1.00  0.00     0.141 C 
HETATM   20  N9  UNL     1       6.064   3.216   7.738  1.00  0.00    -0.380 NA
HETATM   21  C29 UNL     1       5.149   4.203   7.541  1.00  0.00     0.221 C 
HETATM   22  C30 UNL     1       3.712   4.207   7.194  1.00  0.00     0.016 C 
HETATM   23  C33 UNL     1       2.671   3.960   7.950  1.00  0.00    -0.006 C 
HETATM   24  C34 UNL     1       1.359   3.956   7.107  1.00  0.00     0.053 C 
ENDROOT
BRANCH  10  25
HETATM   25  C8  UNL     1       4.560   2.363  12.628  1.00  0.00     0.075 C 
BRANCH  25  26
HETATM   26  C9  UNL     1       5.424   1.346  13.223  1.00  0.00    -0.028 A 
HETATM   27  C10 UNL     1       6.516   1.598  14.063  1.00  0.00     0.096 A 
HETATM   28  N3  UNL     1       7.055   0.435  14.454  1.00  0.00    -0.362 N 
HETATM   29  C11 UNL     1       6.368  -0.593  13.910  1.00  0.00     0.076 A 
ATOM     30  H3  UNL     1       7.862   0.341  15.070  1.00  0.00     0.165 HD
HETATM   31  C12 UNL     1       6.533  -1.964  13.986  1.00  0.00     0.095 A 
HETATM   32  C17 UNL     1       5.352  -0.020  13.144  1.00  0.00     0.001 A 
HETATM   33  C14 UNL     1       5.695  -2.798  13.300  1.00  0.00     0.039 A 
HETATM   34  C15 UNL     1       4.684  -2.255  12.533  1.00  0.00     0.004 A 
HETATM   35  C16 UNL     1       4.521  -0.908  12.459  1.00  0.00     0.014 A 
BRANCH  31  36
HETATM   36  O3  UNL     1       7.561  -2.476  14.768  1.00  0.00    -0.354 OA
HETATM   37  C13 UNL     1       7.323  -2.939  16.077  1.00  0.00     0.210 C 
ENDBRANCH  31  36
ENDBRANCH  25  26
ENDBRANCH  10  25
BRANCH  15  38
HETATM   38  C20 UNL     1       8.488   4.535   9.662  1.00  0.00     0.036 C 
BRANCH  38  39
HETATM   39  C21 UNL     1       9.632   4.392   8.680  1.00  0.00     0.022 C 
BRANCH  39  40
HETATM   40  C22 UNL     1       9.961   5.597   7.884  1.00  0.00     0.122 C 
BRANCH  40  41
HETATM   41  N5  UNL     1       8.721   5.981   7.187  1.00  0.00    -0.367 N 
HETATM   42  C23 UNL     1       8.395   7.220   6.994  1.00  0.00     0.196 C 
HETATM   43  N6  UNL     1       9.280   8.214   7.481  1.00  0.00    -0.067 NA
HETATM   44  N7  UNL     1       7.225   7.618   6.335  1.00  0.00    -0.067 NA
ATOM     45  H5  UNL     1       8.099   5.248   6.844  1.00  0.00     0.161 HD
ENDBRANCH  40  41
ENDBRANCH  39  40
ENDBRANCH  38  39
ENDBRANCH  15  38
BRANCH   1  46
HETATM   46  C3  UNL     1       0.855   0.800  11.031  1.00  0.00     0.103 C 
BRANCH  46  47
HETATM   47  C2  UNL     1       1.280   0.419  12.408  1.00  0.00     0.005 C 
HETATM   48  C1  UNL     1       0.236  -0.184  13.276  1.00  0.00     0.005 C 
ENDBRANCH  46  47
ENDBRANCH   1  46
BRANCH  22  49
HETATM   49  C31 UNL     1       3.448   4.740   5.764  1.00  0.00     0.040 C 
HETATM   50  C32 UNL     1       4.177   4.018   4.708  1.00  0.00     0.010 C 
ENDBRANCH  22  49
BRANCH  18  51
HETATM   51  O5  UNL     1       7.736   0.409   8.487  1.00  0.00    -0.344 OA
ATOM     52  H5  UNL     1       8.020   0.172   7.612  1.00  0.00     0.219 HD
ENDBRANCH  18  51
BRANCH  21  53
HETATM   53  O6  UNL     1       5.592   5.438   7.673  1.00  0.00    -0.335 OA
ATOM     54  H6  UNL     1       6.316   5.684   7.109  1.00  0.00     0.220 HD
ENDBRANCH  21  53
BRANCH  19  55
HETATM   55  C26 UNL     1       7.459   1.748   6.256  1.00  0.00     0.046 C 
HETATM   56  C27 UNL     1       6.378   1.061   5.435  1.00  0.00     0.017 C 
HETATM   57  C28 UNL     1       8.338   2.650   5.450  1.00  0.00     0.017 C 
ENDBRANCH  19  55
TORSDOF 13
ENDMDL
MODEL 3
REMARK VINA RESULT: -8.253234081      0.960      1.282
REMARK  13 active torsions:
REMARK  status: ('A' for Active; 'I' for Inactive)
REMARK    1  A    between atoms: C2_2  and  C3_3 
REMARK    2  A    between atoms: C3_3  and  C4_4 
REMARK       I    between atoms: C4_4  and  N1_6 
REMARK    3  A    between atoms: C7_13  and  C8_14 
REMARK    4  A    between atoms: C8_14  and  C9_15 
REMARK    5  A    between atoms: C12_20  and  O3_21 
REMARK    6  A    between atoms: C19_31  and  C20_32 
REMARK    7  A    between atoms: C20_32  and  C21_33 
REMARK    8  A    between atoms: C21_33  and  C22_34 
REMARK    9  A    between atoms: C22_34  and  N5_35 
REMARK   10  A    between atoms: C24_42  and  O5_43 
REMARK   11  A    between atoms: C25_45  and  C26_46 
REMARK   12  A    between atoms: C29_50  and  O6_51 
REMARK   13  A    between atoms: C30_53  and  C31_54 
ROOT
HETATM    1  C4  UNL     1       0.985   2.025  10.974  1.00  0.00     0.223 C 
HETATM    2  O1  UNL     1       0.642   2.657  12.037  1.00  0.00    -0.273 OA
HETATM    3  N1  UNL     1       1.452   2.642   9.836  1.00  0.00    -0.313 N 
ATOM      4  H1  UNL     1       1.008   2.356   8.964  1.00  0.00     0.170 HD
HETATM    5  C5  UNL     1       2.380   3.536   9.726  1.00  0.00     0.117 C 
HETATM    6  N2  UNL     1       3.021   3.950  10.917  1.00  0.00    -0.311 N 
ATOM      7  H2  UNL     1       2.368   4.318  11.609  1.00  0.00     0.170 HD
HETATM    8  C6  UNL     1       4.349   3.969  11.361  1.00  0.00     0.246 C 
HETATM    9  O2  UNL     1       4.886   5.146  11.445  1.00  0.00    -0.271 OA
HETATM   10  C7  UNL     1       5.250   2.835  11.759  1.00  0.00     0.181 C 
HETATM   11  N4  UNL     1       6.435   3.370  12.301  1.00  0.00    -0.346 N 
ATOM     12  H4  UNL     1       6.272   3.904  13.155  1.00  0.00     0.163 HD
HETATM   13  C18 UNL     1       7.776   3.337  11.938  1.00  0.00     0.241 C 
HETATM   14  O4  UNL     1       8.623   3.548  12.894  1.00  0.00    -0.271 OA
HETATM   15  C19 UNL     1       8.347   3.090  10.573  1.00  0.00     0.176 C 
HETATM   16  N8  UNL     1       7.689   2.008   9.959  1.00  0.00    -0.355 N 
ATOM     17  H8  UNL     1       7.391   1.301  10.632  1.00  0.00     0.162 HD
HETATM   18  C24 UNL     1       7.350   1.673   8.653  1.00  0.00     0.174 C 
HETATM   19  C25 UNL     1       6.722   2.504   7.581  1.00  0.00     0.141 C 
HETATM   20  N9  UNL     1       5.913   3.339   7.929  1.00  0.00    -0.380 NA
HETATM   21  C29 UNL     1       4.997   4.343   7.892  1.00  0.00     0.221 C 
HETATM   22  C30 UNL     1       3.547   4.391   7.605  1.00  0.00     0.016 C 
HETATM   23  C33 UNL     1       2.535   4.053   8.365  1.00  0.00    -0.006 C 
HETATM   24  C34 UNL     1       1.191   4.154   7.580  1.00  0.00     0.053 C 
ENDROOT
BRANCH  10  25
HETATM   25  C8  UNL     1       4.596   1.886  12.731  1.00  0.00     0.075 C 
BRANCH  25  26
HETATM   26  C9  UNL     1       5.377   0.675  12.969  1.00  0.00    -0.028 A 
HETATM   27  C10 UNL     1       6.114  -0.020  12.003  1.00  0.00     0.096 A 
HETATM   28  N3  UNL     1       6.736  -1.058  12.578  1.00  0.00    -0.362 N 
HETATM   29  C11 UNL     1       6.447  -1.090  13.897  1.00  0.00     0.076 A 
ATOM     30  H3  UNL     1       7.338  -1.723  12.093  1.00  0.00     0.165 HD
HETATM   31  C12 UNL     1       6.818  -1.958  14.908  1.00  0.00     0.095 A 
HETATM   32  C17 UNL     1       5.600  -0.008  14.137  1.00  0.00     0.001 A 
HETATM   33  C14 UNL     1       6.351  -1.774  16.179  1.00  0.00     0.039 A 
HETATM   34  C15 UNL     1       5.509  -0.712  16.441  1.00  0.00     0.004 A 
HETATM   35  C16 UNL     1       5.147   0.142  15.448  1.00  0.00     0.014 A 
BRANCH  31  36
HETATM   36  O3  UNL     1       7.667  -3.016  14.609  1.00  0.00    -0.354 OA
HETATM   37  C13 UNL     1       8.853  -3.230  15.338  1.00  0.00     0.210 C 
ENDBRANCH  31  36
ENDBRANCH  25  26
ENDBRANCH  10  25
BRANCH  15  38
HETATM   38  C20 UNL     1       8.418   4.407   9.905  1.00  0.00     0.036 C 
BRANCH  38  39
HETATM   39  C21 UNL     1       9.498   4.375   8.845  1.00  0.00     0.022 C 
BRANCH  39  40
HETATM   40  C22 UNL     1       9.745   5.648   8.129  1.00  0.00     0.122 C 
BRANCH  40  41
HETATM   41  N5  UNL     1      11.181   5.940   8.289  1.00  0.00    -0.367 N 
HETATM   42  C23 UNL     1      11.604   7.058   8.789  1.00  0.00     0.196 C 
HETATM   43  N6  UNL     1      10.632   8.010   9.184  1.00  0.00    -0.067 NA
HETATM   44  N7  UNL     1      12.961   7.365   8.954  1.00  0.00    -0.067 NA
ATOM     45  H5  UNL     1      11.863   5.240   7.997  1.00  0.00     0.161 HD
ENDBRANCH  40  41
ENDBRANCH  39  40
ENDBRANCH  38  39
ENDBRANCH  15  38
BRANCH   1  46
HETATM   46  C3  UNL     1       0.823   0.536  11.099  1.00  0.00     0.103 C 
BRANCH  46  47
HETATM   47  C2  UNL     1       0.488   0.081  12.478  1.00  0.00     0.005 C 
HETATM   48  C1  UNL     1       1.637  -0.212  13.373  1.00  0.00     0.005 C 
ENDBRANCH  46  47
ENDBRANCH   1  46
BRANCH  22  49
HETATM   49  C31 UNL     1       3.230   5.098   6.263  1.00  0.00     0.040 C 
HETATM   50  C32 UNL     1       3.929   4.524   5.101  1.00  0.00     0.010 C 
ENDBRANCH  22  49
BRANCH  18  51
HETATM   51  O5  UNL     1       7.597   0.459   8.258  1.00  0.00    -0.344 OA
ATOM     52  H5  UNL     1       6.878  -0.162   8.264  1.00  0.00     0.219 HD
ENDBRANCH  18  51
BRANCH  21  53
HETATM   53  O6  UNL     1       5.451   5.552   8.159  1.00  0.00    -0.335 OA
ATOM     54  H6  UNL     1       5.048   6.265   7.677  1.00  0.00     0.220 HD
ENDBRANCH  21  53
BRANCH  19  55
HETATM   55  C26 UNL     1       7.242   2.065   6.223  1.00  0.00     0.046 C 
HETATM   56  C27 UNL     1       6.098   1.747   5.271  1.00  0.00     0.017 C 
HETATM   57  C28 UNL     1       8.296   2.936   5.618  1.00  0.00     0.017 C 
ENDBRANCH  19  55
TORSDOF 13
ENDMDL
MODEL 4
REMARK VINA RESULT: -7.299924447      8.756     15.788
REMARK  13 active torsions:
REMARK  status: ('A' for Active; 'I' for Inactive)
REMARK    1  A    between atoms: C2_2  and  C3_3 
REMARK    2  A    between atoms: C3_3  and  C4_4 
REMARK       I    between atoms: C4_4  and  N1_6 
REMARK    3  A    between atoms: C7_13  and  C8_14 
REMARK    4  A    between atoms: C8_14  and  C9_15 
REMARK    5  A    between atoms: C12_20  and  O3_21 
REMARK    6  A    between atoms: C19_31  and  C20_32 
REMARK    7  A    between atoms: C20_32  and  C21_33 
REMARK    8  A    between atoms: C21_33  and  C22_34 
REMARK    9  A    between atoms: C22_34  and  N5_35 
REMARK   10  A    between atoms: C24_42  and  O5_43 
REMARK   11  A    between atoms: C25_45  and  C26_46 
REMARK   12  A    between atoms: C29_50  and  O6_51 
REMARK   13  A    between atoms: C30_53  and  C31_54 
ROOT
HETATM    1  C4  UNL     1       2.569  -6.587  19.917  1.00  0.00     0.223 C 
HETATM    2  O1  UNL     1       2.321  -5.854  18.892  1.00  0.00    -0.273 OA
HETATM    3  N1  UNL     1       2.534  -7.962  19.899  1.00  0.00    -0.313 N 
ATOM      4  H1  UNL     1       1.999  -8.400  20.649  1.00  0.00     0.170 HD
HETATM    5  C5  UNL     1       3.088  -8.773  19.058  1.00  0.00     0.117 C 
HETATM    6  N2  UNL     1       3.843  -8.198  18.009  1.00  0.00    -0.311 N 
ATOM      7  H2  UNL     1       3.299  -7.548  17.442  1.00  0.00     0.170 HD
HETATM    8  C6  UNL     1       5.169  -8.320  17.573  1.00  0.00     0.246 C 
HETATM    9  O2  UNL     1       5.325  -8.950  16.451  1.00  0.00    -0.271 OA
HETATM   10  C7  UNL     1       6.441  -7.829  18.203  1.00  0.00     0.181 C 
HETATM   11  N4  UNL     1       7.501  -8.039  17.300  1.00  0.00    -0.346 N 
ATOM     12  H4  UNL     1       7.396  -7.503  16.438  1.00  0.00     0.163 HD
HETATM   13  C18 UNL     1       8.657  -8.811  17.314  1.00  0.00     0.241 C 
HETATM   14  O4  UNL     1       9.606  -8.417  16.527  1.00  0.00    -0.271 OA
HETATM   15  C19 UNL     1       8.924 -10.040  18.130  1.00  0.00     0.176 C 
HETATM   16  N8  UNL     1       8.498  -9.845  19.458  1.00  0.00    -0.355 N 
ATOM     17  H8  UNL     1       8.604  -8.876  19.762  1.00  0.00     0.162 HD
HETATM   18  C24 UNL     1       7.969 -10.658  20.453  1.00  0.00     0.174 C 
HETATM   19  C25 UNL     1       6.876 -11.675  20.383  1.00  0.00     0.141 C 
HETATM   20  N9  UNL     1       5.962 -11.453  19.615  1.00  0.00    -0.380 NA
HETATM   21  C29 UNL     1       4.803 -11.584  18.916  1.00  0.00     0.221 C 
HETATM   22  C30 UNL     1       3.384 -11.318  19.234  1.00  0.00     0.016 C 
HETATM   23  C33 UNL     1       2.741 -10.178  19.285  1.00  0.00    -0.006 C 
HETATM   24  C34 UNL     1       1.281 -10.384  19.795  1.00  0.00     0.053 C 
ENDROOT
BRANCH  10  25
HETATM   25  C8  UNL     1       6.365  -6.380  18.614  1.00  0.00     0.075 C 
BRANCH  25  26
HETATM   26  C9  UNL     1       6.624  -5.455  17.514  1.00  0.00    -0.028 A 
HETATM   27  C10 UNL     1       5.659  -4.946  16.636  1.00  0.00     0.096 A 
HETATM   28  N3  UNL     1       6.241  -4.097  15.777  1.00  0.00    -0.362 N 
HETATM   29  C11 UNL     1       7.563  -4.015  16.042  1.00  0.00     0.076 A 
ATOM     30  H3  UNL     1       5.758  -3.590  15.036  1.00  0.00     0.165 HD
HETATM   31  C12 UNL     1       8.587  -3.306  15.441  1.00  0.00     0.095 A 
HETATM   32  C17 UNL     1       7.797  -4.862  17.125  1.00  0.00     0.001 A 
HETATM   33  C14 UNL     1       9.869  -3.427  15.900  1.00  0.00     0.039 A 
HETATM   34  C15 UNL     1      10.127  -4.261  16.969  1.00  0.00     0.004 A 
HETATM   35  C16 UNL     1       9.119  -4.956  17.560  1.00  0.00     0.014 A 
BRANCH  31  36
HETATM   36  O3  UNL     1       8.293  -2.475  14.368  1.00  0.00    -0.354 OA
HETATM   37  C13 UNL     1       9.049  -1.315  14.112  1.00  0.00     0.210 C 
ENDBRANCH  31  36
ENDBRANCH  25  26
ENDBRANCH  10  25
BRANCH  15  38
HETATM   38  C20 UNL     1       8.425 -11.185  17.340  1.00  0.00     0.036 C 
BRANCH  38  39
HETATM   39  C21 UNL     1       9.457 -12.291  17.349  1.00  0.00     0.022 C 
BRANCH  39  40
HETATM   40  C22 UNL     1      10.708 -12.008  18.091  1.00  0.00     0.122 C 
BRANCH  40  41
HETATM   41  N5  UNL     1      10.727 -12.935  19.237  1.00  0.00    -0.367 N 
HETATM   42  C23 UNL     1      11.044 -12.546  20.432  1.00  0.00     0.196 C 
HETATM   43  N6  UNL     1      11.377 -11.180  20.610  1.00  0.00    -0.067 NA
HETATM   44  N7  UNL     1      11.071 -13.401  21.540  1.00  0.00    -0.067 NA
ATOM     45  H5  UNL     1      10.483 -13.914  19.085  1.00  0.00     0.161 HD
ENDBRANCH  40  41
ENDBRANCH  39  40
ENDBRANCH  38  39
ENDBRANCH  15  38
BRANCH   1  46
HETATM   46  C3  UNL     1       2.905  -5.784  21.142  1.00  0.00     0.103 C 
BRANCH  46  47
HETATM   47  C2  UNL     1       4.211  -5.073  21.057  1.00  0.00     0.005 C 
HETATM   48  C1  UNL     1       4.604  -4.271  22.244  1.00  0.00     0.005 C 
ENDBRANCH  46  47
ENDBRANCH   1  46
BRANCH  22  49
HETATM   49  C31 UNL     1       2.549 -12.617  19.358  1.00  0.00     0.040 C 
HETATM   50  C32 UNL     1       3.119 -13.612  20.282  1.00  0.00     0.010 C 
ENDBRANCH  22  49
BRANCH  18  51
HETATM   51  O5  UNL     1       8.470 -10.553  21.648  1.00  0.00    -0.344 OA
ATOM     52  H5  UNL     1       8.050 -11.040  22.348  1.00  0.00     0.219 HD
ENDBRANCH  18  51
BRANCH  21  53
HETATM   53  O6  UNL     1       4.919 -12.048  17.687  1.00  0.00    -0.335 OA
ATOM     54  H6  UNL     1       4.105 -12.231  17.232  1.00  0.00     0.220 HD
ENDBRANCH  21  53
BRANCH  19  55
HETATM   55  C26 UNL     1       7.157 -12.798  21.366  1.00  0.00     0.046 C 
HETATM   56  C27 UNL     1       6.035 -12.931  22.385  1.00  0.00     0.017 C 
HETATM   57  C28 UNL     1       7.572 -14.101  20.763  1.00  0.00     0.017 C 
ENDBRANCH  19  55
TORSDOF 13
ENDMDL
MODEL 5
REMARK VINA RESULT: -7.138698284      8.695     15.746
REMARK  13 active torsions:
REMARK  status: ('A' for Active; 'I' for Inactive)
REMARK    1  A    between atoms: C2_2  and  C3_3 
REMARK    2  A    between atoms: C3_3  and  C4_4 
REMARK       I    between atoms: C4_4  and  N1_6 
REMARK    3  A    between atoms: C7_13  and  C8_14 
REMARK    4  A    between atoms: C8_14  and  C9_15 
REMARK    5  A    between atoms: C12_20  and  O3_21 
REMARK    6  A    between atoms: C19_31  and  C20_32 
REMARK    7  A    between atoms: C20_32  and  C21_33 
REMARK    8  A    between atoms: C21_33  and  C22_34 
REMARK    9  A    between atoms: C22_34  and  N5_35 
REMARK   10  A    between atoms: C24_42  and  O5_43 
REMARK   11  A    between atoms: C25_45  and  C26_46 
REMARK   12  A    between atoms: C29_50  and  O6_51 
REMARK   13  A    between atoms: C30_53  and  C31_54 
ROOT
HETATM    1  C4  UNL     1       2.619  -6.617  19.876  1.00  0.00     0.223 C 
HETATM    2  O1  UNL     1       2.334  -5.895  18.853  1.00  0.00    -0.273 OA
HETATM    3  N1  UNL     1       2.636  -7.992  19.860  1.00  0.00    -0.313 N 
ATOM      4  H1  UNL     1       2.125  -8.450  20.614  1.00  0.00     0.170 HD
HETATM    5  C5  UNL     1       3.215  -8.782  19.015  1.00  0.00     0.117 C 
HETATM    6  N2  UNL     1       3.939  -8.179  17.960  1.00  0.00    -0.311 N 
ATOM      7  H2  UNL     1       3.366  -7.551  17.397  1.00  0.00     0.170 HD
HETATM    8  C6  UNL     1       5.265  -8.250  17.514  1.00  0.00     0.246 C 
HETATM    9  O2  UNL     1       5.437  -8.875  16.391  1.00  0.00    -0.271 OA
HETATM   10  C7  UNL     1       6.522  -7.709  18.134  1.00  0.00     0.181 C 
HETATM   11  N4  UNL     1       7.583  -7.880  17.222  1.00  0.00    -0.346 N 
ATOM     12  H4  UNL     1       7.451  -7.349  16.361  1.00  0.00     0.163 HD
HETATM   13  C18 UNL     1       8.768  -8.606  17.228  1.00  0.00     0.241 C 
HETATM   14  O4  UNL     1       9.695  -8.176  16.433  1.00  0.00    -0.271 OA
HETATM   15  C19 UNL     1       9.089  -9.823  18.043  1.00  0.00     0.176 C 
HETATM   16  N8  UNL     1       8.666  -9.643  19.374  1.00  0.00    -0.355 N 
ATOM     17  H8  UNL     1       8.736  -8.671  19.677  1.00  0.00     0.162 HD
HETATM   18  C24 UNL     1       8.176 -10.476  20.373  1.00  0.00     0.174 C 
HETATM   19  C25 UNL     1       7.123 -11.534  20.312  1.00  0.00     0.141 C 
HETATM   20  N9  UNL     1       6.195 -11.348  19.552  1.00  0.00    -0.380 NA
HETATM   21  C29 UNL     1       5.037 -11.525  18.861  1.00  0.00     0.221 C 
HETATM   22  C30 UNL     1       3.611 -11.313  19.190  1.00  0.00     0.016 C 
HETATM   23  C33 UNL     1       2.924 -10.199  19.245  1.00  0.00    -0.006 C 
HETATM   24  C34 UNL     1       1.477 -10.461  19.766  1.00  0.00     0.053 C 
ENDROOT
BRANCH  10  25
HETATM   25  C8  UNL     1       6.394  -6.264  18.544  1.00  0.00     0.075 C 
BRANCH  25  26
HETATM   26  C9  UNL     1       6.622  -5.330  17.445  1.00  0.00    -0.028 A 
HETATM   27  C10 UNL     1       5.634  -4.824  16.591  1.00  0.00     0.096 A 
HETATM   28  N3  UNL     1       6.191  -3.966  15.725  1.00  0.00    -0.362 N 
HETATM   29  C11 UNL     1       7.518  -3.874  15.962  1.00  0.00     0.076 A 
ATOM     30  H3  UNL     1       5.689  -3.458  14.997  1.00  0.00     0.165 HD
HETATM   31  C12 UNL     1       8.524  -3.154  15.344  1.00  0.00     0.095 A 
HETATM   32  C17 UNL     1       7.782  -4.726  17.035  1.00  0.00     0.001 A 
HETATM   33  C14 UNL     1       9.816  -3.266  15.776  1.00  0.00     0.039 A 
HETATM   34  C15 UNL     1      10.103  -4.105  16.833  1.00  0.00     0.004 A 
HETATM   35  C16 UNL     1       9.114  -4.812  17.441  1.00  0.00     0.014 A 
BRANCH  31  36
HETATM   36  O3  UNL     1       8.200  -2.318  14.283  1.00  0.00    -0.354 OA
HETATM   37  C13 UNL     1       9.015  -1.223  13.939  1.00  0.00     0.210 C 
ENDBRANCH  31  36
ENDBRANCH  25  26
ENDBRANCH  10  25
BRANCH  15  38
HETATM   38  C20 UNL     1       8.628 -10.987  17.257  1.00  0.00     0.036 C 
BRANCH  38  39
HETATM   39  C21 UNL     1       9.568 -12.152  17.485  1.00  0.00     0.022 C 
BRANCH  39  40
HETATM   40  C22 UNL     1       9.133 -13.456  16.934  1.00  0.00     0.122 C 
BRANCH  40  41
HETATM   41  N5  UNL     1       7.708 -13.597  17.282  1.00  0.00    -0.367 N 
HETATM   42  C23 UNL     1       7.064 -14.708  17.110  1.00  0.00     0.196 C 
HETATM   43  N6  UNL     1       7.779 -15.804  16.569  1.00  0.00    -0.067 NA
HETATM   44  N7  UNL     1       5.710 -14.873  17.431  1.00  0.00    -0.067 NA
ATOM     45  H5  UNL     1       7.212 -12.794  17.671  1.00  0.00     0.161 HD
ENDBRANCH  40  41
ENDBRANCH  39  40
ENDBRANCH  38  39
ENDBRANCH  15  38
BRANCH   1  46
HETATM   46  C3  UNL     1       2.932  -5.801  21.098  1.00  0.00     0.103 C 
BRANCH  46  47
HETATM   47  C2  UNL     1       4.254  -5.115  21.042  1.00  0.00     0.005 C 
HETATM   48  C1  UNL     1       4.627  -4.303  22.229  1.00  0.00     0.005 C 
ENDBRANCH  46  47
ENDBRANCH   1  46
BRANCH  22  49
HETATM   49  C31 UNL     1       2.828 -12.643  19.322  1.00  0.00     0.040 C 
HETATM   50  C32 UNL     1       3.455 -13.624  20.223  1.00  0.00     0.010 C 
ENDBRANCH  22  49
BRANCH  18  51
HETATM   51  O5  UNL     1       8.682 -10.350  21.565  1.00  0.00    -0.344 OA
ATOM     52  H5  UNL     1       9.221 -11.060  21.893  1.00  0.00     0.219 HD
ENDBRANCH  18  51
BRANCH  21  53
HETATM   53  O6  UNL     1       5.160 -11.984  17.631  1.00  0.00    -0.335 OA
ATOM     54  H6  UNL     1       4.372 -12.341  17.238  1.00  0.00     0.220 HD
ENDBRANCH  21  53
BRANCH  19  55
HETATM   55  C26 UNL     1       7.454 -12.645  21.294  1.00  0.00     0.046 C 
HETATM   56  C27 UNL     1       6.320 -12.859  22.286  1.00  0.00     0.017 C 
HETATM   57  C28 UNL     1       7.967 -13.913  20.692  1.00  0.00     0.017 C 
ENDBRANCH  19  55
TORSDOF 13
ENDMDL
