MODEL 1
REMARK VINA RESULT: -6.717682543      0.000      0.000
REMARK  2 active torsions:
REMARK  status: ('A' for Active; 'I' for Inactive)
REMARK    1  A    between atoms: C6_11  and  N4_12 
REMARK    2  A    between atoms: N4_12  and  C7_14 
ROOT
HETATM    1  C1  UNL     1      35.627   5.223  38.367  1.00  0.00     0.012 C 
HETATM    2  C2  UNL     1      35.811   4.664  39.423  1.00  0.00    -0.107 C 
HETATM    3  C3  UNL     1      36.046   4.009  40.709  1.00  0.00     0.124 C 
HETATM    4  C4  UNL     1      37.519   3.698  40.813  1.00  0.00     0.143 C 
HETATM    5  N1  UNL     1      37.851   2.851  41.934  1.00  0.00    -0.363 N 
ATOM      6  H1  UNL     1      38.672   3.035  42.511  1.00  0.00     0.162 HD
HETATM    7  C5  UNL     1      37.067   1.851  42.182  1.00  0.00     0.185 C 
HETATM    8  N2  UNL     1      37.369   1.007  43.273  1.00  0.00    -0.064 NA
HETATM    9  N3  UNL     1      35.945   1.655  41.344  1.00  0.00    -0.342 N 
ATOM     10  H3  UNL     1      35.660   0.702  41.118  1.00  0.00     0.164 HD
HETATM   11  C6  UNL     1      35.179   2.770  40.791  1.00  0.00     0.202 C 
ENDROOT
BRANCH  11  12
HETATM   12  N4  UNL     1      34.044   2.998  41.678  1.00  0.00    -0.348 N 
ATOM     13  H4  UNL     1      34.192   2.907  42.683  1.00  0.00     0.163 HD
BRANCH  12  14
HETATM   14  C7  UNL     1      32.765   3.335  41.225  1.00  0.00     0.187 A 
HETATM   15  N5  UNL     1      31.958   2.401  40.708  1.00  0.00    -0.277 N 
HETATM   16  N6  UNL     1      30.748   2.733  40.281  1.00  0.00    -0.250 N 
ATOM     17  H5  UNL     1      32.274   1.433  40.642  1.00  0.00     0.189 HD
HETATM   18  C8  UNL     1      30.302   3.997  40.352  1.00  0.00     0.341 A 
ATOM     19  H6  UNL     1      30.142   2.012  39.889  1.00  0.00     0.192 HD
HETATM   20  O1  UNL     1      29.140   4.267  39.932  1.00  0.00    -0.245 OA
HETATM   21  N7  UNL     1      31.081   4.965  40.864  1.00  0.00    -0.271 N 
HETATM   22  C9  UNL     1      32.313   4.629  41.300  1.00  0.00     0.294 A 
ATOM     23  H7  UNL     1      30.750   5.928  40.922  1.00  0.00     0.174 HD
HETATM   24  O2  UNL     1      33.017   5.573  41.777  1.00  0.00    -0.264 OA
ENDBRANCH  12  14
ENDBRANCH  11  12
TORSDOF 2
ENDMDL
MODEL 2
REMARK VINA RESULT: -6.599651020      5.378      6.472
REMARK  2 active torsions:
REMARK  status: ('A' for Active; 'I' for Inactive)
REMARK    1  A    between atoms: C6_11  and  N4_12 
REMARK    2  A    between atoms: N4_12  and  C7_14 
ROOT
HETATM    1  C1  UNL     1      31.304  -5.023  42.241  1.00  0.00     0.012 C 
HETATM    2  C2  UNL     1      31.894  -4.571  41.287  1.00  0.00    -0.107 C 
HETATM    3  C3  UNL     1      32.599  -4.043  40.119  1.00  0.00     0.124 C 
HETATM    4  C4  UNL     1      33.744  -4.974  39.804  1.00  0.00     0.143 C 
HETATM    5  N1  UNL     1      34.654  -4.452  38.812  1.00  0.00    -0.363 N 
ATOM      6  H1  UNL     1      35.026  -5.046  38.071  1.00  0.00     0.162 HD
HETATM    7  C5  UNL     1      34.980  -3.202  38.898  1.00  0.00     0.185 C 
HETATM    8  N2  UNL     1      35.868  -2.666  37.940  1.00  0.00    -0.064 NA
HETATM    9  N3  UNL     1      34.427  -2.435  39.949  1.00  0.00    -0.342 N 
ATOM     10  H3  UNL     1      35.003  -1.719  40.393  1.00  0.00     0.164 HD
HETATM   11  C6  UNL     1      33.058  -2.633  40.423  1.00  0.00     0.202 C 
ENDROOT
BRANCH  11  12
HETATM   12  N4  UNL     1      32.216  -1.661  39.734  1.00  0.00    -0.348 N 
ATOM     13  H4  UNL     1      31.887  -1.889  38.796  1.00  0.00     0.163 HD
BRANCH  12  14
HETATM   14  C7  UNL     1      31.837  -0.436  40.289  1.00  0.00     0.187 A 
HETATM   15  N5  UNL     1      30.592  -0.253  40.748  1.00  0.00    -0.277 N 
HETATM   16  N6  UNL     1      30.244   0.914  41.271  1.00  0.00    -0.250 N 
ATOM     17  H5  UNL     1      29.912  -1.012  40.695  1.00  0.00     0.189 HD
HETATM   18  C8  UNL     1      31.114   1.932  41.354  1.00  0.00     0.341 A 
ATOM     19  H6  UNL     1      29.292   1.042  41.617  1.00  0.00     0.192 HD
HETATM   20  O1  UNL     1      30.736   3.029  41.861  1.00  0.00    -0.245 OA
HETATM   21  N7  UNL     1      32.373   1.790  40.905  1.00  0.00    -0.271 N 
HETATM   22  C9  UNL     1      32.730   0.603  40.373  1.00  0.00     0.294 A 
ATOM     23  H7  UNL     1      33.040   2.559  40.965  1.00  0.00     0.174 HD
HETATM   24  O2  UNL     1      33.928   0.510  39.961  1.00  0.00    -0.264 OA
ENDBRANCH  12  14
ENDBRANCH  11  12
TORSDOF 2
ENDMDL
MODEL 3
REMARK VINA RESULT: -6.577739791      2.636      6.075
REMARK  2 active torsions:
REMARK  status: ('A' for Active; 'I' for Inactive)
REMARK    1  A    between atoms: C6_11  and  N4_12 
REMARK    2  A    between atoms: N4_12  and  C7_14 
ROOT
HETATM    1  C1  UNL     1      30.454   0.573  45.191  1.00  0.00     0.012 C 
HETATM    2  C2  UNL     1      30.410   1.450  44.360  1.00  0.00    -0.107 C 
HETATM    3  C3  UNL     1      30.341   2.525  43.371  1.00  0.00     0.124 C 
HETATM    4  C4  UNL     1      28.937   2.562  42.818  1.00  0.00     0.143 C 
HETATM    5  N1  UNL     1      28.793   3.429  41.673  1.00  0.00    -0.363 N 
ATOM      6  H1  UNL     1      27.984   4.044  41.573  1.00  0.00     0.162 HD
HETATM    7  C5  UNL     1      29.727   3.399  40.777  1.00  0.00     0.185 C 
HETATM    8  N2  UNL     1      29.610   4.237  39.647  1.00  0.00    -0.064 NA
HETATM    9  N3  UNL     1      30.820   2.525  40.978  1.00  0.00    -0.342 N 
ATOM     10  H3  UNL     1      31.230   2.055  40.171  1.00  0.00     0.164 HD
HETATM   11  C6  UNL     1      31.384   2.272  42.303  1.00  0.00     0.202 C 
ENDROOT
BRANCH  11  12
HETATM   12  N4  UNL     1      32.517   3.173  42.471  1.00  0.00    -0.348 N 
ATOM     13  H4  UNL     1      32.638   3.632  43.375  1.00  0.00     0.163 HD
BRANCH  12  14
HETATM   14  C7  UNL     1      33.447   3.443  41.463  1.00  0.00     0.187 A 
HETATM   15  N5  UNL     1      33.962   2.448  40.728  1.00  0.00    -0.277 N 
HETATM   16  N6  UNL     1      34.844   2.716  39.776  1.00  0.00    -0.250 N 
ATOM     17  H5  UNL     1      33.675   1.485  40.901  1.00  0.00     0.189 HD
HETATM   18  C8  UNL     1      35.242   3.973  39.523  1.00  0.00     0.341 A 
ATOM     19  H6  UNL     1      35.229   1.951  39.222  1.00  0.00     0.192 HD
HETATM   20  O1  UNL     1      36.087   4.181  38.605  1.00  0.00    -0.245 OA
HETATM   21  N7  UNL     1      34.751   4.999  40.238  1.00  0.00    -0.271 N 
HETATM   22  C9  UNL     1      33.853   4.729  41.208  1.00  0.00     0.294 A 
ATOM     23  H7  UNL     1      35.048   5.957  40.053  1.00  0.00     0.174 HD
HETATM   24  O2  UNL     1      33.412   5.727  41.859  1.00  0.00    -0.264 OA
ENDBRANCH  12  14
ENDBRANCH  11  12
TORSDOF 2
ENDMDL
MODEL 4
REMARK VINA RESULT: -6.563286830      1.991      3.294
REMARK  2 active torsions:
REMARK  status: ('A' for Active; 'I' for Inactive)
REMARK    1  A    between atoms: C6_11  and  N4_12 
REMARK    2  A    between atoms: N4_12  and  C7_14 
ROOT
HETATM    1  C1  UNL     1      33.990  -0.367  42.723  1.00  0.00     0.012 C 
HETATM    2  C2  UNL     1      34.150   0.599  42.013  1.00  0.00    -0.107 C 
HETATM    3  C3  UNL     1      34.357   1.752  41.139  1.00  0.00     0.124 C 
HETATM    4  C4  UNL     1      35.809   2.156  41.234  1.00  0.00     0.143 C 
HETATM    5  N1  UNL     1      36.098   3.417  40.594  1.00  0.00    -0.363 N 
ATOM      6  H1  UNL     1      36.937   3.542  40.026  1.00  0.00     0.162 HD
HETATM    7  C5  UNL     1      35.254   4.384  40.766  1.00  0.00     0.185 C 
HETATM    8  N2  UNL     1      35.513   5.628  40.150  1.00  0.00    -0.064 NA
HETATM    9  N3  UNL     1      34.112   4.142  41.563  1.00  0.00    -0.342 N 
ATOM     10  H3  UNL     1      33.763   4.891  42.163  1.00  0.00     0.164 HD
HETATM   11  C6  UNL     1      33.413   2.859  41.559  1.00  0.00     0.202 C 
ENDROOT
BRANCH  11  12
HETATM   12  N4  UNL     1      32.306   2.971  40.616  1.00  0.00    -0.348 N 
ATOM     13  H4  UNL     1      32.488   2.768  39.633  1.00  0.00     0.163 HD
BRANCH  12  14
HETATM   14  C7  UNL     1      31.010   3.341  40.987  1.00  0.00     0.187 A 
HETATM   15  N5  UNL     1      30.080   2.409  41.231  1.00  0.00    -0.277 N 
HETATM   16  N6  UNL     1      28.854   2.773  41.580  1.00  0.00    -0.250 N 
ATOM     17  H5  UNL     1      30.314   1.420  41.148  1.00  0.00     0.189 HD
HETATM   18  C8  UNL     1      28.513   4.065  41.698  1.00  0.00     0.341 A 
ATOM     19  H6  UNL     1      28.153   2.054  41.764  1.00  0.00     0.192 HD
HETATM   20  O1  UNL     1      27.330   4.365  42.033  1.00  0.00    -0.245 OA
HETATM   21  N7  UNL     1      29.417   5.032  41.461  1.00  0.00    -0.271 N 
HETATM   22  C9  UNL     1      30.665   4.664  41.106  1.00  0.00     0.294 A 
ATOM     23  H7  UNL     1      29.166   6.016  41.548  1.00  0.00     0.174 HD
HETATM   24  O2  UNL     1      31.489   5.608  40.892  1.00  0.00    -0.264 OA
ENDBRANCH  12  14
ENDBRANCH  11  12
TORSDOF 2
ENDMDL
MODEL 5
REMARK VINA RESULT: -6.535017267      2.617      3.703
REMARK  2 active torsions:
REMARK  status: ('A' for Active; 'I' for Inactive)
REMARK    1  A    between atoms: C6_11  and  N4_12 
REMARK    2  A    between atoms: N4_12  and  C7_14 
ROOT
HETATM    1  C1  UNL     1      35.747  -0.430  40.700  1.00  0.00     0.012 C 
HETATM    2  C2  UNL     1      35.100   0.582  40.563  1.00  0.00    -0.107 C 
HETATM    3  C3  UNL     1      34.330   1.811  40.375  1.00  0.00     0.124 C 
HETATM    4  C4  UNL     1      35.278   2.980  40.495  1.00  0.00     0.143 C 
HETATM    5  N1  UNL     1      34.609   4.258  40.552  1.00  0.00    -0.363 N 
ATOM      6  H1  UNL     1      34.963   5.064  40.034  1.00  0.00     0.162 HD
HETATM    7  C5  UNL     1      33.545   4.346  41.284  1.00  0.00     0.185 C 
HETATM    8  N2  UNL     1      32.873   5.585  41.357  1.00  0.00    -0.064 NA
HETATM    9  N3  UNL     1      33.110   3.192  41.975  1.00  0.00    -0.342 N 
ATOM     10  H3  UNL     1      32.706   3.298  42.906  1.00  0.00     0.164 HD
HETATM   11  C6  UNL     1      33.218   1.852  41.401  1.00  0.00     0.202 C 
ENDROOT
BRANCH  11  12
HETATM   12  N4  UNL     1      31.936   1.542  40.779  1.00  0.00    -0.348 N 
ATOM     13  H4  UNL     1      31.897   0.767  40.116  1.00  0.00     0.163 HD
BRANCH  12  14
HETATM   14  C7  UNL     1      30.759   2.248  41.042  1.00  0.00     0.187 A 
HETATM   15  N5  UNL     1      30.281   3.129  40.153  1.00  0.00    -0.277 N 
HETATM   16  N6  UNL     1      29.164   3.793  40.414  1.00  0.00    -0.250 N 
ATOM     17  H5  UNL     1      30.777   3.289  39.276  1.00  0.00     0.189 HD
HETATM   18  C8  UNL     1      28.489   3.607  41.559  1.00  0.00     0.341 A 
ATOM     19  H6  UNL     1      28.810   4.462  39.730  1.00  0.00     0.192 HD
HETATM   20  O1  UNL     1      27.428   4.264  41.765  1.00  0.00    -0.245 OA
HETATM   21  N7  UNL     1      28.935   2.732  42.477  1.00  0.00    -0.271 N 
HETATM   22  C9  UNL     1      30.071   2.054  42.213  1.00  0.00     0.294 A 
ATOM     23  H7  UNL     1      28.428   2.584  43.349  1.00  0.00     0.174 HD
HETATM   24  O2  UNL     1      30.457   1.237  43.106  1.00  0.00    -0.264 OA
ENDBRANCH  12  14
ENDBRANCH  11  12
TORSDOF 2
ENDMDL
