MODEL 1
REMARK VINA RESULT: -7.704246683      0.000      0.000
REMARK  8 active torsions:
REMARK  status: ('A' for Active; 'I' for Inactive)
REMARK    1  A    between atoms: C2_2  and  N1_3 
REMARK       I    between atoms: N1_3  and  C3_4 
REMARK    2  A    between atoms: N1_3  and  C18_26 
REMARK    3  A    between atoms: C3_4  and  C4_6 
REMARK    4  A    between atoms: C4_6  and  N2_7 
REMARK    5  A    between atoms: C4_6  and  C15_23 
REMARK       I    between atoms: N2_7  and  C5_9 
REMARK    6  A    between atoms: C5_9  and  C6_11 
REMARK       I    between atoms: N3_18  and  C13_19 
REMARK    7  A    between atoms: C13_19  and  O4_21 
REMARK    8  A    between atoms: C23_31  and  C24_32 
ROOT
HETATM    1  C4  UNL     1       8.478  35.609  35.412  1.00  0.00     0.180 C 
ENDROOT
BRANCH   1   2
HETATM    2  C3  UNL     1       8.243  36.833  34.634  1.00  0.00     0.244 C 
HETATM    3  N1  UNL     1       8.605  37.041  33.306  1.00  0.00    -0.329 N 
HETATM    4  O1  UNL     1       7.661  37.777  35.253  1.00  0.00    -0.271 OA
BRANCH   3   5
HETATM    5  C2  UNL     1       9.274  36.048  32.524  1.00  0.00     0.123 C 
HETATM    6  C1  UNL     1      10.720  35.833  32.762  1.00  0.00     0.026 C 
ENDBRANCH   3   5
BRANCH   3   7
HETATM    7  C18 UNL     1       8.341  38.345  32.705  1.00  0.00     0.194 C 
HETATM    8  C19 UNL     1       9.409  38.807  31.765  1.00  0.00     0.053 C 
HETATM    9  C20 UNL     1       8.799  38.673  30.400  1.00  0.00     0.061 C 
HETATM   10  C21 UNL     1       7.350  38.584  30.658  1.00  0.00     0.014 A 
HETATM   11  C22 UNL     1       6.304  38.689  29.733  1.00  0.00     0.032 A 
HETATM   12  N4  UNL     1       7.098  38.397  31.954  1.00  0.00    -0.338 N 
HETATM   13  C23 UNL     1       4.980  38.603  30.110  1.00  0.00    -0.052 A 
HETATM   14  C27 UNL     1       4.738  38.409  31.451  1.00  0.00     0.025 A 
HETATM   15  C28 UNL     1       5.790  38.310  32.334  1.00  0.00     0.093 A 
BRANCH  13  16
HETATM   16  C24 UNL     1       3.881  38.728  29.099  1.00  0.00     0.010 C 
HETATM   17  C25 UNL     1       4.245  39.698  28.028  1.00  0.00     0.015 C 
HETATM   18  C26 UNL     1       3.594  37.333  28.569  1.00  0.00     0.015 C 
ENDBRANCH  13  16
ENDBRANCH   3   7
ENDBRANCH   1   2
BRANCH   1  19
HETATM   19  N2  UNL     1       8.959  36.031  36.780  1.00  0.00    -0.346 N 
HETATM   20  C5  UNL     1      10.315  36.216  37.059  1.00  0.00     0.241 C 
HETATM   21  O2  UNL     1      11.180  36.043  36.177  1.00  0.00    -0.271 OA
ATOM     22  H2  UNL     1       8.274  36.185  37.521  1.00  0.00     0.163 HD
BRANCH  20  23
HETATM   23  C6  UNL     1      10.682  36.631  38.446  1.00  0.00     0.186 C 
HETATM   24  C7  UNL     1      11.787  35.692  38.978  1.00  0.00     0.018 C 
HETATM   25  C8  UNL     1      13.068  35.861  38.192  1.00  0.00     0.009 C 
HETATM   26  C12 UNL     1      12.062  36.078  40.413  1.00  0.00     0.009 C 
HETATM   27  C9  UNL     1      13.631  37.245  38.381  1.00  0.00     0.026 C 
HETATM   28  C10 UNL     1      12.583  38.084  39.085  1.00  0.00     0.090 C 
HETATM   29  C11 UNL     1      12.493  37.526  40.500  1.00  0.00     0.026 C 
HETATM   30  N3  UNL     1      11.286  37.944  38.486  1.00  0.00    -0.309 N 
HETATM   31  C13 UNL     1      10.618  39.086  37.952  1.00  0.00     0.363 C 
HETATM   32  O3  UNL     1       9.456  38.931  37.424  1.00  0.00    -0.238 OA
BRANCH  31  33
HETATM   33  O4  UNL     1      11.121  40.363  37.956  1.00  0.00    -0.309 OA
HETATM   34  C14 UNL     1      10.693  41.332  38.934  1.00  0.00     0.215 C 
ENDBRANCH  31  33
ENDBRANCH  20  23
ENDBRANCH   1  19
BRANCH   1  35
HETATM   35  C15 UNL     1       7.258  34.814  35.746  1.00  0.00     0.009 C 
HETATM   36  C16 UNL     1       7.687  33.349  35.896  1.00  0.00     0.012 C 
HETATM   37  C17 UNL     1       6.104  34.868  34.835  1.00  0.00     0.012 C 
ENDBRANCH   1  35
TORSDOF 8
ENDMDL
MODEL 2
REMARK VINA RESULT: -7.604486734      1.854      3.610
REMARK  8 active torsions:
REMARK  status: ('A' for Active; 'I' for Inactive)
REMARK    1  A    between atoms: C2_2  and  N1_3 
REMARK       I    between atoms: N1_3  and  C3_4 
REMARK    2  A    between atoms: N1_3  and  C18_26 
REMARK    3  A    between atoms: C3_4  and  C4_6 
REMARK    4  A    between atoms: C4_6  and  N2_7 
REMARK    5  A    between atoms: C4_6  and  C15_23 
REMARK       I    between atoms: N2_7  and  C5_9 
REMARK    6  A    between atoms: C5_9  and  C6_11 
REMARK       I    between atoms: N3_18  and  C13_19 
REMARK    7  A    between atoms: C13_19  and  O4_21 
REMARK    8  A    between atoms: C23_31  and  C24_32 
ROOT
HETATM    1  C4  UNL     1       9.821  38.229  33.835  1.00  0.00     0.180 C 
ENDROOT
BRANCH   1   2
HETATM    2  C3  UNL     1       8.400  37.869  33.736  1.00  0.00     0.244 C 
HETATM    3  N1  UNL     1       7.327  38.756  33.746  1.00  0.00    -0.329 N 
HETATM    4  O1  UNL     1       8.151  36.626  33.642  1.00  0.00    -0.271 OA
BRANCH   3   5
HETATM    5  C2  UNL     1       7.498  40.172  33.860  1.00  0.00     0.123 C 
HETATM    6  C1  UNL     1       7.967  40.713  35.156  1.00  0.00     0.026 C 
ENDBRANCH   3   5
BRANCH   3   7
HETATM    7  C18 UNL     1       5.972  38.217  33.693  1.00  0.00     0.194 C 
HETATM    8  C19 UNL     1       5.004  38.921  34.591  1.00  0.00     0.053 C 
HETATM    9  C20 UNL     1       4.130  39.712  33.662  1.00  0.00     0.061 C 
HETATM   10  C21 UNL     1       4.346  39.089  32.343  1.00  0.00     0.014 A 
HETATM   11  C22 UNL     1       3.602  39.277  31.171  1.00  0.00     0.032 A 
HETATM   12  N4  UNL     1       5.384  38.253  32.365  1.00  0.00    -0.338 N 
HETATM   13  C23 UNL     1       3.903  38.616  29.998  1.00  0.00    -0.052 A 
HETATM   14  C27 UNL     1       4.977  37.757  30.039  1.00  0.00     0.025 A 
HETATM   15  C28 UNL     1       5.687  37.596  31.207  1.00  0.00     0.093 A 
BRANCH  13  16
HETATM   16  C24 UNL     1       3.083  38.829  28.762  1.00  0.00     0.010 C 
HETATM   17  C25 UNL     1       3.360  40.162  28.157  1.00  0.00     0.015 C 
HETATM   18  C26 UNL     1       3.376  37.673  27.820  1.00  0.00     0.015 C 
ENDBRANCH  13  16
ENDBRANCH   3   7
ENDBRANCH   1   2
BRANCH   1  19
HETATM   19  N2  UNL     1      10.471  37.240  34.773  1.00  0.00    -0.346 N 
HETATM   20  C5  UNL     1      10.795  37.578  36.089  1.00  0.00     0.241 C 
HETATM   21  O2  UNL     1      10.549  38.716  36.538  1.00  0.00    -0.271 OA
ATOM     22  H2  UNL     1      10.680  36.301  34.436  1.00  0.00     0.163 HD
BRANCH  20  23
HETATM   23  C6  UNL     1      11.439  36.526  36.931  1.00  0.00     0.186 C 
HETATM   24  C7  UNL     1      12.752  37.085  37.523  1.00  0.00     0.018 C 
HETATM   25  C8  UNL     1      12.473  38.213  38.492  1.00  0.00     0.009 C 
HETATM   26  C12 UNL     1      13.424  35.966  38.284  1.00  0.00     0.009 C 
HETATM   27  C9  UNL     1      11.709  37.711  39.688  1.00  0.00     0.026 C 
HETATM   28  C10 UNL     1      11.249  36.299  39.390  1.00  0.00     0.090 C 
HETATM   29  C11 UNL     1      12.514  35.448  39.377  1.00  0.00     0.026 C 
HETATM   30  N3  UNL     1      10.646  36.188  38.092  1.00  0.00    -0.309 N 
HETATM   31  C13 UNL     1       9.295  35.747  37.965  1.00  0.00     0.363 C 
HETATM   32  O3  UNL     1       8.782  35.655  36.790  1.00  0.00    -0.238 OA
BRANCH  31  33
HETATM   33  O4  UNL     1       8.480  35.404  39.015  1.00  0.00    -0.309 OA
HETATM   34  C14 UNL     1       7.115  34.993  38.799  1.00  0.00     0.215 C 
ENDBRANCH  31  33
ENDBRANCH  20  23
ENDBRANCH   1  19
BRANCH   1  35
HETATM   35  C15 UNL     1      10.620  38.042  32.587  1.00  0.00     0.009 C 
HETATM   36  C16 UNL     1       9.816  38.643  31.428  1.00  0.00     0.012 C 
HETATM   37  C17 UNL     1      11.035  36.682  32.207  1.00  0.00     0.012 C 
ENDBRANCH   1  35
TORSDOF 8
ENDMDL
MODEL 3
REMARK VINA RESULT: -7.577070575      2.293      4.077
REMARK  8 active torsions:
REMARK  status: ('A' for Active; 'I' for Inactive)
REMARK    1  A    between atoms: C2_2  and  N1_3 
REMARK       I    between atoms: N1_3  and  C3_4 
REMARK    2  A    between atoms: N1_3  and  C18_26 
REMARK    3  A    between atoms: C3_4  and  C4_6 
REMARK    4  A    between atoms: C4_6  and  N2_7 
REMARK    5  A    between atoms: C4_6  and  C15_23 
REMARK       I    between atoms: N2_7  and  C5_9 
REMARK    6  A    between atoms: C5_9  and  C6_11 
REMARK       I    between atoms: N3_18  and  C13_19 
REMARK    7  A    between atoms: C13_19  and  O4_21 
REMARK    8  A    between atoms: C23_31  and  C24_32 
ROOT
HETATM    1  C4  UNL     1       7.270  38.584  35.237  1.00  0.00     0.180 C 
ENDROOT
BRANCH   1   2
HETATM    2  C3  UNL     1       6.627  37.717  34.240  1.00  0.00     0.244 C 
HETATM    3  N1  UNL     1       5.272  37.705  33.917  1.00  0.00    -0.329 N 
HETATM    4  O1  UNL     1       7.396  36.908  33.634  1.00  0.00    -0.271 OA
BRANCH   3   5
HETATM    5  C2  UNL     1       4.321  38.567  34.549  1.00  0.00     0.123 C 
HETATM    6  C1  UNL     1       3.976  39.836  33.870  1.00  0.00     0.026 C 
ENDBRANCH   3   5
BRANCH   3   7
HETATM    7  C18 UNL     1       4.796  36.735  32.936  1.00  0.00     0.194 C 
HETATM    8  C19 UNL     1       3.480  36.114  33.287  1.00  0.00     0.053 C 
HETATM    9  C20 UNL     1       2.502  36.731  32.331  1.00  0.00     0.061 C 
HETATM   10  C21 UNL     1       3.345  37.287  31.257  1.00  0.00     0.014 A 
HETATM   11  C22 UNL     1       2.940  37.757  30.002  1.00  0.00     0.032 A 
HETATM   12  N4  UNL     1       4.633  37.289  31.603  1.00  0.00    -0.338 N 
HETATM   13  C23 UNL     1       3.840  38.241  29.075  1.00  0.00    -0.052 A 
HETATM   14  C27 UNL     1       5.164  38.237  29.449  1.00  0.00     0.025 A 
HETATM   15  C28 UNL     1       5.528  37.767  30.691  1.00  0.00     0.093 A 
BRANCH  13  16
HETATM   16  C24 UNL     1       3.379  38.728  27.735  1.00  0.00     0.010 C 
HETATM   17  C25 UNL     1       4.159  39.921  27.299  1.00  0.00     0.015 C 
HETATM   18  C26 UNL     1       3.483  37.560  26.768  1.00  0.00     0.015 C 
ENDBRANCH  13  16
ENDBRANCH   3   7
ENDBRANCH   1   2
BRANCH   1  19
HETATM   19  N2  UNL     1       8.541  37.898  35.677  1.00  0.00    -0.346 N 
HETATM   20  C5  UNL     1       9.064  38.070  36.960  1.00  0.00     0.241 C 
HETATM   21  O2  UNL     1       8.489  38.799  37.794  1.00  0.00    -0.271 OA
ATOM     22  H2  UNL     1       9.031  37.292  35.019  1.00  0.00     0.163 HD
BRANCH  20  23
HETATM   23  C6  UNL     1      10.329  37.347  37.291  1.00  0.00     0.186 C 
HETATM   24  C7  UNL     1      11.494  38.360  37.328  1.00  0.00     0.018 C 
HETATM   25  C8  UNL     1      11.324  39.343  38.465  1.00  0.00     0.009 C 
HETATM   26  C12 UNL     1      12.768  37.582  37.566  1.00  0.00     0.009 C 
HETATM   27  C9  UNL     1      11.399  38.640  39.794  1.00  0.00     0.026 C 
HETATM   28  C10 UNL     1      11.356  37.147  39.536  1.00  0.00     0.090 C 
HETATM   29  C11 UNL     1      12.682  36.808  38.863  1.00  0.00     0.026 C 
HETATM   30  N3  UNL     1      10.309  36.785  38.623  1.00  0.00    -0.309 N 
HETATM   31  C13 UNL     1       9.281  35.884  39.034  1.00  0.00     0.363 C 
HETATM   32  O3  UNL     1       8.358  35.576  38.195  1.00  0.00    -0.238 OA
BRANCH  31  33
HETATM   33  O4  UNL     1       9.195  35.306  40.275  1.00  0.00    -0.309 OA
HETATM   34  C14 UNL     1       7.956  35.299  41.012  1.00  0.00     0.215 C 
ENDBRANCH  31  33
ENDBRANCH  20  23
ENDBRANCH   1  19
BRANCH   1  35
HETATM   35  C15 UNL     1       7.788  39.887  34.719  1.00  0.00     0.009 C 
HETATM   36  C16 UNL     1       7.101  41.005  35.513  1.00  0.00     0.012 C 
HETATM   37  C17 UNL     1       7.650  40.186  33.284  1.00  0.00     0.012 C 
ENDBRANCH   1  35
TORSDOF 8
ENDMDL
MODEL 4
REMARK VINA RESULT: -7.544395081      1.577      2.088
REMARK  8 active torsions:
REMARK  status: ('A' for Active; 'I' for Inactive)
REMARK    1  A    between atoms: C2_2  and  N1_3 
REMARK       I    between atoms: N1_3  and  C3_4 
REMARK    2  A    between atoms: N1_3  and  C18_26 
REMARK    3  A    between atoms: C3_4  and  C4_6 
REMARK    4  A    between atoms: C4_6  and  N2_7 
REMARK    5  A    between atoms: C4_6  and  C15_23 
REMARK       I    between atoms: N2_7  and  C5_9 
REMARK    6  A    between atoms: C5_9  and  C6_11 
REMARK       I    between atoms: N3_18  and  C13_19 
REMARK    7  A    between atoms: C13_19  and  O4_21 
REMARK    8  A    between atoms: C23_31  and  C24_32 
ROOT
HETATM    1  C4  UNL     1      10.295  37.178  35.065  1.00  0.00     0.180 C 
ENDROOT
BRANCH   1   2
HETATM    2  C3  UNL     1       9.406  38.036  34.271  1.00  0.00     0.244 C 
HETATM    3  N1  UNL     1       9.153  37.915  32.907  1.00  0.00    -0.329 N 
HETATM    4  O1  UNL     1       8.831  38.974  34.908  1.00  0.00    -0.271 OA
BRANCH   3   5
HETATM    5  C2  UNL     1       9.759  36.903  32.098  1.00  0.00     0.123 C 
HETATM    6  C1  UNL     1      11.207  37.013  31.814  1.00  0.00     0.026 C 
ENDBRANCH   3   5
BRANCH   3   7
HETATM    7  C18 UNL     1       8.280  38.894  32.267  1.00  0.00     0.194 C 
HETATM    8  C19 UNL     1       8.783  39.383  30.945  1.00  0.00     0.053 C 
HETATM    9  C20 UNL     1       7.880  38.740  29.934  1.00  0.00     0.061 C 
HETATM   10  C21 UNL     1       6.703  38.317  30.716  1.00  0.00     0.014 A 
HETATM   11  C22 UNL     1       5.461  37.884  30.234  1.00  0.00     0.032 A 
HETATM   12  N4  UNL     1       6.935  38.402  32.026  1.00  0.00    -0.338 N 
HETATM   13  C23 UNL     1       4.431  37.528  31.080  1.00  0.00    -0.052 A 
HETATM   14  C27 UNL     1       4.687  37.622  32.429  1.00  0.00     0.025 A 
HETATM   15  C28 UNL     1       5.919  38.051  32.868  1.00  0.00     0.093 A 
BRANCH  13  16
HETATM   16  C24 UNL     1       3.109  37.078  30.537  1.00  0.00     0.010 C 
HETATM   17  C25 UNL     1       1.984  37.579  31.376  1.00  0.00     0.015 C 
HETATM   18  C26 UNL     1       3.031  37.546  29.093  1.00  0.00     0.015 C 
ENDBRANCH  13  16
ENDBRANCH   3   7
ENDBRANCH   1   2
BRANCH   1  19
HETATM   19  N2  UNL     1      10.096  37.543  36.517  1.00  0.00    -0.346 N 
HETATM   20  C5  UNL     1      11.132  38.068  37.292  1.00  0.00     0.241 C 
HETATM   21  O2  UNL     1      12.265  38.259  36.804  1.00  0.00    -0.271 OA
ATOM     22  H2  UNL     1       9.180  37.403  36.942  1.00  0.00     0.163 HD
BRANCH  20  23
HETATM   23  C6  UNL     1      10.829  38.393  38.718  1.00  0.00     0.186 C 
HETATM   24  C7  UNL     1      11.685  37.491  39.635  1.00  0.00     0.018 C 
HETATM   25  C8  UNL     1      13.156  37.810  39.490  1.00  0.00     0.009 C 
HETATM   26  C12 UNL     1      11.280  37.776  41.063  1.00  0.00     0.009 C 
HETATM   27  C9  UNL     1      13.448  39.209  39.965  1.00  0.00     0.026 C 
HETATM   28  C10 UNL     1      12.124  39.914  40.181  1.00  0.00     0.090 C 
HETATM   29  C11 UNL     1      11.490  39.238  41.391  1.00  0.00     0.026 C 
HETATM   30  N3  UNL     1      11.228  39.736  39.074  1.00  0.00    -0.309 N 
HETATM   31  C13 UNL     1      10.745  40.869  38.354  1.00  0.00     0.363 C 
HETATM   32  O3  UNL     1       9.942  40.679  37.368  1.00  0.00    -0.238 OA
BRANCH  31  33
HETATM   33  O4  UNL     1      11.072  42.173  38.632  1.00  0.00    -0.309 OA
HETATM   34  C14 UNL     1      10.356  43.268  38.027  1.00  0.00     0.215 C 
ENDBRANCH  31  33
ENDBRANCH  20  23
ENDBRANCH   1  19
BRANCH   1  35
HETATM   35  C15 UNL     1       9.954  35.723  35.065  1.00  0.00     0.009 C 
HETATM   36  C16 UNL     1       8.841  35.509  36.099  1.00  0.00     0.012 C 
HETATM   37  C17 UNL     1      11.021  34.743  35.323  1.00  0.00     0.012 C 
ENDBRANCH   1  35
TORSDOF 8
ENDMDL
MODEL 5
REMARK VINA RESULT: -7.419245277      4.964      7.344
REMARK  8 active torsions:
REMARK  status: ('A' for Active; 'I' for Inactive)
REMARK    1  A    between atoms: C2_2  and  N1_3 
REMARK       I    between atoms: N1_3  and  C3_4 
REMARK    2  A    between atoms: N1_3  and  C18_26 
REMARK    3  A    between atoms: C3_4  and  C4_6 
REMARK    4  A    between atoms: C4_6  and  N2_7 
REMARK    5  A    between atoms: C4_6  and  C15_23 
REMARK       I    between atoms: N2_7  and  C5_9 
REMARK    6  A    between atoms: C5_9  and  C6_11 
REMARK       I    between atoms: N3_18  and  C13_19 
REMARK    7  A    between atoms: C13_19  and  O4_21 
REMARK    8  A    between atoms: C23_31  and  C24_32 
ROOT
HETATM    1  C4  UNL     1       4.456  36.665  35.139  1.00  0.00     0.180 C 
ENDROOT
BRANCH   1   2
HETATM    2  C3  UNL     1       3.505  37.041  34.084  1.00  0.00     0.244 C 
HETATM    3  N1  UNL     1       3.373  38.304  33.513  1.00  0.00    -0.329 N 
HETATM    4  O1  UNL     1       2.737  36.114  33.678  1.00  0.00    -0.271 OA
BRANCH   3   5
HETATM    5  C2  UNL     1       4.180  39.418  33.908  1.00  0.00     0.123 C 
HETATM    6  C1  UNL     1       5.433  39.668  33.161  1.00  0.00     0.026 C 
ENDBRANCH   3   5
BRANCH   3   7
HETATM    7  C18 UNL     1       2.333  38.513  32.511  1.00  0.00     0.194 C 
HETATM    8  C19 UNL     1       1.719  39.877  32.549  1.00  0.00     0.053 C 
HETATM    9  C20 UNL     1       2.256  40.571  31.332  1.00  0.00     0.061 C 
HETATM   10  C21 UNL     1       2.750  39.475  30.478  1.00  0.00     0.014 A 
HETATM   11  C22 UNL     1       3.129  39.538  29.132  1.00  0.00     0.032 A 
HETATM   12  N4  UNL     1       2.794  38.322  31.146  1.00  0.00    -0.338 N 
HETATM   13  C23 UNL     1       3.562  38.425  28.439  1.00  0.00    -0.052 A 
HETATM   14  C27 UNL     1       3.602  37.244  29.144  1.00  0.00     0.025 A 
HETATM   15  C28 UNL     1       3.222  37.218  30.467  1.00  0.00     0.093 A 
BRANCH  13  16
HETATM   16  C24 UNL     1       3.952  38.521  26.996  1.00  0.00     0.010 C 
HETATM   17  C25 UNL     1       3.021  37.737  26.135  1.00  0.00     0.015 C 
HETATM   18  C26 UNL     1       3.997  39.997  26.636  1.00  0.00     0.015 C 
ENDBRANCH  13  16
ENDBRANCH   3   7
ENDBRANCH   1   2
BRANCH   1  19
HETATM   19  N2  UNL     1       4.038  35.311  35.661  1.00  0.00    -0.346 N 
HETATM   20  C5  UNL     1       3.573  35.137  36.967  1.00  0.00     0.241 C 
HETATM   21  O2  UNL     1       3.483  36.105  37.749  1.00  0.00    -0.271 OA
ATOM     22  H2  UNL     1       4.096  34.502  35.043  1.00  0.00     0.163 HD
BRANCH  20  23
HETATM   23  C6  UNL     1       3.188  33.755  37.382  1.00  0.00     0.186 C 
HETATM   24  C7  UNL     1       4.262  33.199  38.343  1.00  0.00     0.018 C 
HETATM   25  C8  UNL     1       4.287  33.979  39.639  1.00  0.00     0.009 C 
HETATM   26  C12 UNL     1       3.893  31.769  38.663  1.00  0.00     0.009 C 
HETATM   27  C9  UNL     1       2.992  33.810  40.388  1.00  0.00     0.026 C 
HETATM   28  C10 UNL     1       2.003  33.128  39.464  1.00  0.00     0.090 C 
HETATM   29  C11 UNL     1       2.517  31.704  39.290  1.00  0.00     0.026 C 
HETATM   30  N3  UNL     1       1.972  33.733  38.163  1.00  0.00    -0.309 N 
HETATM   31  C13 UNL     1       0.758  34.292  37.662  1.00  0.00     0.363 C 
HETATM   32  O3  UNL     1       0.759  34.825  36.492  1.00  0.00    -0.238 OA
BRANCH  31  33
HETATM   33  O4  UNL     1      -0.437  34.307  38.338  1.00  0.00    -0.309 OA
HETATM   34  C14 UNL     1      -1.178  35.530  38.518  1.00  0.00     0.215 C 
ENDBRANCH  31  33
ENDBRANCH  20  23
ENDBRANCH   1  19
BRANCH   1  35
HETATM   35  C15 UNL     1       5.853  36.400  34.680  1.00  0.00     0.009 C 
HETATM   36  C16 UNL     1       6.104  34.892  34.811  1.00  0.00     0.012 C 
HETATM   37  C17 UNL     1       6.963  37.112  35.334  1.00  0.00     0.012 C 
ENDBRANCH   1  35
TORSDOF 8
ENDMDL
