MODEL 1
REMARK VINA RESULT: -6.738871273      0.000      0.000
REMARK  9 active torsions:
REMARK  status: ('A' for Active; 'I' for Inactive)
REMARK    1  A    between atoms: C4_4  and  O1_5 
REMARK    2  A    between atoms: C8_10  and  C9_11 
REMARK    3  A    between atoms: C9_11  and  O2_13 
REMARK    4  A    between atoms: O2_13  and  N1_14 
REMARK    5  A    between atoms: C18_24  and  C19_25 
REMARK    6  A    between atoms: C19_25  and  C20_26 
REMARK    7  A    between atoms: C19_25  and  C25_31 
REMARK    8  A    between atoms: C20_26  and  C21_27 
REMARK    9  A    between atoms: C21_27  and  C22_28 
ROOT
HETATM    1  C1  UNL     1      49.278  31.864  41.669  1.00  0.00     0.013 C 
HETATM    2  C2  UNL     1      49.007  31.850  40.491  1.00  0.00    -0.103 C 
HETATM    3  C3  UNL     1      48.686  31.812  39.034  1.00  0.00     0.064 C 
HETATM    4  C4  UNL     1      47.220  31.467  38.978  1.00  0.00     0.141 C 
HETATM    5  C5  UNL     1      46.954  30.052  39.433  1.00  0.00     0.043 C 
HETATM    6  C6  UNL     1      47.590  29.107  38.460  1.00  0.00    -0.032 C 
HETATM    7  C7  UNL     1      46.587  28.605  37.424  1.00  0.00     0.016 C 
HETATM    8  C8  UNL     1      48.206  27.994  39.233  1.00  0.00     0.025 C 
HETATM    9  C11 UNL     1      49.512  27.679  38.596  1.00  0.00     0.008 C 
HETATM   10  C12 UNL     1      49.480  28.473  37.313  1.00  0.00     0.006 C 
HETATM   11  C13 UNL     1      48.709  29.725  37.637  1.00  0.00     0.000 C 
HETATM   12  C14 UNL     1      49.521  30.711  38.438  1.00  0.00     0.018 C 
HETATM   13  C15 UNL     1      50.666  31.273  37.623  1.00  0.00     0.034 C 
HETATM   14  C16 UNL     1      50.180  32.280  36.642  1.00  0.00    -0.022 C 
HETATM   15  C17 UNL     1      49.299  33.201  37.015  1.00  0.00    -0.069 C 
HETATM   16  C18 UNL     1      48.585  34.331  36.395  1.00  0.00     0.026 C 
HETATM   17  C27 UNL     1      48.270  35.215  37.576  1.00  0.00     0.011 C 
HETATM   18  C28 UNL     1      47.754  34.088  38.516  1.00  0.00     0.016 C 
HETATM   19  C29 UNL     1      48.942  33.156  38.482  1.00  0.00     0.001 C 
HETATM   20  C30 UNL     1      50.051  33.916  39.177  1.00  0.00     0.022 C 
ENDROOT
BRANCH   4  21
HETATM   21  O1  UNL     1      46.540  32.276  39.928  1.00  0.00    -0.394 OA
ATOM     22  H1  UNL     1      45.888  32.789  39.466  1.00  0.00     0.210 HD
ENDBRANCH   4  21
BRANCH  16  23
HETATM   23  C19 UNL     1      49.330  35.029  35.270  1.00  0.00     0.063 C 
BRANCH  23  24
HETATM   24  C20 UNL     1      50.003  36.266  35.834  1.00  0.00     0.013 C 
BRANCH  24  25
HETATM   25  C21 UNL     1      51.449  36.267  36.018  1.00  0.00     0.005 C 
BRANCH  25  26
HETATM   26  C22 UNL     1      52.015  36.476  37.370  1.00  0.00    -0.023 C 
HETATM   27  C23 UNL     1      53.394  36.938  37.549  1.00  0.00     0.009 C 
HETATM   28  C24 UNL     1      51.103  37.535  38.043  1.00  0.00     0.009 C 
ENDBRANCH  25  26
ENDBRANCH  24  25
ENDBRANCH  23  24
BRANCH  23  29
HETATM   29  C25 UNL     1      48.206  35.648  34.425  1.00  0.00     0.127 C 
HETATM   30  C26 UNL     1      46.848  35.161  34.302  1.00  0.00     0.091 C 
HETATM   31  O3  UNL     1      48.519  36.670  33.786  1.00  0.00    -0.298 OA
ENDBRANCH  23  29
ENDBRANCH  16  23
BRANCH   8  32
HETATM   32  C9  UNL     1      47.369  26.774  39.436  1.00  0.00     0.152 C 
HETATM   33  C10 UNL     1      48.162  25.513  39.019  1.00  0.00     0.042 C 
BRANCH  32  34
HETATM   34  O2  UNL     1      47.083  26.527  40.794  1.00  0.00    -0.282 OA
BRANCH  34  35
HETATM   35  N1  UNL     1      45.857  26.888  41.159  1.00  0.00    -0.311 N 
ATOM     36  H12 UNL     1      45.060  26.256  41.088  1.00  0.00     0.184 HD
ATOM     37  H11 UNL     1      45.796  27.844  41.509  1.00  0.00     0.184 HD
ENDBRANCH  34  35
ENDBRANCH  32  34
ENDBRANCH   8  32
TORSDOF 9
ENDMDL
MODEL 2
REMARK VINA RESULT: -6.373989956      2.462      4.629
REMARK  9 active torsions:
REMARK  status: ('A' for Active; 'I' for Inactive)
REMARK    1  A    between atoms: C4_4  and  O1_5 
REMARK    2  A    between atoms: C8_10  and  C9_11 
REMARK    3  A    between atoms: C9_11  and  O2_13 
REMARK    4  A    between atoms: O2_13  and  N1_14 
REMARK    5  A    between atoms: C18_24  and  C19_25 
REMARK    6  A    between atoms: C19_25  and  C20_26 
REMARK    7  A    between atoms: C19_25  and  C25_31 
REMARK    8  A    between atoms: C20_26  and  C21_27 
REMARK    9  A    between atoms: C21_27  and  C22_28 
ROOT
HETATM    1  C1  UNL     1      48.161  31.965  35.388  1.00  0.00     0.013 C 
HETATM    2  C2  UNL     1      48.693  32.637  36.241  1.00  0.00    -0.103 C 
HETATM    3  C3  UNL     1      49.329  33.464  37.309  1.00  0.00     0.064 C 
HETATM    4  C4  UNL     1      50.438  32.597  37.847  1.00  0.00     0.141 C 
HETATM    5  C5  UNL     1      49.908  31.400  38.600  1.00  0.00     0.043 C 
HETATM    6  C6  UNL     1      49.192  31.881  39.824  1.00  0.00    -0.032 C 
HETATM    7  C7  UNL     1      50.091  31.836  41.057  1.00  0.00     0.016 C 
HETATM    8  C8  UNL     1      47.962  31.059  39.992  1.00  0.00     0.025 C 
HETATM    9  C11 UNL     1      46.872  31.973  40.423  1.00  0.00     0.008 C 
HETATM   10  C12 UNL     1      47.592  33.264  40.727  1.00  0.00     0.006 C 
HETATM   11  C13 UNL     1      48.730  33.327  39.744  1.00  0.00     0.000 C 
HETATM   12  C14 UNL     1      48.274  33.699  38.356  1.00  0.00     0.018 C 
HETATM   13  C15 UNL     1      47.763  35.123  38.306  1.00  0.00     0.034 C 
HETATM   14  C16 UNL     1      48.888  36.096  38.332  1.00  0.00    -0.022 C 
HETATM   15  C17 UNL     1      49.959  35.895  37.572  1.00  0.00    -0.069 C 
HETATM   16  C18 UNL     1      51.240  36.573  37.306  1.00  0.00     0.026 C 
HETATM   17  C27 UNL     1      51.601  36.074  35.929  1.00  0.00     0.011 C 
HETATM   18  C28 UNL     1      51.287  34.572  36.190  1.00  0.00     0.016 C 
HETATM   19  C29 UNL     1      49.861  34.685  36.675  1.00  0.00     0.001 C 
HETATM   20  C30 UNL     1      49.077  35.155  35.469  1.00  0.00     0.022 C 
ENDROOT
BRANCH   4  21
HETATM   21  O1  UNL     1      51.137  32.038  36.743  1.00  0.00    -0.394 OA
ATOM     22  H1  UNL     1      51.989  31.751  37.048  1.00  0.00     0.210 HD
ENDBRANCH   4  21
BRANCH  16  23
HETATM   23  C19 UNL     1      51.212  38.086  37.437  1.00  0.00     0.063 C 
BRANCH  23  24
HETATM   24  C20 UNL     1      51.249  38.690  36.046  1.00  0.00     0.013 C 
BRANCH  24  25
HETATM   25  C21 UNL     1      50.177  39.587  35.633  1.00  0.00     0.005 C 
BRANCH  25  26
HETATM   26  C22 UNL     1      49.776  39.643  34.209  1.00  0.00    -0.023 C 
HETATM   27  C23 UNL     1      49.218  38.468  33.534  1.00  0.00     0.009 C 
HETATM   28  C24 UNL     1      48.699  40.756  34.123  1.00  0.00     0.009 C 
ENDBRANCH  25  26
ENDBRANCH  24  25
ENDBRANCH  23  24
BRANCH  23  29
HETATM   29  C25 UNL     1      52.617  38.426  37.958  1.00  0.00     0.127 C 
HETATM   30  C26 UNL     1      53.816  37.632  37.793  1.00  0.00     0.091 C 
HETATM   31  O3  UNL     1      52.709  39.498  38.586  1.00  0.00    -0.298 OA
ENDBRANCH  23  29
ENDBRANCH  16  23
BRANCH   8  32
HETATM   32  C9  UNL     1      48.072  29.859  40.874  1.00  0.00     0.152 C 
HETATM   33  C10 UNL     1      46.677  29.227  41.084  1.00  0.00     0.042 C 
BRANCH  32  34
HETATM   34  O2  UNL     1      48.804  28.810  40.280  1.00  0.00    -0.282 OA
BRANCH  34  35
HETATM   35  N1  UNL     1      48.087  28.058  39.452  1.00  0.00    -0.311 N 
ATOM     36  H12 UNL     1      47.628  27.199  39.756  1.00  0.00     0.184 HD
ATOM     37  H11 UNL     1      48.044  28.419  38.499  1.00  0.00     0.184 HD
ENDBRANCH  34  35
ENDBRANCH  32  34
ENDBRANCH   8  32
TORSDOF 9
ENDMDL
MODEL 3
REMARK VINA RESULT: -6.179644059      2.654      4.869
REMARK  9 active torsions:
REMARK  status: ('A' for Active; 'I' for Inactive)
REMARK    1  A    between atoms: C4_4  and  O1_5 
REMARK    2  A    between atoms: C8_10  and  C9_11 
REMARK    3  A    between atoms: C9_11  and  O2_13 
REMARK    4  A    between atoms: O2_13  and  N1_14 
REMARK    5  A    between atoms: C18_24  and  C19_25 
REMARK    6  A    between atoms: C19_25  and  C20_26 
REMARK    7  A    between atoms: C19_25  and  C25_31 
REMARK    8  A    between atoms: C20_26  and  C21_27 
REMARK    9  A    between atoms: C21_27  and  C22_28 
ROOT
HETATM    1  C1  UNL     1      48.014  31.821  35.397  1.00  0.00     0.013 C 
HETATM    2  C2  UNL     1      48.819  32.443  36.049  1.00  0.00    -0.103 C 
HETATM    3  C3  UNL     1      49.794  33.220  36.870  1.00  0.00     0.064 C 
HETATM    4  C4  UNL     1      50.669  32.172  37.509  1.00  0.00     0.141 C 
HETATM    5  C5  UNL     1      49.919  31.355  38.534  1.00  0.00     0.043 C 
HETATM    6  C6  UNL     1      49.530  32.250  39.670  1.00  0.00    -0.032 C 
HETATM    7  C7  UNL     1      50.527  32.162  40.823  1.00  0.00     0.016 C 
HETATM    8  C8  UNL     1      48.149  31.889  40.091  1.00  0.00     0.025 C 
HETATM    9  C11 UNL     1      47.428  33.156  40.385  1.00  0.00     0.008 C 
HETATM   10  C12 UNL     1      48.519  34.199  40.357  1.00  0.00     0.006 C 
HETATM   11  C13 UNL     1      49.495  33.727  39.312  1.00  0.00     0.000 C 
HETATM   12  C14 UNL     1      48.992  33.956  37.908  1.00  0.00     0.018 C 
HETATM   13  C15 UNL     1      48.907  35.433  37.588  1.00  0.00     0.034 C 
HETATM   14  C16 UNL     1      50.257  36.002  37.331  1.00  0.00    -0.022 C 
HETATM   15  C17 UNL     1      51.120  35.347  36.563  1.00  0.00    -0.069 C 
HETATM   16  C18 UNL     1      52.497  35.539  36.075  1.00  0.00     0.026 C 
HETATM   17  C27 UNL     1      52.523  34.707  34.817  1.00  0.00     0.011 C 
HETATM   18  C28 UNL     1      51.829  33.449  35.414  1.00  0.00     0.016 C 
HETATM   19  C29 UNL     1      50.568  34.080  35.955  1.00  0.00     0.001 C 
HETATM   20  C30 UNL     1      49.805  34.535  34.730  1.00  0.00     0.022 C 
ENDROOT
BRANCH   4  21
HETATM   21  O1  UNL     1      51.033  31.231  36.507  1.00  0.00    -0.394 OA
ATOM     22  H1  UNL     1      50.660  31.519  35.683  1.00  0.00     0.210 HD
ENDBRANCH   4  21
BRANCH  16  23
HETATM   23  C19 UNL     1      52.919  36.985  35.880  1.00  0.00     0.063 C 
BRANCH  23  24
HETATM   24  C20 UNL     1      52.920  37.290  34.393  1.00  0.00     0.013 C 
BRANCH  24  25
HETATM   25  C21 UNL     1      51.863  38.128  33.840  1.00  0.00     0.005 C 
BRANCH  25  26
HETATM   26  C22 UNL     1      50.606  38.318  34.599  1.00  0.00    -0.023 C 
HETATM   27  C23 UNL     1      50.282  39.609  35.212  1.00  0.00     0.009 C 
HETATM   28  C24 UNL     1      49.463  38.005  33.598  1.00  0.00     0.009 C 
ENDBRANCH  25  26
ENDBRANCH  24  25
ENDBRANCH  23  24
BRANCH  23  29
HETATM   29  C25 UNL     1      54.424  36.964  36.189  1.00  0.00     0.127 C 
HETATM   30  C26 UNL     1      55.506  36.998  35.227  1.00  0.00     0.091 C 
HETATM   31  O3  UNL     1      54.720  36.908  37.398  1.00  0.00    -0.298 OA
ENDBRANCH  23  29
ENDBRANCH  16  23
BRANCH   8  32
HETATM   32  C9  UNL     1      48.022  30.899  41.201  1.00  0.00     0.152 C 
HETATM   33  C10 UNL     1      46.992  31.398  42.241  1.00  0.00     0.042 C 
BRANCH  32  34
HETATM   34  O2  UNL     1      47.469  29.672  40.778  1.00  0.00    -0.282 OA
BRANCH  34  35
HETATM   35  N1  UNL     1      46.140  29.647  40.799  1.00  0.00    -0.311 N 
ATOM     36  H12 UNL     1      45.599  30.106  41.532  1.00  0.00     0.184 HD
ATOM     37  H11 UNL     1      45.726  29.131  40.023  1.00  0.00     0.184 HD
ENDBRANCH  34  35
ENDBRANCH  32  34
ENDBRANCH   8  32
TORSDOF 9
ENDMDL
MODEL 4
REMARK VINA RESULT: -6.068748112      2.678      4.569
REMARK  9 active torsions:
REMARK  status: ('A' for Active; 'I' for Inactive)
REMARK    1  A    between atoms: C4_4  and  O1_5 
REMARK    2  A    between atoms: C8_10  and  C9_11 
REMARK    3  A    between atoms: C9_11  and  O2_13 
REMARK    4  A    between atoms: O2_13  and  N1_14 
REMARK    5  A    between atoms: C18_24  and  C19_25 
REMARK    6  A    between atoms: C19_25  and  C20_26 
REMARK    7  A    between atoms: C19_25  and  C25_31 
REMARK    8  A    between atoms: C20_26  and  C21_27 
REMARK    9  A    between atoms: C21_27  and  C22_28 
ROOT
HETATM    1  C1  UNL     1      46.480  32.413  33.513  1.00  0.00     0.013 C 
HETATM    2  C2  UNL     1      47.338  32.655  34.329  1.00  0.00    -0.103 C 
HETATM    3  C3  UNL     1      48.383  32.944  35.355  1.00  0.00     0.064 C 
HETATM    4  C4  UNL     1      49.519  32.016  35.009  1.00  0.00     0.141 C 
HETATM    5  C5  UNL     1      49.167  30.570  35.265  1.00  0.00     0.043 C 
HETATM    6  C6  UNL     1      48.970  30.376  36.736  1.00  0.00    -0.032 C 
HETATM    7  C7  UNL     1      50.232  29.837  37.407  1.00  0.00     0.016 C 
HETATM    8  C8  UNL     1      47.801  29.476  36.932  1.00  0.00     0.025 C 
HETATM    9  C11 UNL     1      47.023  30.002  38.084  1.00  0.00     0.008 C 
HETATM   10  C12 UNL     1      47.927  31.059  38.669  1.00  0.00     0.006 C 
HETATM   11  C13 UNL     1      48.655  31.656  37.494  1.00  0.00     0.000 C 
HETATM   12  C14 UNL     1      47.785  32.589  36.689  1.00  0.00     0.018 C 
HETATM   13  C15 UNL     1      47.432  33.831  37.479  1.00  0.00     0.034 C 
HETATM   14  C16 UNL     1      48.586  34.766  37.548  1.00  0.00    -0.022 C 
HETATM   15  C17 UNL     1      49.302  35.022  36.459  1.00  0.00    -0.069 C 
HETATM   16  C18 UNL     1      50.471  35.843  36.099  1.00  0.00     0.026 C 
HETATM   17  C27 UNL     1      50.281  36.064  34.619  1.00  0.00     0.011 C 
HETATM   18  C28 UNL     1      49.931  34.592  34.258  1.00  0.00     0.016 C 
HETATM   19  C29 UNL     1      48.780  34.357  35.207  1.00  0.00     0.001 C 
HETATM   20  C30 UNL     1      47.677  35.268  34.712  1.00  0.00     0.022 C 
ENDROOT
BRANCH   4  21
HETATM   21  O1  UNL     1      49.733  32.084  33.606  1.00  0.00    -0.394 OA
ATOM     22  H1  UNL     1      50.669  32.065  33.449  1.00  0.00     0.210 HD
ENDBRANCH   4  21
BRANCH  16  23
HETATM   23  C19 UNL     1      50.640  37.118  36.907  1.00  0.00     0.063 C 
BRANCH  23  24
HETATM   24  C20 UNL     1      51.113  38.219  35.976  1.00  0.00     0.013 C 
BRANCH  24  25
HETATM   25  C21 UNL     1      50.451  39.517  36.018  1.00  0.00     0.005 C 
BRANCH  25  26
HETATM   26  C22 UNL     1      49.962  40.131  34.763  1.00  0.00    -0.023 C 
HETATM   27  C23 UNL     1      49.111  39.380  33.836  1.00  0.00     0.009 C 
HETATM   28  C24 UNL     1      49.147  41.377  35.199  1.00  0.00     0.009 C 
ENDBRANCH  25  26
ENDBRANCH  24  25
ENDBRANCH  23  24
BRANCH  23  29
HETATM   29  C25 UNL     1      51.906  36.852  37.736  1.00  0.00     0.127 C 
HETATM   30  C26 UNL     1      53.265  37.202  37.376  1.00  0.00     0.091 C 
HETATM   31  O3  UNL     1      51.722  36.272  38.822  1.00  0.00    -0.298 OA
ENDBRANCH  23  29
ENDBRANCH  16  23
BRANCH   8  32
HETATM   32  C9  UNL     1      48.091  28.017  37.066  1.00  0.00     0.152 C 
HETATM   33  C10 UNL     1      47.110  27.373  38.073  1.00  0.00     0.042 C 
BRANCH  32  34
HETATM   34  O2  UNL     1      47.837  27.299  35.879  1.00  0.00    -0.282 OA
BRANCH  34  35
HETATM   35  N1  UNL     1      46.822  27.779  35.168  1.00  0.00    -0.311 N 
ATOM     36  H12 UNL     1      46.372  28.667  35.392  1.00  0.00     0.184 HD
ATOM     37  H11 UNL     1      46.544  27.181  34.390  1.00  0.00     0.184 HD
ENDBRANCH  34  35
ENDBRANCH  32  34
ENDBRANCH   8  32
TORSDOF 9
ENDMDL
MODEL 5
REMARK VINA RESULT: -6.058359724      3.145      8.112
REMARK  9 active torsions:
REMARK  status: ('A' for Active; 'I' for Inactive)
REMARK    1  A    between atoms: C4_4  and  O1_5 
REMARK    2  A    between atoms: C8_10  and  C9_11 
REMARK    3  A    between atoms: C9_11  and  O2_13 
REMARK    4  A    between atoms: O2_13  and  N1_14 
REMARK    5  A    between atoms: C18_24  and  C19_25 
REMARK    6  A    between atoms: C19_25  and  C20_26 
REMARK    7  A    between atoms: C19_25  and  C25_31 
REMARK    8  A    between atoms: C20_26  and  C21_27 
REMARK    9  A    between atoms: C21_27  and  C22_28 
ROOT
HETATM    1  C1  UNL     1      46.829  35.117  36.167  1.00  0.00     0.013 C 
HETATM    2  C2  UNL     1      47.762  34.815  36.875  1.00  0.00    -0.103 C 
HETATM    3  C3  UNL     1      48.928  34.437  37.727  1.00  0.00     0.064 C 
HETATM    4  C4  UNL     1      49.329  35.721  38.408  1.00  0.00     0.141 C 
HETATM    5  C5  UNL     1      49.913  36.718  37.437  1.00  0.00     0.043 C 
HETATM    6  C6  UNL     1      51.200  36.170  36.900  1.00  0.00    -0.032 C 
HETATM    7  C7  UNL     1      52.405  36.714  37.664  1.00  0.00     0.016 C 
HETATM    8  C8  UNL     1      51.265  36.484  35.447  1.00  0.00     0.025 C 
HETATM    9  C11 UNL     1      51.829  35.292  34.760  1.00  0.00     0.008 C 
HETATM   10  C12 UNL     1      52.303  34.419  35.897  1.00  0.00     0.006 C 
HETATM   11  C13 UNL     1      51.326  34.660  37.018  1.00  0.00     0.000 C 
HETATM   12  C14 UNL     1      50.008  33.963  36.794  1.00  0.00     0.018 C 
HETATM   13  C15 UNL     1      50.162  32.458  36.855  1.00  0.00     0.034 C 
HETATM   14  C16 UNL     1      50.311  31.994  38.260  1.00  0.00    -0.022 C 
HETATM   15  C17 UNL     1      49.520  32.480  39.209  1.00  0.00    -0.069 C 
HETATM   16  C18 UNL     1      49.337  32.306  40.661  1.00  0.00     0.026 C 
HETATM   17  C27 UNL     1      47.900  32.716  40.867  1.00  0.00     0.011 C 
HETATM   18  C28 UNL     1      47.953  34.010  40.004  1.00  0.00     0.016 C 
HETATM   19  C29 UNL     1      48.464  33.434  38.704  1.00  0.00     0.001 C 
HETATM   20  C30 UNL     1      47.343  32.548  38.205  1.00  0.00     0.022 C 
ENDROOT
BRANCH   4  21
HETATM   21  O1  UNL     1      48.150  36.350  38.893  1.00  0.00    -0.394 OA
ATOM     22  H1  UNL     1      48.263  36.510  39.823  1.00  0.00     0.210 HD
ENDBRANCH   4  21
BRANCH  16  23
HETATM   23  C19 UNL     1      49.677  30.925  41.196  1.00  0.00     0.063 C 
BRANCH  23  24
HETATM   24  C20 UNL     1      48.515  29.995  40.903  1.00  0.00     0.013 C 
BRANCH  24  25
HETATM   25  C21 UNL     1      48.769  28.735  40.216  1.00  0.00     0.005 C 
BRANCH  25  26
HETATM   26  C22 UNL     1      48.095  28.453  38.929  1.00  0.00    -0.023 C 
HETATM   27  C23 UNL     1      46.919  29.219  38.508  1.00  0.00     0.009 C 
HETATM   28  C24 UNL     1      49.176  28.666  37.837  1.00  0.00     0.009 C 
ENDBRANCH  25  26
ENDBRANCH  24  25
ENDBRANCH  23  24
BRANCH  23  29
HETATM   29  C25 UNL     1      49.561  31.092  42.718  1.00  0.00     0.127 C 
HETATM   30  C26 UNL     1      48.701  32.018  43.424  1.00  0.00     0.091 C 
HETATM   31  O3  UNL     1      50.295  30.347  43.395  1.00  0.00    -0.298 OA
ENDBRANCH  23  29
ENDBRANCH  16  23
BRANCH   8  32
HETATM   32  C9  UNL     1      51.971  37.742  35.062  1.00  0.00     0.152 C 
HETATM   33  C10 UNL     1      52.938  37.468  33.887  1.00  0.00     0.042 C 
BRANCH  32  34
HETATM   34  O2  UNL     1      51.099  38.715  34.530  1.00  0.00    -0.282 OA
BRANCH  34  35
HETATM   35  N1  UNL     1      50.675  39.602  35.424  1.00  0.00    -0.311 N 
ATOM     36  H12 UNL     1      50.944  40.586  35.385  1.00  0.00     0.184 HD
ATOM     37  H11 UNL     1      50.065  39.207  36.139  1.00  0.00     0.184 HD
ENDBRANCH  34  35
ENDBRANCH  32  34
ENDBRANCH   8  32
TORSDOF 9
ENDMDL
