MODEL 1
REMARK VINA RESULT: -8.614522979      0.000      0.000
REMARK  8 active torsions:
REMARK  status: ('A' for Active; 'I' for Inactive)
REMARK    1  A    between atoms: C4_6  and  C5_7 
REMARK    2  A    between atoms: C5_7  and  C6_8 
REMARK    3  A    between atoms: C7_9  and  C8_10 
REMARK    4  A    between atoms: C8_10  and  O3_11 
REMARK    5  A    between atoms: C9_13  and  C10_14 
REMARK    6  A    between atoms: C10_14  and  C11_15 
REMARK    7  A    between atoms: C11_15  and  C12_16 
REMARK    8  A    between atoms: C16_20  and  O4_21 
ROOT
HETATM    1  C12 UNL     1      48.820  34.791  38.741  1.00  0.00    -0.009 C 
HETATM    2  C13 UNL     1      49.787  35.946  39.038  1.00  0.00     0.010 C 
HETATM    3  C14 UNL     1      49.921  36.929  37.948  1.00  0.00    -0.003 C 
HETATM    4  C15 UNL     1      50.794  38.048  38.385  1.00  0.00     0.037 C 
HETATM    5  C16 UNL     1      52.259  37.791  38.282  1.00  0.00     0.118 C 
HETATM    6  C17 UNL     1      52.687  37.024  37.080  1.00  0.00     0.032 C 
HETATM    7  C18 UNL     1      51.860  35.748  36.894  1.00  0.00     0.012 C 
HETATM    8  C19 UNL     1      50.431  36.195  36.728  1.00  0.00    -0.036 C 
HETATM    9  C20 UNL     1      50.439  37.241  35.602  1.00  0.00     0.016 C 
HETATM   10  C21 UNL     1      49.477  35.146  36.343  1.00  0.00    -0.001 C 
HETATM   11  C22 UNL     1      50.039  34.335  35.200  1.00  0.00     0.006 C 
HETATM   12  C23 UNL     1      48.880  33.627  34.538  1.00  0.00     0.010 C 
HETATM   13  C24 UNL     1      47.651  33.586  35.363  1.00  0.00    -0.036 A 
HETATM   14  C25 UNL     1      46.350  34.039  34.684  1.00  0.00     0.016 C 
HETATM   15  C26 UNL     1      47.564  32.320  36.213  1.00  0.00    -0.005 A 
HETATM   16  C27 UNL     1      48.609  31.272  36.072  1.00  0.00     0.011 C 
HETATM   17  C28 UNL     1      47.731  33.622  36.815  1.00  0.00     0.003 A 
HETATM   18  C29 UNL     1      49.029  34.175  37.402  1.00  0.00    -0.001 C 
ENDROOT
BRANCH   1  19
HETATM   19  C11 UNL     1      49.009  33.879  39.925  1.00  0.00     0.006 C 
BRANCH  19  20
HETATM   20  C10 UNL     1      47.813  33.393  40.613  1.00  0.00     0.012 C 
BRANCH  20  21
HETATM   21  C9  UNL     1      47.930  32.056  41.276  1.00  0.00     0.054 C 
HETATM   22  C2  UNL     1      47.710  30.947  40.314  1.00  0.00     0.014 C 
HETATM   23  C1  UNL     1      46.966  30.900  39.238  1.00  0.00     0.025 C 
HETATM   24  C3  UNL     1      48.520  29.835  40.810  1.00  0.00     0.289 C 
HETATM   25  O1  UNL     1      48.398  28.607  40.576  1.00  0.00    -0.260 OA
HETATM   26  O2  UNL     1      49.485  30.372  41.613  1.00  0.00    -0.311 OA
HETATM   27  C4  UNL     1      49.236  31.743  41.881  1.00  0.00     0.144 C 
BRANCH  27  28
HETATM   28  C5  UNL     1      49.159  31.861  43.390  1.00  0.00     0.060 C 
BRANCH  28  29
HETATM   29  C6  UNL     1      50.063  30.897  44.039  1.00  0.00    -0.026 C 
HETATM   30  C7  UNL     1      50.114  30.721  45.338  1.00  0.00    -0.005 C 
BRANCH  30  31
HETATM   31  C8  UNL     1      49.338  31.399  46.383  1.00  0.00     0.191 C 
BRANCH  31  32
HETATM   32  O3  UNL     1      50.238  31.939  47.325  1.00  0.00    -0.397 OA
ATOM     33  H3  UNL     1      50.209  32.885  47.257  1.00  0.00     0.209 HD
ENDBRANCH  31  32
ENDBRANCH  30  31
ENDBRANCH  28  29
ENDBRANCH  27  28
ENDBRANCH  20  21
ENDBRANCH  19  20
ENDBRANCH   1  19
BRANCH   5  34
HETATM   34  O4  UNL     1      52.901  39.041  38.229  1.00  0.00    -0.396 OA
ATOM     35  H4  UNL     1      53.789  38.916  38.543  1.00  0.00     0.210 HD
ENDBRANCH   5  34
TORSDOF 8
ENDMDL
MODEL 2
REMARK VINA RESULT: -8.566257604      0.903      1.094
REMARK  8 active torsions:
REMARK  status: ('A' for Active; 'I' for Inactive)
REMARK    1  A    between atoms: C4_6  and  C5_7 
REMARK    2  A    between atoms: C5_7  and  C6_8 
REMARK    3  A    between atoms: C7_9  and  C8_10 
REMARK    4  A    between atoms: C8_10  and  O3_11 
REMARK    5  A    between atoms: C9_13  and  C10_14 
REMARK    6  A    between atoms: C10_14  and  C11_15 
REMARK    7  A    between atoms: C11_15  and  C12_16 
REMARK    8  A    between atoms: C16_20  and  O4_21 
ROOT
HETATM    1  C12 UNL     1      49.176  34.540  39.024  1.00  0.00    -0.009 C 
HETATM    2  C13 UNL     1      49.721  35.959  39.242  1.00  0.00     0.010 C 
HETATM    3  C14 UNL     1      49.768  36.792  38.027  1.00  0.00    -0.003 C 
HETATM    4  C15 UNL     1      50.210  38.166  38.376  1.00  0.00     0.037 C 
HETATM    5  C16 UNL     1      51.683  38.346  38.511  1.00  0.00     0.118 C 
HETATM    6  C17 UNL     1      52.509  37.596  37.524  1.00  0.00     0.032 C 
HETATM    7  C18 UNL     1      52.110  36.119  37.453  1.00  0.00     0.012 C 
HETATM    8  C19 UNL     1      50.665  36.095  37.028  1.00  0.00    -0.036 C 
HETATM    9  C20 UNL     1      50.582  36.945  35.751  1.00  0.00     0.016 C 
HETATM   10  C21 UNL     1      50.119  34.770  36.707  1.00  0.00    -0.001 C 
HETATM   11  C22 UNL     1      51.072  34.026  35.803  1.00  0.00     0.006 C 
HETATM   12  C23 UNL     1      50.286  32.927  35.127  1.00  0.00     0.010 C 
HETATM   13  C24 UNL     1      48.991  32.626  35.780  1.00  0.00    -0.036 A 
HETATM   14  C25 UNL     1      47.755  32.580  34.869  1.00  0.00     0.016 C 
HETATM   15  C26 UNL     1      49.108  31.509  36.815  1.00  0.00    -0.005 A 
HETATM   16  C27 UNL     1      50.409  30.811  36.993  1.00  0.00     0.011 C 
HETATM   17  C28 UNL     1      48.803  32.866  37.202  1.00  0.00     0.003 A 
HETATM   18  C29 UNL     1      49.777  33.851  37.849  1.00  0.00    -0.001 C 
ENDROOT
BRANCH   1  19
HETATM   19  C11 UNL     1      49.399  33.883  40.361  1.00  0.00     0.006 C 
BRANCH  19  20
HETATM   20  C10 UNL     1      48.222  33.488  41.135  1.00  0.00     0.012 C 
BRANCH  20  21
HETATM   21  C9  UNL     1      48.208  32.080  41.645  1.00  0.00     0.054 C 
HETATM   22  C2  UNL     1      47.729  31.129  40.611  1.00  0.00     0.014 C 
HETATM   23  C1  UNL     1      46.879  31.307  39.630  1.00  0.00     0.025 C 
HETATM   24  C3  UNL     1      48.413  29.869  40.895  1.00  0.00     0.289 C 
HETATM   25  O1  UNL     1      48.088  28.703  40.557  1.00  0.00    -0.260 OA
HETATM   26  O2  UNL     1      49.524  30.174  41.627  1.00  0.00    -0.311 OA
HETATM   27  C4  UNL     1      49.509  31.526  42.057  1.00  0.00     0.144 C 
BRANCH  27  28
HETATM   28  C5  UNL     1      49.605  31.480  43.569  1.00  0.00     0.060 C 
BRANCH  28  29
HETATM   29  C6  UNL     1      48.421  32.097  44.189  1.00  0.00    -0.026 C 
HETATM   30  C7  UNL     1      48.059  31.871  45.430  1.00  0.00    -0.005 C 
BRANCH  30  31
HETATM   31  C8  UNL     1      48.703  31.008  46.427  1.00  0.00     0.191 C 
BRANCH  31  32
HETATM   32  O3  UNL     1      49.577  31.800  47.200  1.00  0.00    -0.397 OA
ATOM     33  H3  UNL     1      49.648  31.411  48.063  1.00  0.00     0.209 HD
ENDBRANCH  31  32
ENDBRANCH  30  31
ENDBRANCH  28  29
ENDBRANCH  27  28
ENDBRANCH  20  21
ENDBRANCH  19  20
ENDBRANCH   1  19
BRANCH   5  34
HETATM   34  O4  UNL     1      51.957  39.714  38.328  1.00  0.00    -0.396 OA
ATOM     35  H4  UNL     1      51.900  39.892  37.397  1.00  0.00     0.210 HD
ENDBRANCH   5  34
TORSDOF 8
ENDMDL
MODEL 3
REMARK VINA RESULT: -8.296736083      2.277      2.922
REMARK  8 active torsions:
REMARK  status: ('A' for Active; 'I' for Inactive)
REMARK    1  A    between atoms: C4_6  and  C5_7 
REMARK    2  A    between atoms: C5_7  and  C6_8 
REMARK    3  A    between atoms: C7_9  and  C8_10 
REMARK    4  A    between atoms: C8_10  and  O3_11 
REMARK    5  A    between atoms: C9_13  and  C10_14 
REMARK    6  A    between atoms: C10_14  and  C11_15 
REMARK    7  A    between atoms: C11_15  and  C12_16 
REMARK    8  A    between atoms: C16_20  and  O4_21 
ROOT
HETATM    1  C12 UNL     1      49.253  35.425  38.070  1.00  0.00    -0.009 C 
HETATM    2  C13 UNL     1      50.584  36.120  38.390  1.00  0.00     0.010 C 
HETATM    3  C14 UNL     1      51.058  37.048  37.348  1.00  0.00    -0.003 C 
HETATM    4  C15 UNL     1      52.291  37.736  37.810  1.00  0.00     0.037 C 
HETATM    5  C16 UNL     1      53.553  36.961  37.643  1.00  0.00     0.118 C 
HETATM    6  C17 UNL     1      53.649  36.163  36.389  1.00  0.00     0.032 C 
HETATM    7  C18 UNL     1      52.405  35.298  36.168  1.00  0.00     0.012 C 
HETATM    8  C19 UNL     1      51.242  36.251  36.075  1.00  0.00    -0.036 C 
HETATM    9  C20 UNL     1      51.624  37.285  35.004  1.00  0.00     0.016 C 
HETATM   10  C21 UNL     1      49.963  35.655  35.671  1.00  0.00    -0.001 C 
HETATM   11  C22 UNL     1      50.166  34.764  34.470  1.00  0.00     0.006 C 
HETATM   12  C23 UNL     1      48.819  34.576  33.813  1.00  0.00     0.010 C 
HETATM   13  C24 UNL     1      47.674  34.944  34.678  1.00  0.00    -0.036 A 
HETATM   14  C25 UNL     1      46.625  35.885  34.068  1.00  0.00     0.016 C 
HETATM   15  C26 UNL     1      47.134  33.751  35.465  1.00  0.00    -0.005 A 
HETATM   16  C27 UNL     1      47.713  32.402  35.235  1.00  0.00     0.011 C 
HETATM   17  C28 UNL     1      47.781  34.860  36.126  1.00  0.00     0.003 A 
HETATM   18  C29 UNL     1      49.200  34.857  36.694  1.00  0.00    -0.001 C 
ENDROOT
BRANCH   1  19
HETATM   19  C11 UNL     1      49.105  34.438  39.198  1.00  0.00     0.006 C 
BRANCH  19  20
HETATM   20  C10 UNL     1      49.911  33.219  39.152  1.00  0.00     0.012 C 
BRANCH  20  21
HETATM   21  C9  UNL     1      49.293  32.044  38.460  1.00  0.00     0.054 C 
HETATM   22  C2  UNL     1      50.264  31.359  37.572  1.00  0.00     0.014 C 
HETATM   23  C1  UNL     1      51.285  31.841  36.907  1.00  0.00     0.025 C 
HETATM   24  C3  UNL     1      49.857  29.955  37.559  1.00  0.00     0.289 C 
HETATM   25  O1  UNL     1      50.113  29.068  36.706  1.00  0.00    -0.260 OA
HETATM   26  O2  UNL     1      49.113  29.745  38.684  1.00  0.00    -0.311 OA
HETATM   27  C4  UNL     1      48.793  30.967  39.331  1.00  0.00     0.144 C 
BRANCH  27  28
HETATM   28  C5  UNL     1      47.279  31.010  39.405  1.00  0.00     0.060 C 
BRANCH  28  29
HETATM   29  C6  UNL     1      46.805  30.557  40.723  1.00  0.00    -0.026 C 
HETATM   30  C7  UNL     1      46.889  31.290  41.808  1.00  0.00    -0.005 C 
BRANCH  30  31
HETATM   31  C8  UNL     1      47.438  32.643  41.956  1.00  0.00     0.191 C 
BRANCH  31  32
HETATM   32  O3  UNL     1      46.483  33.564  41.476  1.00  0.00    -0.397 OA
ATOM     33  H3  UNL     1      46.889  34.086  40.795  1.00  0.00     0.209 HD
ENDBRANCH  31  32
ENDBRANCH  30  31
ENDBRANCH  28  29
ENDBRANCH  27  28
ENDBRANCH  20  21
ENDBRANCH  19  20
ENDBRANCH   1  19
BRANCH   5  34
HETATM   34  O4  UNL     1      54.614  37.885  37.631  1.00  0.00    -0.396 OA
ATOM     35  H4  UNL     1      55.421  37.389  37.565  1.00  0.00     0.210 HD
ENDBRANCH   5  34
TORSDOF 8
ENDMDL
MODEL 4
REMARK VINA RESULT: -8.200185381      2.885      7.288
REMARK  8 active torsions:
REMARK  status: ('A' for Active; 'I' for Inactive)
REMARK    1  A    between atoms: C4_6  and  C5_7 
REMARK    2  A    between atoms: C5_7  and  C6_8 
REMARK    3  A    between atoms: C7_9  and  C8_10 
REMARK    4  A    between atoms: C8_10  and  O3_11 
REMARK    5  A    between atoms: C9_13  and  C10_14 
REMARK    6  A    between atoms: C10_14  and  C11_15 
REMARK    7  A    between atoms: C11_15  and  C12_16 
REMARK    8  A    between atoms: C16_20  and  O4_21 
ROOT
HETATM    1  C12 UNL     1      47.923  29.866  39.217  1.00  0.00    -0.009 C 
HETATM    2  C13 UNL     1      47.218  28.722  39.960  1.00  0.00     0.010 C 
HETATM    3  C14 UNL     1      47.902  27.420  39.873  1.00  0.00    -0.003 C 
HETATM    4  C15 UNL     1      47.191  26.421  40.709  1.00  0.00     0.037 C 
HETATM    5  C16 UNL     1      45.996  25.793  40.075  1.00  0.00     0.118 C 
HETATM    6  C17 UNL     1      46.132  25.491  38.623  1.00  0.00     0.032 C 
HETATM    7  C18 UNL     1      46.638  26.703  37.834  1.00  0.00     0.012 C 
HETATM    8  C19 UNL     1      47.988  27.044  38.410  1.00  0.00    -0.036 C 
HETATM    9  C20 UNL     1      48.807  25.745  38.375  1.00  0.00     0.016 C 
HETATM   10  C21 UNL     1      48.752  28.062  37.678  1.00  0.00    -0.001 C 
HETATM   11  C22 UNL     1      48.738  27.753  36.200  1.00  0.00     0.006 C 
HETATM   12  C23 UNL     1      49.891  28.500  35.572  1.00  0.00     0.010 C 
HETATM   13  C24 UNL     1      50.441  29.580  36.423  1.00  0.00    -0.036 A 
HETATM   14  C25 UNL     1      51.964  29.591  36.624  1.00  0.00     0.016 C 
HETATM   15  C26 UNL     1      49.788  30.932  36.141  1.00  0.00    -0.005 A 
HETATM   16  C27 UNL     1      48.790  31.046  35.045  1.00  0.00     0.011 C 
HETATM   17  C28 UNL     1      49.602  30.253  37.402  1.00  0.00     0.003 A 
HETATM   18  C29 UNL     1      48.343  29.503  37.836  1.00  0.00    -0.001 C 
ENDROOT
BRANCH   1  19
HETATM   19  C11 UNL     1      46.939  31.001  39.331  1.00  0.00     0.006 C 
BRANCH  19  20
HETATM   20  C10 UNL     1      47.352  32.317  38.843  1.00  0.00     0.012 C 
BRANCH  20  21
HETATM   21  C9  UNL     1      48.658  32.834  39.362  1.00  0.00     0.054 C 
HETATM   22  C2  UNL     1      49.147  33.985  38.562  1.00  0.00     0.014 C 
HETATM   23  C1  UNL     1      48.975  34.264  37.294  1.00  0.00     0.025 C 
HETATM   24  C3  UNL     1      49.913  34.810  39.495  1.00  0.00     0.289 C 
HETATM   25  O1  UNL     1      50.803  35.661  39.246  1.00  0.00    -0.260 OA
HETATM   26  O2  UNL     1      49.483  34.493  40.752  1.00  0.00    -0.311 OA
HETATM   27  C4  UNL     1      48.652  33.344  40.744  1.00  0.00     0.144 C 
BRANCH  27  28
HETATM   28  C5  UNL     1      49.315  32.348  41.675  1.00  0.00     0.060 C 
BRANCH  28  29
HETATM   29  C6  UNL     1      48.598  32.273  42.958  1.00  0.00    -0.026 C 
HETATM   30  C7  UNL     1      49.026  31.571  43.981  1.00  0.00    -0.005 C 
BRANCH  30  31
HETATM   31  C8  UNL     1      50.238  30.749  44.082  1.00  0.00     0.191 C 
BRANCH  31  32
HETATM   32  O3  UNL     1      50.903  31.085  45.280  1.00  0.00    -0.397 OA
ATOM     33  H3  UNL     1      51.838  30.995  45.137  1.00  0.00     0.209 HD
ENDBRANCH  31  32
ENDBRANCH  30  31
ENDBRANCH  28  29
ENDBRANCH  27  28
ENDBRANCH  20  21
ENDBRANCH  19  20
ENDBRANCH   1  19
BRANCH   5  34
HETATM   34  O4  UNL     1      45.764  24.573  40.734  1.00  0.00    -0.396 OA
ATOM     35  H4  UNL     1      44.939  24.230  40.413  1.00  0.00     0.210 HD
ENDBRANCH   5  34
TORSDOF 8
ENDMDL
MODEL 5
REMARK VINA RESULT: -8.195078727      1.525      1.876
REMARK  8 active torsions:
REMARK  status: ('A' for Active; 'I' for Inactive)
REMARK    1  A    between atoms: C4_6  and  C5_7 
REMARK    2  A    between atoms: C5_7  and  C6_8 
REMARK    3  A    between atoms: C7_9  and  C8_10 
REMARK    4  A    between atoms: C8_10  and  O3_11 
REMARK    5  A    between atoms: C9_13  and  C10_14 
REMARK    6  A    between atoms: C10_14  and  C11_15 
REMARK    7  A    between atoms: C11_15  and  C12_16 
REMARK    8  A    between atoms: C16_20  and  O4_21 
ROOT
HETATM    1  C12 UNL     1      49.549  35.395  38.515  1.00  0.00    -0.009 C 
HETATM    2  C13 UNL     1      50.035  36.834  38.738  1.00  0.00     0.010 C 
HETATM    3  C14 UNL     1      50.468  37.532  37.514  1.00  0.00    -0.003 C 
HETATM    4  C15 UNL     1      50.816  38.940  37.834  1.00  0.00     0.037 C 
HETATM    5  C16 UNL     1      52.183  39.147  38.391  1.00  0.00     0.118 C 
HETATM    6  C17 UNL     1      53.251  38.303  37.787  1.00  0.00     0.032 C 
HETATM    7  C18 UNL     1      52.858  36.824  37.754  1.00  0.00     0.012 C 
HETATM    8  C19 UNL     1      51.609  36.740  36.915  1.00  0.00    -0.036 C 
HETATM    9  C20 UNL     1      51.939  37.447  35.591  1.00  0.00     0.016 C 
HETATM   10  C21 UNL     1      51.155  35.384  36.584  1.00  0.00    -0.001 C 
HETATM   11  C22 UNL     1      52.319  34.555  36.097  1.00  0.00     0.006 C 
HETATM   12  C23 UNL     1      51.750  33.383  35.333  1.00  0.00     0.010 C 
HETATM   13  C24 UNL     1      50.311  33.142  35.589  1.00  0.00    -0.036 A 
HETATM   14  C25 UNL     1      49.410  32.987  34.355  1.00  0.00     0.016 C 
HETATM   15  C26 UNL     1      50.082  32.144  36.722  1.00  0.00    -0.005 A 
HETATM   16  C27 UNL     1      51.250  31.481  37.360  1.00  0.00     0.011 C 
HETATM   17  C28 UNL     1      49.707  33.532  36.853  1.00  0.00     0.003 A 
HETATM   18  C29 UNL     1      50.461  34.589  37.658  1.00  0.00    -0.001 C 
ENDROOT
BRANCH   1  19
HETATM   19  C11 UNL     1      49.339  34.887  39.918  1.00  0.00     0.006 C 
BRANCH  19  20
HETATM   20  C10 UNL     1      49.364  33.441  40.133  1.00  0.00     0.012 C 
BRANCH  20  21
HETATM   21  C9  UNL     1      48.208  32.867  40.893  1.00  0.00     0.054 C 
HETATM   22  C2  UNL     1      47.437  31.903  40.069  1.00  0.00     0.014 C 
HETATM   23  C1  UNL     1      47.242  31.868  38.774  1.00  0.00     0.025 C 
HETATM   24  C3  UNL     1      46.887  30.934  41.015  1.00  0.00     0.289 C 
HETATM   25  O1  UNL     1      45.900  30.169  40.874  1.00  0.00    -0.260 OA
HETATM   26  O2  UNL     1      47.660  30.992  42.139  1.00  0.00    -0.311 OA
HETATM   27  C4  UNL     1      48.544  32.101  42.105  1.00  0.00     0.144 C 
BRANCH  27  28
HETATM   28  C5  UNL     1      48.232  32.916  43.345  1.00  0.00     0.060 C 
BRANCH  28  29
HETATM   29  C6  UNL     1      47.417  32.138  44.292  1.00  0.00    -0.026 C 
HETATM   30  C7  UNL     1      47.919  31.522  45.337  1.00  0.00    -0.005 C 
BRANCH  30  31
HETATM   31  C8  UNL     1      49.317  31.466  45.779  1.00  0.00     0.191 C 
BRANCH  31  32
HETATM   32  O3  UNL     1      49.359  31.767  47.157  1.00  0.00    -0.397 OA
ATOM     33  H3  UNL     1      50.257  31.965  47.392  1.00  0.00     0.209 HD
ENDBRANCH  31  32
ENDBRANCH  30  31
ENDBRANCH  28  29
ENDBRANCH  27  28
ENDBRANCH  20  21
ENDBRANCH  19  20
ENDBRANCH   1  19
BRANCH   5  34
HETATM   34  O4  UNL     1      52.532  40.490  38.158  1.00  0.00    -0.396 OA
ATOM     35  H4  UNL     1      52.017  40.791  37.419  1.00  0.00     0.210 HD
ENDBRANCH   5  34
TORSDOF 8
ENDMDL
