MODEL 1
REMARK VINA RESULT: -6.746158845      0.000      0.000
REMARK  9 active torsions:
REMARK  status: ('A' for Active; 'I' for Inactive)
REMARK    1  A    between atoms: C3_3  and  C4_4 
REMARK    2  A    between atoms: C5_6  and  C6_7 
REMARK    3  A    between atoms: C6_7  and  S1_8 
REMARK    4  A    between atoms: S1_8  and  C7_9 
REMARK    5  A    between atoms: C7_9  and  C8_10 
REMARK    6  A    between atoms: C8_10  and  N1_11 
REMARK    7  A    between atoms: C11_14  and  O2_15 
REMARK    8  A    between atoms: C12_17  and  O3_18 
REMARK    9  A    between atoms: C13_20  and  O4_21 
ROOT
HETATM    1  C1  UNL     1      -2.349  -9.932  -3.856  1.00  0.00     0.097 C 
HETATM    2  C2  UNL     1      -2.098  -8.809  -4.493  1.00  0.00    -0.185 C 
HETATM    3  C3  UNL     1      -1.936  -7.663  -5.122  1.00  0.00     0.114 C 
ENDROOT
BRANCH   3   4
HETATM    4  C4  UNL     1      -3.158  -6.999  -5.570  1.00  0.00     0.163 C 
HETATM    5  O1  UNL     1      -3.627  -7.319  -6.785  1.00  0.00    -0.374 OA
HETATM    6  C5  UNL     1      -3.039  -6.749  -7.899  1.00  0.00     0.162 C 
HETATM    7  C11 UNL     1      -2.635  -5.341  -7.733  1.00  0.00     0.179 C 
HETATM    8  C12 UNL     1      -2.009  -5.045  -6.372  1.00  0.00     0.180 C 
HETATM    9  C13 UNL     1      -2.979  -5.511  -5.333  1.00  0.00     0.179 C 
BRANCH   6  10
HETATM   10  C6  UNL     1      -4.062  -6.901  -8.993  1.00  0.00     0.108 C 
BRANCH  10  11
HETATM   11  S1  UNL     1      -5.749  -7.102  -8.531  1.00  0.00    -0.165 SA
BRANCH  11  12
HETATM   12  C7  UNL     1      -7.008  -6.732  -9.731  1.00  0.00     0.104 C 
BRANCH  12  13
HETATM   13  C8  UNL     1      -7.451  -8.075 -10.334  1.00  0.00     0.281 C 
BRANCH  13  14
HETATM   14  N1  UNL     1      -8.867  -8.288 -10.220  1.00  0.00     0.080 N 
HETATM   15  C9  UNL     1      -9.445  -9.000 -11.335  1.00  0.00     0.309 C 
HETATM   16  C10 UNL     1      -9.099  -9.008  -8.974  1.00  0.00     0.309 C 
ENDBRANCH  13  14
ENDBRANCH  12  13
ENDBRANCH  11  12
ENDBRANCH  10  11
ENDBRANCH   6  10
BRANCH   7  17
HETATM   17  O2  UNL     1      -3.701  -4.453  -7.820  1.00  0.00    -0.390 OA
ATOM     18  H2  UNL     1      -3.583  -3.794  -8.493  1.00  0.00     0.210 HD
ENDBRANCH   7  17
BRANCH   8  19
HETATM   19  O3  UNL     1      -0.757  -5.604  -6.261  1.00  0.00    -0.390 OA
ATOM     20  H3  UNL     1      -0.140  -5.195  -6.856  1.00  0.00     0.210 HD
ENDBRANCH   8  19
BRANCH   9  21
HETATM   21  O4  UNL     1      -4.179  -4.820  -5.512  1.00  0.00    -0.390 OA
ATOM     22  H4  UNL     1      -4.094  -3.908  -5.261  1.00  0.00     0.210 HD
ENDBRANCH   9  21
ENDBRANCH   3   4
TORSDOF 9
ENDMDL
MODEL 2
REMARK VINA RESULT: -6.597476033      1.704      2.974
REMARK  9 active torsions:
REMARK  status: ('A' for Active; 'I' for Inactive)
REMARK    1  A    between atoms: C3_3  and  C4_4 
REMARK    2  A    between atoms: C5_6  and  C6_7 
REMARK    3  A    between atoms: C6_7  and  S1_8 
REMARK    4  A    between atoms: S1_8  and  C7_9 
REMARK    5  A    between atoms: C7_9  and  C8_10 
REMARK    6  A    between atoms: C8_10  and  N1_11 
REMARK    7  A    between atoms: C11_14  and  O2_15 
REMARK    8  A    between atoms: C12_17  and  O3_18 
REMARK    9  A    between atoms: C13_20  and  O4_21 
ROOT
HETATM    1  C1  UNL     1      -1.978  -2.599  -3.299  1.00  0.00     0.097 C 
HETATM    2  C2  UNL     1      -2.679  -3.544  -3.886  1.00  0.00    -0.185 C 
HETATM    3  C3  UNL     1      -3.332  -4.475  -4.550  1.00  0.00     0.114 C 
ENDROOT
BRANCH   3   4
HETATM    4  C4  UNL     1      -3.173  -4.457  -6.003  1.00  0.00     0.163 C 
HETATM    5  O1  UNL     1      -4.221  -4.842  -6.745  1.00  0.00    -0.374 OA
HETATM    6  C5  UNL     1      -4.471  -6.194  -6.898  1.00  0.00     0.162 C 
HETATM    7  C11 UNL     1      -3.268  -7.035  -7.028  1.00  0.00     0.179 C 
HETATM    8  C12 UNL     1      -2.136  -6.626  -6.088  1.00  0.00     0.180 C 
HETATM    9  C13 UNL     1      -1.873  -5.173  -6.325  1.00  0.00     0.179 C 
BRANCH   6  10
HETATM   10  C6  UNL     1      -5.341  -6.287  -8.123  1.00  0.00     0.108 C 
BRANCH  10  11
HETATM   11  S1  UNL     1      -6.887  -7.118  -7.983  1.00  0.00    -0.165 SA
BRANCH  11  12
HETATM   12  C7  UNL     1      -7.845  -7.383  -9.457  1.00  0.00     0.104 C 
BRANCH  12  13
HETATM   13  C8  UNL     1      -9.217  -7.908  -9.003  1.00  0.00     0.281 C 
BRANCH  13  14
HETATM   14  N1  UNL     1      -9.795  -8.824  -9.948  1.00  0.00     0.080 N 
HETATM   15  C9  UNL     1     -11.223  -8.680 -10.107  1.00  0.00     0.309 C 
HETATM   16  C10 UNL     1      -9.113  -8.622 -11.221  1.00  0.00     0.309 C 
ENDBRANCH  13  14
ENDBRANCH  12  13
ENDBRANCH  11  12
ENDBRANCH  10  11
ENDBRANCH   6  10
BRANCH   7  17
HETATM   17  O2  UNL     1      -2.698  -6.980  -8.294  1.00  0.00    -0.390 OA
ATOM     18  H2  UNL     1      -1.752  -7.068  -8.282  1.00  0.00     0.210 HD
ENDBRANCH   7  17
BRANCH   8  19
HETATM   19  O3  UNL     1      -2.430  -6.937  -4.781  1.00  0.00    -0.390 OA
ATOM     20  H3  UNL     1      -2.961  -6.263  -4.374  1.00  0.00     0.210 HD
ENDBRANCH   8  19
BRANCH   9  21
HETATM   21  O4  UNL     1      -1.520  -5.003  -7.665  1.00  0.00    -0.390 OA
ATOM     22  H4  UNL     1      -1.124  -4.153  -7.813  1.00  0.00     0.210 HD
ENDBRANCH   9  21
ENDBRANCH   3   4
TORSDOF 9
ENDMDL
MODEL 3
REMARK VINA RESULT: -6.557691333      4.875      7.755
REMARK  9 active torsions:
REMARK  status: ('A' for Active; 'I' for Inactive)
REMARK    1  A    between atoms: C3_3  and  C4_4 
REMARK    2  A    between atoms: C5_6  and  C6_7 
REMARK    3  A    between atoms: C6_7  and  S1_8 
REMARK    4  A    between atoms: S1_8  and  C7_9 
REMARK    5  A    between atoms: C7_9  and  C8_10 
REMARK    6  A    between atoms: C8_10  and  N1_11 
REMARK    7  A    between atoms: C11_14  and  O2_15 
REMARK    8  A    between atoms: C12_17  and  O3_18 
REMARK    9  A    between atoms: C13_20  and  O4_21 
ROOT
HETATM    1  C1  UNL     1      -5.715  -6.993  -9.693  1.00  0.00     0.097 C 
HETATM    2  C2  UNL     1      -4.980  -6.219  -8.925  1.00  0.00    -0.185 C 
HETATM    3  C3  UNL     1      -4.249  -5.509  -8.090  1.00  0.00     0.114 C 
ENDROOT
BRANCH   3   4
HETATM    4  C4  UNL     1      -4.250  -5.955  -6.699  1.00  0.00     0.163 C 
HETATM    5  O1  UNL     1      -4.228  -5.011  -5.746  1.00  0.00    -0.374 OA
HETATM    6  C5  UNL     1      -3.025  -4.402  -5.437  1.00  0.00     0.162 C 
HETATM    7  C11 UNL     1      -1.855  -5.297  -5.459  1.00  0.00     0.179 C 
HETATM    8  C12 UNL     1      -1.869  -6.287  -6.622  1.00  0.00     0.180 C 
HETATM    9  C13 UNL     1      -3.173  -7.016  -6.561  1.00  0.00     0.179 C 
BRANCH   6  10
HETATM   10  C6  UNL     1      -3.237  -3.809  -4.069  1.00  0.00     0.108 C 
BRANCH  10  11
HETATM   11  S1  UNL     1      -2.057  -2.643  -3.478  1.00  0.00    -0.165 SA
BRANCH  11  12
HETATM   12  C7  UNL     1      -1.888  -1.095  -4.337  1.00  0.00     0.104 C 
BRANCH  12  13
HETATM   13  C8  UNL     1      -1.976   0.011  -3.273  1.00  0.00     0.281 C 
BRANCH  13  14
HETATM   14  N1  UNL     1      -1.513   1.280  -3.762  1.00  0.00     0.080 N 
HETATM   15  C9  UNL     1      -2.547   2.283  -3.865  1.00  0.00     0.309 C 
HETATM   16  C10 UNL     1      -0.451   1.728  -2.869  1.00  0.00     0.309 C 
ENDBRANCH  13  14
ENDBRANCH  12  13
ENDBRANCH  11  12
ENDBRANCH  10  11
ENDBRANCH   6  10
BRANCH   7  17
HETATM   17  O2  UNL     1      -1.759  -6.100  -4.328  1.00  0.00    -0.390 OA
ATOM     18  H2  UNL     1      -0.937  -6.573  -4.275  1.00  0.00     0.210 HD
ENDBRANCH   7  17
BRANCH   8  19
HETATM   19  O3  UNL     1      -1.634  -5.657  -7.822  1.00  0.00    -0.390 OA
ATOM     20  H3  UNL     1      -1.760  -6.247  -8.555  1.00  0.00     0.210 HD
ENDBRANCH   8  19
BRANCH   9  21
HETATM   21  O4  UNL     1      -3.256  -7.665  -5.328  1.00  0.00    -0.390 OA
ATOM     22  H4  UNL     1      -2.434  -8.086  -5.103  1.00  0.00     0.210 HD
ENDBRANCH   9  21
ENDBRANCH   3   4
TORSDOF 9
ENDMDL
MODEL 4
REMARK VINA RESULT: -6.423918591      4.781      7.996
REMARK  9 active torsions:
REMARK  status: ('A' for Active; 'I' for Inactive)
REMARK    1  A    between atoms: C3_3  and  C4_4 
REMARK    2  A    between atoms: C5_6  and  C6_7 
REMARK    3  A    between atoms: C6_7  and  S1_8 
REMARK    4  A    between atoms: S1_8  and  C7_9 
REMARK    5  A    between atoms: C7_9  and  C8_10 
REMARK    6  A    between atoms: C8_10  and  N1_11 
REMARK    7  A    between atoms: C11_14  and  O2_15 
REMARK    8  A    between atoms: C12_17  and  O3_18 
REMARK    9  A    between atoms: C13_20  and  O4_21 
ROOT
HETATM    1  C1  UNL     1      -5.758  -7.080  -9.810  1.00  0.00     0.097 C 
HETATM    2  C2  UNL     1      -5.069  -6.299  -9.008  1.00  0.00    -0.185 C 
HETATM    3  C3  UNL     1      -4.385  -5.583  -8.139  1.00  0.00     0.114 C 
ENDROOT
BRANCH   3   4
HETATM    4  C4  UNL     1      -4.442  -6.033  -6.750  1.00  0.00     0.163 C 
HETATM    5  O1  UNL     1      -4.396  -5.095  -5.793  1.00  0.00    -0.374 OA
HETATM    6  C5  UNL     1      -3.172  -4.548  -5.452  1.00  0.00     0.162 C 
HETATM    7  C11 UNL     1      -2.048  -5.502  -5.450  1.00  0.00     0.179 C 
HETATM    8  C12 UNL     1      -2.084  -6.485  -6.618  1.00  0.00     0.180 C 
HETATM    9  C13 UNL     1      -3.424  -7.148  -6.591  1.00  0.00     0.179 C 
BRANCH   6  10
HETATM   10  C6  UNL     1      -3.386  -3.950  -4.086  1.00  0.00     0.108 C 
BRANCH  10  11
HETATM   11  S1  UNL     1      -2.254  -2.722  -3.530  1.00  0.00    -0.165 SA
BRANCH  11  12
HETATM   12  C7  UNL     1      -0.702  -3.248  -2.841  1.00  0.00     0.104 C 
BRANCH  12  13
HETATM   13  C8  UNL     1       0.291  -2.094  -3.059  1.00  0.00     0.281 C 
BRANCH  13  14
HETATM   14  N1  UNL     1       1.375  -2.117  -2.116  1.00  0.00     0.080 N 
HETATM   15  C9  UNL     1       2.098  -0.871  -2.023  1.00  0.00     0.309 C 
HETATM   16  C10 UNL     1       0.816  -2.485  -0.821  1.00  0.00     0.309 C 
ENDBRANCH  13  14
ENDBRANCH  12  13
ENDBRANCH  11  12
ENDBRANCH  10  11
ENDBRANCH   6  10
BRANCH   7  17
HETATM   17  O2  UNL     1      -2.021  -6.312  -4.321  1.00  0.00    -0.390 OA
ATOM     18  H2  UNL     1      -2.754  -6.163  -3.736  1.00  0.00     0.210 HD
ENDBRANCH   7  17
BRANCH   8  19
HETATM   19  O3  UNL     1      -1.788  -5.863  -7.808  1.00  0.00    -0.390 OA
ATOM     20  H3  UNL     1      -2.243  -6.271  -8.536  1.00  0.00     0.210 HD
ENDBRANCH   8  19
BRANCH   9  21
HETATM   21  O4  UNL     1      -3.569  -7.796  -5.364  1.00  0.00    -0.390 OA
ATOM     22  H4  UNL     1      -4.476  -7.799  -5.080  1.00  0.00     0.210 HD
ENDBRANCH   9  21
ENDBRANCH   3   4
TORSDOF 9
ENDMDL
MODEL 5
REMARK VINA RESULT: -6.324833257      4.050      7.102
REMARK  9 active torsions:
REMARK  status: ('A' for Active; 'I' for Inactive)
REMARK    1  A    between atoms: C3_3  and  C4_4 
REMARK    2  A    between atoms: C5_6  and  C6_7 
REMARK    3  A    between atoms: C6_7  and  S1_8 
REMARK    4  A    between atoms: S1_8  and  C7_9 
REMARK    5  A    between atoms: C7_9  and  C8_10 
REMARK    6  A    between atoms: C8_10  and  N1_11 
REMARK    7  A    between atoms: C11_14  and  O2_15 
REMARK    8  A    between atoms: C12_17  and  O3_18 
REMARK    9  A    between atoms: C13_20  and  O4_21 
ROOT
HETATM    1  C1  UNL     1      -6.070  -7.132  -9.817  1.00  0.00     0.097 C 
HETATM    2  C2  UNL     1      -5.328  -6.365  -9.049  1.00  0.00    -0.185 C 
HETATM    3  C3  UNL     1      -4.591  -5.662  -8.214  1.00  0.00     0.114 C 
ENDROOT
BRANCH   3   4
HETATM    4  C4  UNL     1      -4.596  -6.108  -6.822  1.00  0.00     0.163 C 
HETATM    5  O1  UNL     1      -4.520  -5.166  -5.870  1.00  0.00    -0.374 OA
HETATM    6  C5  UNL     1      -3.287  -4.613  -5.575  1.00  0.00     0.162 C 
HETATM    7  C11 UNL     1      -2.160  -5.561  -5.611  1.00  0.00     0.179 C 
HETATM    8  C12 UNL     1      -2.232  -6.548  -6.773  1.00  0.00     0.180 C 
HETATM    9  C13 UNL     1      -3.568  -7.217  -6.697  1.00  0.00     0.179 C 
BRANCH   6  10
HETATM   10  C6  UNL     1      -3.455  -4.011  -4.205  1.00  0.00     0.108 C 
BRANCH  10  11
HETATM   11  S1  UNL     1      -2.180  -2.962  -3.596  1.00  0.00    -0.165 SA
BRANCH  11  12
HETATM   12  C7  UNL     1      -1.564  -3.240  -1.951  1.00  0.00     0.104 C 
BRANCH  12  13
HETATM   13  C8  UNL     1      -0.635  -4.462  -2.029  1.00  0.00     0.281 C 
BRANCH  13  14
HETATM   14  N1  UNL     1      -0.978  -5.475  -1.069  1.00  0.00     0.080 N 
HETATM   15  C9  UNL     1      -2.396  -5.727  -0.964  1.00  0.00     0.309 C 
HETATM   16  C10 UNL     1      -0.267  -6.690  -1.447  1.00  0.00     0.309 C 
ENDBRANCH  13  14
ENDBRANCH  12  13
ENDBRANCH  11  12
ENDBRANCH  10  11
ENDBRANCH   6  10
BRANCH   7  17
HETATM   17  O2  UNL     1      -2.087  -6.367  -4.481  1.00  0.00    -0.390 OA
ATOM     18  H2  UNL     1      -1.330  -6.941  -4.479  1.00  0.00     0.210 HD
ENDBRANCH   7  17
BRANCH   8  19
HETATM   19  O3  UNL     1      -1.983  -5.929  -7.976  1.00  0.00    -0.390 OA
ATOM     20  H3  UNL     1      -1.695  -5.032  -7.852  1.00  0.00     0.210 HD
ENDBRANCH   8  19
BRANCH   9  21
HETATM   21  O4  UNL     1      -3.665  -7.863  -5.463  1.00  0.00    -0.390 OA
ATOM     22  H4  UNL     1      -4.569  -8.061  -5.248  1.00  0.00     0.210 HD
ENDBRANCH   9  21
ENDBRANCH   3   4
TORSDOF 9
ENDMDL
