MODEL 1
REMARK VINA RESULT: -8.743518149      0.000      0.000
REMARK  5 active torsions:
REMARK  status: ('A' for Active; 'I' for Inactive)
REMARK    1  A    between atoms: C2_2  and  N1_3 
REMARK    2  A    between atoms: N1_3  and  C3_5 
REMARK    3  A    between atoms: N3_14  and  C10_15 
REMARK    4  A    between atoms: C10_15  and  C11_16 
REMARK    5  A    between atoms: C11_16  and  C12_17 
ROOT
HETATM    1  C3  UNL     1       2.406  -4.659   5.411  1.00  0.00     0.117 C 
HETATM    2  C4  UNL     1       0.947  -4.928   5.226  1.00  0.00     0.130 C 
HETATM    3  C5  UNL     1       0.886  -6.400   5.036  1.00  0.00     0.222 C 
HETATM    4  O1  UNL     1      -0.147  -7.095   4.812  1.00  0.00    -0.273 OA
HETATM    5  N2  UNL     1       2.212  -6.907   5.151  1.00  0.00    -0.345 N 
HETATM    6  C6  UNL     1       2.770  -8.098   4.526  1.00  0.00     0.153 C 
HETATM    7  C7  UNL     1       2.902  -5.982   6.034  1.00  0.00     0.058 C 
HETATM    8  C8  UNL     1       2.339  -6.121   7.407  1.00  0.00     0.053 C 
HETATM    9  C9  UNL     1       3.388  -5.879   8.460  1.00  0.00     0.119 C 
HETATM   10  N3  UNL     1       4.455  -6.800   8.310  1.00  0.00    -0.412 N 
HETATM   11  C16 UNL     1       4.917  -7.054   6.991  1.00  0.00     0.119 C 
HETATM   12  C17 UNL     1       4.389  -6.075   5.972  1.00  0.00     0.053 C 
ENDROOT
BRANCH   1  13
HETATM   13  N1  UNL     1       3.166  -4.454   4.259  1.00  0.00    -0.395 N 
ATOM     14  H1  UNL     1       4.164  -4.663   4.275  1.00  0.00     0.159 HD
BRANCH  13  15
HETATM   15  C2  UNL     1       2.583  -3.964   3.075  1.00  0.00     0.051 C 
HETATM   16  C1  UNL     1       2.570  -5.010   1.971  1.00  0.00     0.054 C 
ENDBRANCH  13  15
ENDBRANCH   1  13
BRANCH  10  17
HETATM   17  C10 UNL     1       5.446  -6.819   9.333  1.00  0.00     0.119 C 
BRANCH  17  18
HETATM   18  C11 UNL     1       6.715  -7.446   8.770  1.00  0.00     0.051 C 
BRANCH  18  19
HETATM   19  C12 UNL     1       7.163  -8.579   9.688  1.00  0.00     0.123 C 
HETATM   20  C13 UNL     1       7.906  -8.105  10.884  1.00  0.00     0.034 C 
HETATM   21  C14 UNL     1       9.213  -8.855  10.857  1.00  0.00     0.029 C 
HETATM   22  C15 UNL     1       9.285  -9.264   9.399  1.00  0.00     0.168 C 
HETATM   23  O2  UNL     1       7.981  -9.421   8.998  1.00  0.00    -0.386 OA
ENDBRANCH  18  19
ENDBRANCH  17  18
ENDBRANCH  10  17
TORSDOF 5
ENDMDL
MODEL 2
REMARK VINA RESULT: -7.975731116      1.645      2.745
REMARK  5 active torsions:
REMARK  status: ('A' for Active; 'I' for Inactive)
REMARK    1  A    between atoms: C2_2  and  N1_3 
REMARK    2  A    between atoms: N1_3  and  C3_5 
REMARK    3  A    between atoms: N3_14  and  C10_15 
REMARK    4  A    between atoms: C10_15  and  C11_16 
REMARK    5  A    between atoms: C11_16  and  C12_17 
ROOT
HETATM    1  C3  UNL     1       3.010  -7.038   4.948  1.00  0.00     0.117 C 
HETATM    2  C4  UNL     1       3.043  -5.824   4.076  1.00  0.00     0.130 C 
HETATM    3  C5  UNL     1       2.683  -4.719   5.002  1.00  0.00     0.222 C 
HETATM    4  O1  UNL     1       2.553  -3.496   4.711  1.00  0.00    -0.273 OA
HETATM    5  N2  UNL     1       2.507  -5.282   6.298  1.00  0.00    -0.345 N 
HETATM    6  C6  UNL     1       1.652  -4.797   7.373  1.00  0.00     0.153 C 
HETATM    7  C7  UNL     1       3.369  -6.451   6.331  1.00  0.00     0.058 C 
HETATM    8  C8  UNL     1       4.789  -6.000   6.321  1.00  0.00     0.053 C 
HETATM    9  C9  UNL     1       5.670  -6.934   7.107  1.00  0.00     0.119 C 
HETATM   10  N3  UNL     1       5.227  -7.011   8.451  1.00  0.00    -0.412 N 
HETATM   11  C16 UNL     1       3.827  -7.112   8.672  1.00  0.00     0.119 C 
HETATM   12  C17 UNL     1       3.044  -7.417   7.419  1.00  0.00     0.053 C 
ENDROOT
BRANCH   1  13
HETATM   13  N1  UNL     1       1.780  -7.680   5.097  1.00  0.00    -0.395 N 
ATOM     14  H1  UNL     1       1.217  -7.495   5.927  1.00  0.00     0.159 HD
BRANCH  13  15
HETATM   15  C2  UNL     1       1.301  -8.579   4.126  1.00  0.00     0.051 C 
HETATM   16  C1  UNL     1       1.887  -9.972   4.299  1.00  0.00     0.054 C 
ENDBRANCH  13  15
ENDBRANCH   1  13
BRANCH  10  17
HETATM   17  C10 UNL     1       6.056  -7.717   9.370  1.00  0.00     0.119 C 
BRANCH  17  18
HETATM   18  C11 UNL     1       7.454  -7.829   8.774  1.00  0.00     0.051 C 
BRANCH  18  19
HETATM   19  C12 UNL     1       8.187  -8.993   9.436  1.00  0.00     0.123 C 
HETATM   20  C13 UNL     1       8.238  -8.886  10.918  1.00  0.00     0.034 C 
HETATM   21  C14 UNL     1       9.701  -8.978  11.267  1.00  0.00     0.029 C 
HETATM   22  C15 UNL     1      10.342  -8.602   9.945  1.00  0.00     0.168 C 
HETATM   23  O2  UNL     1       9.468  -9.037   8.979  1.00  0.00    -0.386 OA
ENDBRANCH  18  19
ENDBRANCH  17  18
ENDBRANCH  10  17
TORSDOF 5
ENDMDL
MODEL 3
REMARK VINA RESULT: -7.476410813      1.108      1.372
REMARK  5 active torsions:
REMARK  status: ('A' for Active; 'I' for Inactive)
REMARK    1  A    between atoms: C2_2  and  N1_3 
REMARK    2  A    between atoms: N1_3  and  C3_5 
REMARK    3  A    between atoms: N3_14  and  C10_15 
REMARK    4  A    between atoms: C10_15  and  C11_16 
REMARK    5  A    between atoms: C11_16  and  C12_17 
ROOT
HETATM    1  C3  UNL     1       1.958  -4.726   4.505  1.00  0.00     0.117 C 
HETATM    2  C4  UNL     1       0.560  -5.099   4.128  1.00  0.00     0.130 C 
HETATM    3  C5  UNL     1       0.574  -6.584   4.161  1.00  0.00     0.222 C 
HETATM    4  O1  UNL     1      -0.386  -7.359   3.883  1.00  0.00    -0.273 OA
HETATM    5  N2  UNL     1       1.875  -6.995   4.569  1.00  0.00    -0.345 N 
HETATM    6  C6  UNL     1       2.564  -8.234   4.235  1.00  0.00     0.153 C 
HETATM    7  C7  UNL     1       2.378  -5.914   5.398  1.00  0.00     0.058 C 
HETATM    8  C8  UNL     1       1.595  -5.878   6.666  1.00  0.00     0.053 C 
HETATM    9  C9  UNL     1       2.443  -5.426   7.825  1.00  0.00     0.119 C 
HETATM   10  N3  UNL     1       3.546  -6.300   7.996  1.00  0.00    -0.412 N 
HETATM   11  C16 UNL     1       4.232  -6.722   6.826  1.00  0.00     0.119 C 
HETATM   12  C17 UNL     1       3.856  -5.935   5.595  1.00  0.00     0.053 C 
ENDROOT
BRANCH   1  13
HETATM   13  N1  UNL     1       2.896  -4.654   3.475  1.00  0.00    -0.395 N 
ATOM     14  H1  UNL     1       3.865  -4.912   3.662  1.00  0.00     0.159 HD
BRANCH  13  15
HETATM   15  C2  UNL     1       2.533  -4.231   2.182  1.00  0.00     0.051 C 
HETATM   16  C1  UNL     1       2.565  -5.374   1.179  1.00  0.00     0.054 C 
ENDBRANCH  13  15
ENDBRANCH   1  13
BRANCH  10  17
HETATM   17  C10 UNL     1       4.349  -6.113   9.158  1.00  0.00     0.119 C 
BRANCH  17  18
HETATM   18  C11 UNL     1       4.942  -7.458   9.560  1.00  0.00     0.051 C 
BRANCH  18  19
HETATM   19  C12 UNL     1       6.455  -7.315   9.697  1.00  0.00     0.123 C 
HETATM   20  C13 UNL     1       7.203  -7.866   8.537  1.00  0.00     0.034 C 
HETATM   21  C14 UNL     1       8.174  -8.855   9.130  1.00  0.00     0.029 C 
HETATM   22  C15 UNL     1       7.522  -9.138  10.469  1.00  0.00     0.168 C 
HETATM   23  O2  UNL     1       6.871  -7.979  10.812  1.00  0.00    -0.386 OA
ENDBRANCH  18  19
ENDBRANCH  17  18
ENDBRANCH  10  17
TORSDOF 5
ENDMDL
MODEL 4
REMARK VINA RESULT: -7.071317319      2.245      3.614
REMARK  5 active torsions:
REMARK  status: ('A' for Active; 'I' for Inactive)
REMARK    1  A    between atoms: C2_2  and  N1_3 
REMARK    2  A    between atoms: N1_3  and  C3_5 
REMARK    3  A    between atoms: N3_14  and  C10_15 
REMARK    4  A    between atoms: C10_15  and  C11_16 
REMARK    5  A    between atoms: C11_16  and  C12_17 
ROOT
HETATM    1  C3  UNL     1       1.816  -6.803   2.929  1.00  0.00     0.117 C 
HETATM    2  C4  UNL     1       2.239  -5.968   1.763  1.00  0.00     0.130 C 
HETATM    3  C5  UNL     1       1.733  -4.613   2.102  1.00  0.00     0.222 C 
HETATM    4  O1  UNL     1       1.827  -3.568   1.396  1.00  0.00    -0.273 OA
HETATM    5  N2  UNL     1       1.114  -4.690   3.382  1.00  0.00    -0.345 N 
HETATM    6  C6  UNL     1       0.029  -3.868   3.900  1.00  0.00     0.153 C 
HETATM    7  C7  UNL     1       1.798  -5.769   4.076  1.00  0.00     0.058 C 
HETATM    8  C8  UNL     1       3.193  -5.338   4.373  1.00  0.00     0.053 C 
HETATM    9  C9  UNL     1       3.691  -5.933   5.663  1.00  0.00     0.119 C 
HETATM   10  N3  UNL     1       2.855  -5.541   6.739  1.00  0.00    -0.412 N 
HETATM   11  C16 UNL     1       1.453  -5.569   6.519  1.00  0.00     0.119 C 
HETATM   12  C17 UNL     1       1.059  -6.298   5.258  1.00  0.00     0.053 C 
ENDROOT
BRANCH   1  13
HETATM   13  N1  UNL     1       0.539  -7.362   2.880  1.00  0.00    -0.395 N 
ATOM     14  H1  UNL     1      -0.076  -7.276   3.688  1.00  0.00     0.159 HD
BRANCH  13  15
HETATM   15  C2  UNL     1       0.082  -8.045   1.736  1.00  0.00     0.051 C 
HETATM   16  C1  UNL     1       0.491  -9.510   1.745  1.00  0.00     0.054 C 
ENDBRANCH  13  15
ENDBRANCH   1  13
BRANCH  10  17
HETATM   17  C10 UNL     1       3.288  -5.877   8.054  1.00  0.00     0.119 C 
BRANCH  17  18
HETATM   18  C11 UNL     1       4.237  -7.065   7.965  1.00  0.00     0.051 C 
BRANCH  18  19
HETATM   19  C12 UNL     1       5.573  -6.686   8.596  1.00  0.00     0.123 C 
HETATM   20  C13 UNL     1       6.709  -7.510   8.106  1.00  0.00     0.034 C 
HETATM   21  C14 UNL     1       7.340  -8.086   9.347  1.00  0.00     0.029 C 
HETATM   22  C15 UNL     1       6.202  -7.957  10.342  1.00  0.00     0.168 C 
HETATM   23  O2  UNL     1       5.495  -6.848   9.946  1.00  0.00    -0.386 OA
ENDBRANCH  18  19
ENDBRANCH  17  18
ENDBRANCH  10  17
TORSDOF 5
ENDMDL
MODEL 5
REMARK VINA RESULT: -6.916141312      2.232      3.835
REMARK  5 active torsions:
REMARK  status: ('A' for Active; 'I' for Inactive)
REMARK    1  A    between atoms: C2_2  and  N1_3 
REMARK    2  A    between atoms: N1_3  and  C3_5 
REMARK    3  A    between atoms: N3_14  and  C10_15 
REMARK    4  A    between atoms: C10_15  and  C11_16 
REMARK    5  A    between atoms: C11_16  and  C12_17 
ROOT
HETATM    1  C3  UNL     1       1.730  -6.524   2.479  1.00  0.00     0.117 C 
HETATM    2  C4  UNL     1       2.342  -5.588   1.487  1.00  0.00     0.130 C 
HETATM    3  C5  UNL     1       1.852  -4.254   1.916  1.00  0.00     0.222 C 
HETATM    4  O1  UNL     1       2.084  -3.143   1.358  1.00  0.00    -0.273 OA
HETATM    5  N2  UNL     1       1.061  -4.440   3.086  1.00  0.00    -0.345 N 
HETATM    6  C6  UNL     1      -0.050  -3.621   3.551  1.00  0.00     0.153 C 
HETATM    7  C7  UNL     1       1.598  -5.627   3.729  1.00  0.00     0.058 C 
HETATM    8  C8  UNL     1       2.956  -5.313   4.255  1.00  0.00     0.053 C 
HETATM    9  C9  UNL     1       3.248  -6.077   5.519  1.00  0.00     0.119 C 
HETATM   10  N3  UNL     1       2.290  -5.762   6.515  1.00  0.00    -0.412 N 
HETATM   11  C16 UNL     1       0.931  -5.685   6.112  1.00  0.00     0.119 C 
HETATM   12  C17 UNL     1       0.683  -6.243   4.732  1.00  0.00     0.053 C 
ENDROOT
BRANCH   1  13
HETATM   13  N1  UNL     1       0.450  -7.001   2.196  1.00  0.00    -0.395 N 
ATOM     14  H1  UNL     1      -0.359  -6.420   2.414  1.00  0.00     0.159 HD
BRANCH  13  15
HETATM   15  C2  UNL     1       0.252  -8.268   1.616  1.00  0.00     0.051 C 
HETATM   16  C1  UNL     1       0.949  -9.369   2.401  1.00  0.00     0.054 C 
ENDBRANCH  13  15
ENDBRANCH   1  13
BRANCH  10  17
HETATM   17  C10 UNL     1       2.525  -6.268   7.826  1.00  0.00     0.119 C 
BRANCH  17  18
HETATM   18  C11 UNL     1       3.954  -5.927   8.230  1.00  0.00     0.051 C 
BRANCH  18  19
HETATM   19  C12 UNL     1       4.688  -7.212   8.602  1.00  0.00     0.123 C 
HETATM   20  C13 UNL     1       5.399  -7.125   9.904  1.00  0.00     0.034 C 
HETATM   21  C14 UNL     1       6.827  -7.495   9.596  1.00  0.00     0.029 C 
HETATM   22  C15 UNL     1       6.880  -7.241   8.102  1.00  0.00     0.168 C 
HETATM   23  O2  UNL     1       5.612  -7.496   7.642  1.00  0.00    -0.386 OA
ENDBRANCH  18  19
ENDBRANCH  17  18
ENDBRANCH  10  17
TORSDOF 5
ENDMDL
