MODEL 1
REMARK VINA RESULT: -7.714205973      0.000      0.000
REMARK  6 active torsions:
REMARK  status: ('A' for Active; 'I' for Inactive)
REMARK    1  A    between atoms: C2_2  and  N1_3 
REMARK    2  A    between atoms: N2_6  and  C4_7 
REMARK    3  A    between atoms: C4_7  and  C5_8 
REMARK    4  A    between atoms: C14_18  and  C15_19 
REMARK    5  A    between atoms: C15_19  and  C16_20 
REMARK    6  A    between atoms: C16_20  and  O3_21 
ROOT
HETATM    1  N1  UNL     1       2.127  -5.964   3.057  1.00  0.00    -0.329 N 
HETATM    2  C3  UNL     1       3.021  -5.476   4.064  1.00  0.00     0.320 C 
HETATM    3  O1  UNL     1       3.488  -4.340   3.952  1.00  0.00    -0.247 OA
HETATM    4  N2  UNL     1       3.350  -6.295   5.158  1.00  0.00    -0.331 N 
HETATM    5  C11 UNL     1       2.679  -7.531   5.393  1.00  0.00     0.134 C 
HETATM    6  C12 UNL     1       1.914  -8.096   4.236  1.00  0.00     0.023 C 
HETATM    7  C13 UNL     1       2.744  -9.022   3.373  1.00  0.00     0.014 C 
HETATM    8  C14 UNL     1       1.227  -7.027   3.406  1.00  0.00     0.096 C 
ENDROOT
BRANCH   4   9
HETATM    9  C4  UNL     1       4.394  -5.904   6.096  1.00  0.00     0.159 C 
BRANCH   9  10
HETATM   10  C5  UNL     1       4.661  -6.973   7.130  1.00  0.00     0.139 C 
HETATM   11  C6  UNL     1       4.270  -6.434   8.466  1.00  0.00     0.034 C 
HETATM   12  C7  UNL     1       4.427  -7.431   9.588  1.00  0.00     0.003 C 
HETATM   13  C8  UNL     1       5.813  -7.243  10.167  1.00  0.00     0.002 C 
HETATM   14  C9  UNL     1       6.782  -7.904   9.192  1.00  0.00     0.026 C 
HETATM   15  C10 UNL     1       6.824  -7.015   7.967  1.00  0.00     0.168 C 
HETATM   16  O2  UNL     1       5.921  -7.501   7.052  1.00  0.00    -0.384 OA
ENDBRANCH   9  10
ENDBRANCH   4   9
BRANCH   1  17
HETATM   17  C2  UNL     1       2.095  -5.441   1.713  1.00  0.00     0.123 C 
HETATM   18  C1  UNL     1       1.646  -6.490   0.713  1.00  0.00     0.026 C 
ENDBRANCH   1  17
BRANCH   8  19
HETATM   19  C15 UNL     1       0.009  -6.554   4.166  1.00  0.00     0.051 C 
BRANCH  19  20
HETATM   20  C16 UNL     1       0.081  -5.118   4.594  1.00  0.00     0.166 C 
BRANCH  20  21
HETATM   21  O3  UNL     1       0.045  -5.024   5.985  1.00  0.00    -0.401 OA
ATOM     22  H3  UNL     1       0.850  -5.359   6.360  1.00  0.00     0.209 HD
ENDBRANCH  20  21
ENDBRANCH  19  20
ENDBRANCH   8  19
TORSDOF 6
ENDMDL
MODEL 2
REMARK VINA RESULT: -7.397597131      1.221      1.377
REMARK  6 active torsions:
REMARK  status: ('A' for Active; 'I' for Inactive)
REMARK    1  A    between atoms: C2_2  and  N1_3 
REMARK    2  A    between atoms: N2_6  and  C4_7 
REMARK    3  A    between atoms: C4_7  and  C5_8 
REMARK    4  A    between atoms: C14_18  and  C15_19 
REMARK    5  A    between atoms: C15_19  and  C16_20 
REMARK    6  A    between atoms: C16_20  and  O3_21 
ROOT
HETATM    1  N1  UNL     1       2.083  -5.316   3.357  1.00  0.00    -0.329 N 
HETATM    2  C3  UNL     1       2.850  -4.925   4.503  1.00  0.00     0.320 C 
HETATM    3  O1  UNL     1       3.766  -4.112   4.362  1.00  0.00    -0.247 OA
HETATM    4  N2  UNL     1       2.546  -5.472   5.762  1.00  0.00    -0.331 N 
HETATM    5  C11 UNL     1       1.382  -6.267   5.968  1.00  0.00     0.134 C 
HETATM    6  C12 UNL     1       0.729  -6.815   4.737  1.00  0.00     0.023 C 
HETATM    7  C13 UNL     1       1.259  -8.177   4.341  1.00  0.00     0.014 C 
HETATM    8  C14 UNL     1       0.765  -5.843   3.571  1.00  0.00     0.096 C 
ENDROOT
BRANCH   4   9
HETATM    9  C4  UNL     1       3.418  -5.241   6.905  1.00  0.00     0.159 C 
BRANCH   9  10
HETATM   10  C5  UNL     1       3.932  -6.532   7.501  1.00  0.00     0.139 C 
HETATM   11  C6  UNL     1       4.133  -6.320   8.965  1.00  0.00     0.034 C 
HETATM   12  C7  UNL     1       4.585  -7.558   9.698  1.00  0.00     0.003 C 
HETATM   13  C8  UNL     1       6.099  -7.543   9.715  1.00  0.00     0.002 C 
HETATM   14  C9  UNL     1       6.552  -7.972   8.324  1.00  0.00     0.026 C 
HETATM   15  C10 UNL     1       6.231  -6.817   7.398  1.00  0.00     0.168 C 
HETATM   16  O2  UNL     1       5.004  -7.052   6.827  1.00  0.00    -0.384 OA
ENDBRANCH   9  10
ENDBRANCH   4   9
BRANCH   1  17
HETATM   17  C2  UNL     1       2.577  -5.209   2.006  1.00  0.00     0.123 C 
HETATM   18  C1  UNL     1       1.892  -6.194   1.078  1.00  0.00     0.026 C 
ENDBRANCH   1  17
BRANCH   8  19
HETATM   19  C15 UNL     1      -0.274  -4.774   3.819  1.00  0.00     0.051 C 
BRANCH  19  20
HETATM   20  C16 UNL     1       0.073  -3.441   3.226  1.00  0.00     0.166 C 
BRANCH  20  21
HETATM   21  O3  UNL     1       0.324  -2.511   4.234  1.00  0.00    -0.401 OA
ATOM     22  H3  UNL     1       0.617  -1.689   3.859  1.00  0.00     0.209 HD
ENDBRANCH  20  21
ENDBRANCH  19  20
ENDBRANCH   8  19
TORSDOF 6
ENDMDL
MODEL 3
REMARK VINA RESULT: -7.097272287      2.251      3.750
REMARK  6 active torsions:
REMARK  status: ('A' for Active; 'I' for Inactive)
REMARK    1  A    between atoms: C2_2  and  N1_3 
REMARK    2  A    between atoms: N2_6  and  C4_7 
REMARK    3  A    between atoms: C4_7  and  C5_8 
REMARK    4  A    between atoms: C14_18  and  C15_19 
REMARK    5  A    between atoms: C15_19  and  C16_20 
REMARK    6  A    between atoms: C16_20  and  O3_21 
ROOT
HETATM    1  N1  UNL     1       3.601  -7.019   6.313  1.00  0.00    -0.329 N 
HETATM    2  C3  UNL     1       4.938  -6.821   6.790  1.00  0.00     0.320 C 
HETATM    3  O1  UNL     1       5.879  -6.949   6.004  1.00  0.00    -0.247 OA
HETATM    4  N2  UNL     1       5.152  -6.488   8.139  1.00  0.00    -0.331 N 
HETATM    5  C11 UNL     1       4.070  -6.161   9.008  1.00  0.00     0.134 C 
HETATM    6  C12 UNL     1       2.705  -6.568   8.545  1.00  0.00     0.023 C 
HETATM    7  C13 UNL     1       2.309  -7.951   9.014  1.00  0.00     0.014 C 
HETATM    8  C14 UNL     1       2.524  -6.414   7.045  1.00  0.00     0.096 C 
ENDROOT
BRANCH   4   9
HETATM    9  C4  UNL     1       6.497  -6.464   8.697  1.00  0.00     0.159 C 
BRANCH   9  10
HETATM   10  C5  UNL     1       6.977  -7.843   9.088  1.00  0.00     0.139 C 
HETATM   11  C6  UNL     1       7.365  -7.807  10.529  1.00  0.00     0.034 C 
HETATM   12  C7  UNL     1       7.805  -9.146  11.069  1.00  0.00     0.003 C 
HETATM   13  C8  UNL     1       9.307  -9.230  10.897  1.00  0.00     0.002 C 
HETATM   14  C9  UNL     1       9.557  -9.530   9.423  1.00  0.00     0.026 C 
HETATM   15  C10 UNL     1       9.219  -8.262   8.668  1.00  0.00     0.168 C 
HETATM   16  O2  UNL     1       7.918  -8.352   8.235  1.00  0.00    -0.384 OA
ENDBRANCH   9  10
ENDBRANCH   4   9
BRANCH   1  17
HETATM   17  C2  UNL     1       3.292  -7.798   5.140  1.00  0.00     0.123 C 
HETATM   18  C1  UNL     1       1.814  -8.129   5.059  1.00  0.00     0.026 C 
ENDBRANCH   1  17
BRANCH   8  19
HETATM   19  C15 UNL     1       2.345  -4.945   6.742  1.00  0.00     0.051 C 
BRANCH  19  20
HETATM   20  C16 UNL     1       1.316  -4.664   5.687  1.00  0.00     0.166 C 
BRANCH  20  21
HETATM   21  O3  UNL     1       0.067  -5.136   6.088  1.00  0.00    -0.401 OA
ATOM     22  H3  UNL     1       0.124  -5.530   6.950  1.00  0.00     0.209 HD
ENDBRANCH  20  21
ENDBRANCH  19  20
ENDBRANCH   8  19
TORSDOF 6
ENDMDL
MODEL 4
REMARK VINA RESULT: -6.793403719      1.883      2.863
REMARK  6 active torsions:
REMARK  status: ('A' for Active; 'I' for Inactive)
REMARK    1  A    between atoms: C2_2  and  N1_3 
REMARK    2  A    between atoms: N2_6  and  C4_7 
REMARK    3  A    between atoms: C4_7  and  C5_8 
REMARK    4  A    between atoms: C14_18  and  C15_19 
REMARK    5  A    between atoms: C15_19  and  C16_20 
REMARK    6  A    between atoms: C16_20  and  O3_21 
ROOT
HETATM    1  N1  UNL     1       1.235  -5.918   5.632  1.00  0.00    -0.329 N 
HETATM    2  C3  UNL     1       1.887  -5.950   6.908  1.00  0.00     0.320 C 
HETATM    3  O1  UNL     1       1.202  -5.898   7.932  1.00  0.00    -0.247 OA
HETATM    4  N2  UNL     1       3.288  -6.040   6.971  1.00  0.00    -0.331 N 
HETATM    5  C11 UNL     1       4.073  -6.283   5.806  1.00  0.00     0.134 C 
HETATM    6  C12 UNL     1       3.396  -6.045   4.492  1.00  0.00     0.023 C 
HETATM    7  C13 UNL     1       3.571  -4.630   3.984  1.00  0.00     0.014 C 
HETATM    8  C14 UNL     1       1.934  -6.458   4.500  1.00  0.00     0.096 C 
ENDROOT
BRANCH   4   9
HETATM    9  C4  UNL     1       3.990  -5.887   8.238  1.00  0.00     0.159 C 
BRANCH   9  10
HETATM   10  C5  UNL     1       4.775  -7.124   8.609  1.00  0.00     0.139 C 
HETATM   11  C6  UNL     1       5.309  -6.936   9.991  1.00  0.00     0.034 C 
HETATM   12  C7  UNL     1       6.064  -8.134  10.513  1.00  0.00     0.003 C 
HETATM   13  C8  UNL     1       7.523  -7.935  10.162  1.00  0.00     0.002 C 
HETATM   14  C9  UNL     1       7.659  -8.260   8.678  1.00  0.00     0.026 C 
HETATM   15  C10 UNL     1       6.993  -7.123   7.932  1.00  0.00     0.168 C 
HETATM   16  O2  UNL     1       5.695  -7.487   7.664  1.00  0.00    -0.384 OA
ENDBRANCH   9  10
ENDBRANCH   4   9
BRANCH   1  17
HETATM   17  C2  UNL     1      -0.083  -5.366   5.436  1.00  0.00     0.123 C 
HETATM   18  C1  UNL     1      -0.200  -4.655   4.101  1.00  0.00     0.026 C 
ENDBRANCH   1  17
BRANCH   8  19
HETATM   19  C15 UNL     1       1.872  -7.965   4.421  1.00  0.00     0.051 C 
BRANCH  19  20
HETATM   20  C16 UNL     1       1.361  -8.483   3.110  1.00  0.00     0.166 C 
BRANCH  20  21
HETATM   21  O3  UNL     1       0.094  -7.967   2.843  1.00  0.00    -0.401 OA
ATOM     22  H3  UNL     1      -0.296  -7.620   3.637  1.00  0.00     0.209 HD
ENDBRANCH  20  21
ENDBRANCH  19  20
ENDBRANCH   8  19
TORSDOF 6
ENDMDL
MODEL 5
REMARK VINA RESULT: -6.747988346      2.959      7.011
REMARK  6 active torsions:
REMARK  status: ('A' for Active; 'I' for Inactive)
REMARK    1  A    between atoms: C2_2  and  N1_3 
REMARK    2  A    between atoms: N2_6  and  C4_7 
REMARK    3  A    between atoms: C4_7  and  C5_8 
REMARK    4  A    between atoms: C14_18  and  C15_19 
REMARK    5  A    between atoms: C15_19  and  C16_20 
REMARK    6  A    between atoms: C16_20  and  O3_21 
ROOT
HETATM    1  N1  UNL     1       3.266  -5.831   5.437  1.00  0.00    -0.329 N 
HETATM    2  C3  UNL     1       3.003  -4.624   4.711  1.00  0.00     0.320 C 
HETATM    3  O1  UNL     1       3.914  -4.107   4.059  1.00  0.00    -0.247 OA
HETATM    4  N2  UNL     1       1.720  -4.052   4.754  1.00  0.00    -0.331 N 
HETATM    5  C11 UNL     1       0.620  -4.733   5.351  1.00  0.00     0.134 C 
HETATM    6  C12 UNL     1       0.962  -5.873   6.260  1.00  0.00     0.023 C 
HETATM    7  C13 UNL     1       1.133  -5.448   7.703  1.00  0.00     0.014 C 
HETATM    8  C14 UNL     1       2.154  -6.676   5.771  1.00  0.00     0.096 C 
ENDROOT
BRANCH   4   9
HETATM    9  C4  UNL     1       1.471  -2.734   4.185  1.00  0.00     0.159 C 
BRANCH   9  10
HETATM   10  C5  UNL     1       0.366  -2.757   3.154  1.00  0.00     0.139 C 
HETATM   11  C6  UNL     1       0.992  -2.689   1.801  1.00  0.00     0.034 C 
HETATM   12  C7  UNL     1      -0.004  -2.770   0.670  1.00  0.00     0.003 C 
HETATM   13  C8  UNL     1      -0.397  -1.352   0.314  1.00  0.00     0.002 C 
HETATM   14  C9  UNL     1      -1.372  -0.890   1.391  1.00  0.00     0.026 C 
HETATM   15  C10 UNL     1      -0.552  -0.689   2.649  1.00  0.00     0.168 C 
HETATM   16  O2  UNL     1      -0.620  -1.840   3.395  1.00  0.00    -0.384 OA
ENDBRANCH   9  10
ENDBRANCH   4   9
BRANCH   1  17
HETATM   17  C2  UNL     1       4.590  -6.230   5.848  1.00  0.00     0.123 C 
HETATM   18  C1  UNL     1       4.594  -6.789   7.258  1.00  0.00     0.026 C 
ENDBRANCH   1  17
BRANCH   8  19
HETATM   19  C15 UNL     1       1.695  -7.544   4.622  1.00  0.00     0.051 C 
BRANCH  19  20
HETATM   20  C16 UNL     1       2.231  -8.944   4.667  1.00  0.00     0.166 C 
BRANCH  20  21
HETATM   21  O3  UNL     1       3.032  -9.194   3.554  1.00  0.00    -0.401 OA
ATOM     22  H3  UNL     1       3.231 -10.121   3.491  1.00  0.00     0.209 HD
ENDBRANCH  20  21
ENDBRANCH  19  20
ENDBRANCH   8  19
TORSDOF 6
ENDMDL
