MODEL 1
REMARK VINA RESULT: -7.668847129      0.000      0.000
REMARK  8 active torsions:
REMARK  status: ('A' for Active; 'I' for Inactive)
REMARK    1  A    between atoms: O1_1  and  N1_3 
REMARK    2  A    between atoms: C1_5  and  C2_6 
REMARK    3  A    between atoms: C1_5  and  N3_13 
REMARK    4  A    between atoms: C2_6  and  C3_7 
REMARK    5  A    between atoms: C3_7  and  N2_8 
REMARK    6  A    between atoms: N3_13  and  C8_15 
REMARK    7  A    between atoms: C8_15  and  C9_16 
REMARK    8  A    between atoms: C9_16  and  N4_17 
ROOT
HETATM    1  N1  UNL     1      -6.614  -6.888 -17.014  1.00  0.00    -0.257 N 
ATOM      2  H1  UNL     1      -6.945  -6.075 -17.535  1.00  0.00     0.195 HD
HETATM    3  C1  UNL     1      -7.320  -7.319 -16.029  1.00  0.00     0.099 C 
ENDROOT
BRANCH   3   4
HETATM    4  C2  UNL     1      -6.833  -8.499 -15.276  1.00  0.00     0.108 C 
BRANCH   4   5
HETATM    5  C3  UNL     1      -5.810  -8.127 -14.242  1.00  0.00     0.280 C 
BRANCH   5   6
HETATM    6  N2  UNL     1      -4.992  -9.254 -13.909  1.00  0.00     0.088 N 
HETATM    7  C4  UNL     1      -3.998  -8.922 -12.897  1.00  0.00     0.272 C 
HETATM    8  C5  UNL     1      -2.866  -8.252 -13.647  1.00  0.00     0.032 C 
HETATM    9  C6  UNL     1      -3.092  -8.655 -15.094  1.00  0.00     0.032 C 
HETATM   10  C7  UNL     1      -4.142  -9.718 -14.984  1.00  0.00     0.272 C 
ENDBRANCH   5   6
ENDBRANCH   4   5
ENDBRANCH   3   4
BRANCH   3  11
HETATM   11  N3  UNL     1      -8.526  -6.634 -15.728  1.00  0.00    -0.374 N 
ATOM     12  H3  UNL     1      -8.517  -5.972 -14.952  1.00  0.00     0.161 HD
BRANCH  11  13
HETATM   13  C8  UNL     1      -9.768  -6.813 -16.448  1.00  0.00     0.165 C 
BRANCH  13  14
HETATM   14  C9  UNL     1      -9.795  -6.218 -17.799  1.00  0.00     0.077 C 
BRANCH  14  15
HETATM   15  N4  UNL     1     -10.996  -6.158 -18.484  1.00  0.00    -0.389 N 
HETATM   16  C10 UNL     1     -11.186  -5.076 -19.393  1.00  0.00     0.149 C 
HETATM   17  C11 UNL     1     -12.520  -4.442 -19.168  1.00  0.00     0.252 C 
HETATM   18  N5  UNL     1     -12.759  -4.323 -17.750  1.00  0.00    -0.072 N 
HETATM   19  C12 UNL     1     -12.936  -5.586 -17.099  1.00  0.00     0.252 C 
ATOM     20  H52 UNL     1     -12.019  -3.785 -17.301  1.00  0.00     0.277 HD
ATOM     21  H51 UNL     1     -13.551  -3.707 -17.566  1.00  0.00     0.277 HD
HETATM   22  C13 UNL     1     -12.184  -6.655 -17.896  1.00  0.00     0.149 C 
ENDBRANCH  14  15
ENDBRANCH  13  14
ENDBRANCH  11  13
ENDBRANCH   3  11
BRANCH   1  23
HETATM   23  O1  UNL     1      -5.434  -7.476 -17.391  1.00  0.00    -0.288 OA
ATOM     24  H1  UNL     1      -5.239  -7.700 -18.294  1.00  0.00     0.244 HD
ENDBRANCH   1  23
TORSDOF 8
ENDMDL
MODEL 2
REMARK VINA RESULT: -7.530320564      0.799      1.273
REMARK  8 active torsions:
REMARK  status: ('A' for Active; 'I' for Inactive)
REMARK    1  A    between atoms: O1_1  and  N1_3 
REMARK    2  A    between atoms: C1_5  and  C2_6 
REMARK    3  A    between atoms: C1_5  and  N3_13 
REMARK    4  A    between atoms: C2_6  and  C3_7 
REMARK    5  A    between atoms: C3_7  and  N2_8 
REMARK    6  A    between atoms: N3_13  and  C8_15 
REMARK    7  A    between atoms: C8_15  and  C9_16 
REMARK    8  A    between atoms: C9_16  and  N4_17 
ROOT
HETATM    1  N1  UNL     1      -6.551  -6.882 -17.098  1.00  0.00    -0.257 N 
ATOM      2  H1  UNL     1      -6.905  -6.084 -17.626  1.00  0.00     0.195 HD
HETATM    3  C1  UNL     1      -7.292  -7.390 -16.178  1.00  0.00     0.099 C 
ENDROOT
BRANCH   3   4
HETATM    4  C2  UNL     1      -6.771  -8.549 -15.414  1.00  0.00     0.108 C 
BRANCH   4   5
HETATM    5  C3  UNL     1      -5.769  -8.137 -14.374  1.00  0.00     0.280 C 
BRANCH   5   6
HETATM    6  N2  UNL     1      -4.977  -9.255 -13.961  1.00  0.00     0.088 N 
HETATM    7  C4  UNL     1      -4.039  -8.894 -12.907  1.00  0.00     0.272 C 
HETATM    8  C5  UNL     1      -2.863  -8.253 -13.614  1.00  0.00     0.032 C 
HETATM    9  C6  UNL     1      -3.012  -8.701 -15.059  1.00  0.00     0.032 C 
HETATM   10  C7  UNL     1      -4.072  -9.757 -14.972  1.00  0.00     0.272 C 
ENDBRANCH   5   6
ENDBRANCH   4   5
ENDBRANCH   3   4
BRANCH   3  11
HETATM   11  N3  UNL     1      -8.567  -6.808 -15.955  1.00  0.00    -0.374 N 
ATOM     12  H3  UNL     1      -8.786  -6.489 -15.011  1.00  0.00     0.161 HD
BRANCH  11  13
HETATM   13  C8  UNL     1      -9.575  -6.636 -16.978  1.00  0.00     0.165 C 
BRANCH  13  14
HETATM   14  C9  UNL     1     -10.948  -6.442 -16.471  1.00  0.00     0.077 C 
BRANCH  14  15
HETATM   15  N4  UNL     1     -11.998  -6.395 -17.373  1.00  0.00    -0.389 N 
HETATM   16  C10 UNL     1     -11.952  -7.282 -18.487  1.00  0.00     0.149 C 
HETATM   17  C11 UNL     1     -12.251  -6.541 -19.749  1.00  0.00     0.252 C 
HETATM   18  N5  UNL     1     -11.564  -5.271 -19.731  1.00  0.00    -0.072 N 
HETATM   19  C12 UNL     1     -12.075  -4.366 -18.746  1.00  0.00     0.252 C 
ATOM     20  H52 UNL     1     -10.559  -5.404 -19.615  1.00  0.00     0.277 HD
ATOM     21  H51 UNL     1     -11.571  -4.842 -20.657  1.00  0.00     0.277 HD
HETATM   22  C13 UNL     1     -12.690  -5.182 -17.607  1.00  0.00     0.149 C 
ENDBRANCH  14  15
ENDBRANCH  13  14
ENDBRANCH  11  13
ENDBRANCH   3  11
BRANCH   1  23
HETATM   23  O1  UNL     1      -5.304  -7.369 -17.397  1.00  0.00    -0.288 OA
ATOM     24  H1  UNL     1      -4.530  -6.819 -17.415  1.00  0.00     0.244 HD
ENDBRANCH   1  23
TORSDOF 8
ENDMDL
MODEL 3
REMARK VINA RESULT: -7.316673800      1.092      1.647
REMARK  8 active torsions:
REMARK  status: ('A' for Active; 'I' for Inactive)
REMARK    1  A    between atoms: O1_1  and  N1_3 
REMARK    2  A    between atoms: C1_5  and  C2_6 
REMARK    3  A    between atoms: C1_5  and  N3_13 
REMARK    4  A    between atoms: C2_6  and  C3_7 
REMARK    5  A    between atoms: C3_7  and  N2_8 
REMARK    6  A    between atoms: N3_13  and  C8_15 
REMARK    7  A    between atoms: C8_15  and  C9_16 
REMARK    8  A    between atoms: C9_16  and  N4_17 
ROOT
HETATM    1  N1  UNL     1      -6.941  -6.715 -16.477  1.00  0.00    -0.257 N 
ATOM      2  H1  UNL     1      -7.416  -5.823 -16.614  1.00  0.00     0.195 HD
HETATM    3  C1  UNL     1      -7.207  -7.400 -15.421  1.00  0.00     0.099 C 
ENDROOT
BRANCH   3   4
HETATM    4  C2  UNL     1      -6.513  -8.696 -15.228  1.00  0.00     0.108 C 
BRANCH   4   5
HETATM    5  C3  UNL     1      -5.386  -8.592 -14.240  1.00  0.00     0.280 C 
BRANCH   5   6
HETATM    6  N2  UNL     1      -4.157  -8.281 -14.904  1.00  0.00     0.088 N 
HETATM    7  C4  UNL     1      -3.910  -9.169 -16.032  1.00  0.00     0.272 C 
HETATM    8  C5  UNL     1      -3.330 -10.432 -15.433  1.00  0.00     0.032 C 
HETATM    9  C6  UNL     1      -2.865 -10.005 -14.051  1.00  0.00     0.032 C 
HETATM   10  C7  UNL     1      -2.970  -8.512 -14.110  1.00  0.00     0.272 C 
ENDBRANCH   5   6
ENDBRANCH   4   5
ENDBRANCH   3   4
BRANCH   3  11
HETATM   11  N3  UNL     1      -8.153  -6.868 -14.507  1.00  0.00    -0.374 N 
ATOM     12  H3  UNL     1      -7.798  -6.377 -13.686  1.00  0.00     0.161 HD
BRANCH  11  13
HETATM   13  C8  UNL     1      -9.587  -6.977 -14.662  1.00  0.00     0.165 C 
BRANCH  13  14
HETATM   14  C9  UNL     1     -10.197  -5.953 -15.533  1.00  0.00     0.077 C 
BRANCH  14  15
HETATM   15  N4  UNL     1     -10.775  -6.346 -16.729  1.00  0.00    -0.389 N 
HETATM   16  C10 UNL     1     -10.128  -5.951 -17.936  1.00  0.00     0.149 C 
HETATM   17  C11 UNL     1     -11.123  -5.374 -18.889  1.00  0.00     0.252 C 
HETATM   18  N5  UNL     1     -12.029  -4.511 -18.168  1.00  0.00    -0.072 N 
HETATM   19  C12 UNL     1     -12.884  -5.219 -17.264  1.00  0.00     0.252 C 
ATOM     20  H52 UNL     1     -11.518  -3.774 -17.682  1.00  0.00     0.277 HD
ATOM     21  H51 UNL     1     -12.576  -3.940 -18.813  1.00  0.00     0.277 HD
HETATM   22  C13 UNL     1     -12.178  -6.505 -16.831  1.00  0.00     0.149 C 
ENDBRANCH  14  15
ENDBRANCH  13  14
ENDBRANCH  11  13
ENDBRANCH   3  11
BRANCH   1  23
HETATM   23  O1  UNL     1      -6.045  -7.137 -17.426  1.00  0.00    -0.288 OA
ATOM     24  H1  UNL     1      -5.145  -6.833 -17.452  1.00  0.00     0.244 HD
ENDBRANCH   1  23
TORSDOF 8
ENDMDL
MODEL 4
REMARK VINA RESULT: -7.126294803      1.499      7.738
REMARK  8 active torsions:
REMARK  status: ('A' for Active; 'I' for Inactive)
REMARK    1  A    between atoms: O1_1  and  N1_3 
REMARK    2  A    between atoms: C1_5  and  C2_6 
REMARK    3  A    between atoms: C1_5  and  N3_13 
REMARK    4  A    between atoms: C2_6  and  C3_7 
REMARK    5  A    between atoms: C3_7  and  N2_8 
REMARK    6  A    between atoms: N3_13  and  C8_15 
REMARK    7  A    between atoms: C8_15  and  C9_16 
REMARK    8  A    between atoms: C9_16  and  N4_17 
ROOT
HETATM    1  N1  UNL     1      -7.580  -6.736 -17.329  1.00  0.00    -0.257 N 
ATOM      2  H1  UNL     1      -6.596  -6.507 -17.471  1.00  0.00     0.195 HD
HETATM    3  C1  UNL     1      -8.022  -6.840 -16.126  1.00  0.00     0.099 C 
ENDROOT
BRANCH   3   4
HETATM    4  C2  UNL     1      -9.453  -7.173 -15.928  1.00  0.00     0.108 C 
BRANCH   4   5
HETATM    5  C3  UNL     1     -10.354  -6.022 -16.272  1.00  0.00     0.280 C 
BRANCH   5   6
HETATM    6  N2  UNL     1     -11.658  -6.489 -16.635  1.00  0.00     0.088 N 
HETATM    7  C4  UNL     1     -11.663  -7.109 -17.953  1.00  0.00     0.272 C 
HETATM    8  C5  UNL     1     -11.740  -5.963 -18.939  1.00  0.00     0.032 C 
HETATM    9  C6  UNL     1     -12.230  -4.791 -18.104  1.00  0.00     0.032 C 
HETATM   10  C7  UNL     1     -12.641  -5.445 -16.820  1.00  0.00     0.272 C 
ENDBRANCH   5   6
ENDBRANCH   4   5
ENDBRANCH   3   4
BRANCH   3  11
HETATM   11  N3  UNL     1      -7.108  -6.626 -15.062  1.00  0.00    -0.374 N 
ATOM     12  H3  UNL     1      -6.540  -5.778 -15.085  1.00  0.00     0.161 HD
BRANCH  11  13
HETATM   13  C8  UNL     1      -6.928  -7.530 -13.947  1.00  0.00     0.165 C 
BRANCH  13  14
HETATM   14  C9  UNL     1      -6.181  -8.764 -14.262  1.00  0.00     0.077 C 
BRANCH  14  15
HETATM   15  N4  UNL     1      -5.066  -8.686 -15.078  1.00  0.00    -0.389 N 
HETATM   16  C10 UNL     1      -5.096  -9.405 -16.309  1.00  0.00     0.149 C 
HETATM   17  C11 UNL     1      -3.834 -10.185 -16.481  1.00  0.00     0.252 C 
HETATM   18  N5  UNL     1      -3.478 -10.800 -15.225  1.00  0.00    -0.072 N 
HETATM   19  C12 UNL     1      -3.088  -9.854 -14.223  1.00  0.00     0.252 C 
ATOM     20  H52 UNL     1      -4.233 -11.396 -14.886  1.00  0.00     0.277 HD
ATOM     21  H51 UNL     1      -2.753 -11.506 -15.359  1.00  0.00     0.277 HD
HETATM   22  C13 UNL     1      -3.776  -8.519 -14.519  1.00  0.00     0.149 C 
ENDBRANCH  14  15
ENDBRANCH  13  14
ENDBRANCH  11  13
ENDBRANCH   3  11
BRANCH   1  23
HETATM   23  O1  UNL     1      -8.378  -6.920 -18.430  1.00  0.00    -0.288 OA
ATOM     24  H1  UNL     1      -9.320  -7.027 -18.367  1.00  0.00     0.244 HD
ENDBRANCH   1  23
TORSDOF 8
ENDMDL
MODEL 5
REMARK VINA RESULT: -7.047389883      1.398      7.801
REMARK  8 active torsions:
REMARK  status: ('A' for Active; 'I' for Inactive)
REMARK    1  A    between atoms: O1_1  and  N1_3 
REMARK    2  A    between atoms: C1_5  and  C2_6 
REMARK    3  A    between atoms: C1_5  and  N3_13 
REMARK    4  A    between atoms: C2_6  and  C3_7 
REMARK    5  A    between atoms: C3_7  and  N2_8 
REMARK    6  A    between atoms: N3_13  and  C8_15 
REMARK    7  A    between atoms: C8_15  and  C9_16 
REMARK    8  A    between atoms: C9_16  and  N4_17 
ROOT
HETATM    1  N1  UNL     1      -7.798  -6.833 -16.796  1.00  0.00    -0.257 N 
ATOM      2  H1  UNL     1      -6.836  -6.748 -16.467  1.00  0.00     0.195 HD
HETATM    3  C1  UNL     1      -8.745  -6.895 -15.928  1.00  0.00     0.099 C 
ENDROOT
BRANCH   3   4
HETATM    4  C2  UNL     1     -10.140  -7.018 -16.415  1.00  0.00     0.108 C 
BRANCH   4   5
HETATM    5  C3  UNL     1     -10.759  -5.680 -16.700  1.00  0.00     0.280 C 
BRANCH   5   6
HETATM    6  N2  UNL     1     -10.887  -5.470 -18.110  1.00  0.00     0.088 N 
HETATM    7  C4  UNL     1     -11.907  -4.478 -18.420  1.00  0.00     0.272 C 
HETATM    8  C5  UNL     1     -13.226  -5.219 -18.355  1.00  0.00     0.032 C 
HETATM    9  C6  UNL     1     -12.831  -6.683 -18.458  1.00  0.00     0.032 C 
HETATM   10  C7  UNL     1     -11.385  -6.612 -18.845  1.00  0.00     0.272 C 
ENDBRANCH   5   6
ENDBRANCH   4   5
ENDBRANCH   3   4
BRANCH   3  11
HETATM   11  N3  UNL     1      -8.390  -6.840 -14.555  1.00  0.00    -0.374 N 
ATOM     12  H3  UNL     1      -8.617  -5.990 -14.038  1.00  0.00     0.161 HD
BRANCH  11  13
HETATM   13  C8  UNL     1      -7.729  -7.910 -13.840  1.00  0.00     0.165 C 
BRANCH  13  14
HETATM   14  C9  UNL     1      -6.261  -7.782 -13.747  1.00  0.00     0.077 C 
BRANCH  14  15
HETATM   15  N4  UNL     1      -5.467  -8.840 -14.155  1.00  0.00    -0.389 N 
HETATM   16  C10 UNL     1      -4.262  -9.078 -13.431  1.00  0.00     0.149 C 
HETATM   17  C11 UNL     1      -3.120  -9.262 -14.377  1.00  0.00     0.252 C 
HETATM   18  N5  UNL     1      -3.217  -8.287 -15.437  1.00  0.00    -0.072 N 
HETATM   19  C12 UNL     1      -4.336  -8.502 -16.303  1.00  0.00     0.252 C 
ATOM     20  H52 UNL     1      -3.228  -7.340 -15.058  1.00  0.00     0.277 HD
ATOM     21  H51 UNL     1      -2.348  -8.244 -15.970  1.00  0.00     0.277 HD
HETATM   22  C13 UNL     1      -5.429  -9.228 -15.515  1.00  0.00     0.149 C 
ENDBRANCH  14  15
ENDBRANCH  13  14
ENDBRANCH  11  13
ENDBRANCH   3  11
BRANCH   1  23
HETATM   23  O1  UNL     1      -8.029  -6.875 -18.148  1.00  0.00    -0.288 OA
ATOM     24  H1  UNL     1      -7.865  -7.650 -18.672  1.00  0.00     0.244 HD
ENDBRANCH   1  23
TORSDOF 8
ENDMDL
