MODEL 1
REMARK VINA RESULT: -7.407705644      0.000      0.000
REMARK  6 active torsions:
REMARK  status: ('A' for Active; 'I' for Inactive)
REMARK    1  A    between atoms: N1_1  and  C1_5 
REMARK    2  A    between atoms: N2_8  and  C4_9 
REMARK    3  A    between atoms: C4_9  and  C5_10 
REMARK    4  A    between atoms: C5_10  and  C6_11 
REMARK    5  A    between atoms: C6_11  and  N3_12 
REMARK    6  A    between atoms: C12_18  and  O1_19 
ROOT
HETATM    1  C1  UNL     1      -2.673  -5.269  -7.147  1.00  0.00     0.215 C 
HETATM    2  C2  UNL     1      -2.778  -6.412  -8.104  1.00  0.00     0.065 C 
HETATM    3  C3  UNL     1      -4.162  -6.636  -8.600  1.00  0.00     0.274 C 
HETATM    4  N2  UNL     1      -5.212  -6.144  -7.689  1.00  0.00     0.091 N 
HETATM    5  C11 UNL     1      -4.758  -6.359  -6.312  1.00  0.00     0.306 C 
HETATM    6  C12 UNL     1      -3.632  -5.432  -5.990  1.00  0.00     0.176 C 
ENDROOT
BRANCH   4   7
HETATM    7  C4  UNL     1      -6.433  -6.913  -7.924  1.00  0.00     0.274 C 
BRANCH   7   8
HETATM    8  C5  UNL     1      -6.562  -7.183  -9.389  1.00  0.00     0.060 C 
BRANCH   8   9
HETATM    9  C6  UNL     1      -7.423  -8.424  -9.609  1.00  0.00     0.274 C 
BRANCH   9  10
HETATM   10  N3  UNL     1      -8.702  -8.029 -10.063  1.00  0.00     0.088 N 
HETATM   11  C7  UNL     1      -8.910  -8.279 -11.439  1.00  0.00     0.272 C 
HETATM   12  C8  UNL     1     -10.291  -8.922 -11.547  1.00  0.00     0.032 C 
HETATM   13  C9  UNL     1     -10.971  -8.346 -10.305  1.00  0.00     0.032 C 
HETATM   14  C10 UNL     1      -9.806  -8.434  -9.296  1.00  0.00     0.272 C 
ENDBRANCH   9  10
ENDBRANCH   8   9
ENDBRANCH   7   8
ENDBRANCH   4   7
BRANCH   6  15
HETATM   15  O1  UNL     1      -2.907  -6.022  -4.931  1.00  0.00    -0.392 OA
ATOM     16  H1  UNL     1      -2.603  -5.316  -4.373  1.00  0.00     0.210 HD
ENDBRANCH   6  15
BRANCH   1  17
HETATM   17  N1  UNL     1      -1.294  -5.213  -6.689  1.00  0.00    -0.072 N 
ATOM     18  H13 UNL     1      -1.062  -4.332  -6.231  1.00  0.00     0.274 HD
ATOM     19  H12 UNL     1      -1.113  -5.827  -5.895  1.00  0.00     0.274 HD
ATOM     20  H11 UNL     1      -0.698  -5.414  -7.492  1.00  0.00     0.274 HD
ENDBRANCH   1  17
TORSDOF 6
ENDMDL
MODEL 2
REMARK VINA RESULT: -7.351480877      0.434      1.080
REMARK  6 active torsions:
REMARK  status: ('A' for Active; 'I' for Inactive)
REMARK    1  A    between atoms: N1_1  and  C1_5 
REMARK    2  A    between atoms: N2_8  and  C4_9 
REMARK    3  A    between atoms: C4_9  and  C5_10 
REMARK    4  A    between atoms: C5_10  and  C6_11 
REMARK    5  A    between atoms: C6_11  and  N3_12 
REMARK    6  A    between atoms: C12_18  and  O1_19 
ROOT
HETATM    1  C1  UNL     1      -2.595  -5.222  -7.071  1.00  0.00     0.215 C 
HETATM    2  C2  UNL     1      -2.688  -6.359  -8.034  1.00  0.00     0.065 C 
HETATM    3  C3  UNL     1      -4.068  -6.589  -8.539  1.00  0.00     0.274 C 
HETATM    4  N2  UNL     1      -5.126  -6.110  -7.630  1.00  0.00     0.091 N 
HETATM    5  C11 UNL     1      -4.677  -6.329  -6.253  1.00  0.00     0.306 C 
HETATM    6  C12 UNL     1      -3.558  -5.397  -5.919  1.00  0.00     0.176 C 
ENDROOT
BRANCH   4   7
HETATM    7  C4  UNL     1      -6.341  -6.885  -7.876  1.00  0.00     0.274 C 
BRANCH   7   8
HETATM    8  C5  UNL     1      -6.379  -7.283  -9.316  1.00  0.00     0.060 C 
BRANCH   8   9
HETATM    9  C6  UNL     1      -7.696  -6.826  -9.940  1.00  0.00     0.274 C 
BRANCH   9  10
HETATM   10  N3  UNL     1      -8.500  -7.958 -10.209  1.00  0.00     0.088 N 
HETATM   11  C7  UNL     1      -9.622  -8.064  -9.356  1.00  0.00     0.272 C 
HETATM   12  C8  UNL     1     -10.811  -8.384 -10.260  1.00  0.00     0.032 C 
HETATM   13  C9  UNL     1     -10.104  -9.080 -11.423  1.00  0.00     0.032 C 
HETATM   14  C10 UNL     1      -8.851  -8.188 -11.549  1.00  0.00     0.272 C 
ENDBRANCH   9  10
ENDBRANCH   8   9
ENDBRANCH   7   8
ENDBRANCH   4   7
BRANCH   6  15
HETATM   15  O1  UNL     1      -2.835  -5.989  -4.860  1.00  0.00    -0.392 OA
ATOM     16  H1  UNL     1      -1.920  -5.987  -5.112  1.00  0.00     0.210 HD
ENDBRANCH   6  15
BRANCH   1  17
HETATM   17  N1  UNL     1      -1.219  -5.160  -6.605  1.00  0.00    -0.072 N 
ATOM     18  H13 UNL     1      -0.850  -4.209  -6.579  1.00  0.00     0.274 HD
ATOM     19  H12 UNL     1      -1.125  -5.366  -5.611  1.00  0.00     0.274 HD
ATOM     20  H11 UNL     1      -0.670  -5.784  -7.196  1.00  0.00     0.274 HD
ENDBRANCH   1  17
TORSDOF 6
ENDMDL
MODEL 3
REMARK VINA RESULT: -7.237731332      1.184      1.665
REMARK  6 active torsions:
REMARK  status: ('A' for Active; 'I' for Inactive)
REMARK    1  A    between atoms: N1_1  and  C1_5 
REMARK    2  A    between atoms: N2_8  and  C4_9 
REMARK    3  A    between atoms: C4_9  and  C5_10 
REMARK    4  A    between atoms: C5_10  and  C6_11 
REMARK    5  A    between atoms: C6_11  and  N3_12 
REMARK    6  A    between atoms: C12_18  and  O1_19 
ROOT
HETATM    1  C1  UNL     1      -2.481  -6.232  -6.255  1.00  0.00     0.215 C 
HETATM    2  C2  UNL     1      -3.867  -5.754  -5.974  1.00  0.00     0.065 C 
HETATM    3  C3  UNL     1      -4.876  -6.285  -6.929  1.00  0.00     0.274 C 
HETATM    4  N2  UNL     1      -4.318  -6.661  -8.241  1.00  0.00     0.091 N 
HETATM    5  C11 UNL     1      -3.251  -5.713  -8.571  1.00  0.00     0.306 C 
HETATM    6  C12 UNL     1      -2.073  -5.929  -7.679  1.00  0.00     0.176 C 
ENDROOT
BRANCH   4   7
HETATM    7  C4  UNL     1      -5.378  -6.570  -9.243  1.00  0.00     0.274 C 
BRANCH   7   8
HETATM    8  C5  UNL     1      -6.687  -6.891  -8.595  1.00  0.00     0.060 C 
BRANCH   8   9
HETATM    9  C6  UNL     1      -7.267  -8.162  -9.212  1.00  0.00     0.274 C 
BRANCH   9  10
HETATM   10  N3  UNL     1      -8.516  -7.864  -9.802  1.00  0.00     0.088 N 
HETATM   11  C7  UNL     1      -8.553  -8.113 -11.194  1.00  0.00     0.272 C 
HETATM   12  C8  UNL     1      -9.858  -8.862 -11.455  1.00  0.00     0.032 C 
HETATM   13  C9  UNL     1     -10.713  -8.358 -10.293  1.00  0.00     0.032 C 
HETATM   14  C10 UNL     1      -9.662  -8.366  -9.162  1.00  0.00     0.272 C 
ENDBRANCH   9  10
ENDBRANCH   8   9
ENDBRANCH   7   8
ENDBRANCH   4   7
BRANCH   6  15
HETATM   15  O1  UNL     1      -1.350  -4.715  -7.654  1.00  0.00    -0.392 OA
ATOM     16  H1  UNL     1      -1.915  -4.048  -8.025  1.00  0.00     0.210 HD
ENDBRANCH   6  15
BRANCH   1  17
HETATM   17  N1  UNL     1      -1.596  -5.581  -5.301  1.00  0.00    -0.072 N 
ATOM     18  H13 UNL     1      -2.089  -5.212  -4.488  1.00  0.00     0.274 HD
ATOM     19  H12 UNL     1      -0.994  -6.238  -4.805  1.00  0.00     0.274 HD
ATOM     20  H11 UNL     1      -1.074  -4.867  -5.809  1.00  0.00     0.274 HD
ENDBRANCH   1  17
TORSDOF 6
ENDMDL
MODEL 4
REMARK VINA RESULT: -7.217096541      1.221      1.977
REMARK  6 active torsions:
REMARK  status: ('A' for Active; 'I' for Inactive)
REMARK    1  A    between atoms: N1_1  and  C1_5 
REMARK    2  A    between atoms: N2_8  and  C4_9 
REMARK    3  A    between atoms: C4_9  and  C5_10 
REMARK    4  A    between atoms: C5_10  and  C6_11 
REMARK    5  A    between atoms: C6_11  and  N3_12 
REMARK    6  A    between atoms: C12_18  and  O1_19 
ROOT
HETATM    1  C1  UNL     1      -2.478  -6.212  -6.163  1.00  0.00     0.215 C 
HETATM    2  C2  UNL     1      -3.880  -5.745  -5.949  1.00  0.00     0.065 C 
HETATM    3  C3  UNL     1      -4.834  -6.264  -6.966  1.00  0.00     0.274 C 
HETATM    4  N2  UNL     1      -4.204  -6.616  -8.252  1.00  0.00     0.091 N 
HETATM    5  C11 UNL     1      -3.126  -5.658  -8.508  1.00  0.00     0.306 C 
HETATM    6  C12 UNL     1      -1.996  -5.884  -7.557  1.00  0.00     0.176 C 
ENDROOT
BRANCH   4   7
HETATM    7  C4  UNL     1      -5.209  -6.513  -9.309  1.00  0.00     0.274 C 
BRANCH   7   8
HETATM    8  C5  UNL     1      -6.449  -7.223  -8.868  1.00  0.00     0.060 C 
BRANCH   8   9
HETATM    9  C6  UNL     1      -7.626  -6.789  -9.740  1.00  0.00     0.274 C 
BRANCH   9  10
HETATM   10  N3  UNL     1      -8.402  -7.923 -10.071  1.00  0.00     0.088 N 
HETATM   11  C7  UNL     1      -9.579  -8.043  -9.296  1.00  0.00     0.272 C 
HETATM   12  C8  UNL     1     -10.702  -8.363 -10.280  1.00  0.00     0.032 C 
HETATM   13  C9  UNL     1      -9.915  -9.045 -11.399  1.00  0.00     0.032 C 
HETATM   14  C10 UNL     1      -8.662  -8.144 -11.434  1.00  0.00     0.272 C 
ENDBRANCH   9  10
ENDBRANCH   8   9
ENDBRANCH   7   8
ENDBRANCH   4   7
BRANCH   6  15
HETATM   15  O1  UNL     1      -1.283  -4.667  -7.474  1.00  0.00    -0.392 OA
ATOM     16  H1  UNL     1      -0.541  -4.738  -8.061  1.00  0.00     0.210 HD
ENDBRANCH   6  15
BRANCH   1  17
HETATM   17  N1  UNL     1      -1.649  -5.574  -5.152  1.00  0.00    -0.072 N 
ATOM     18  H13 UNL     1      -1.603  -4.560  -5.257  1.00  0.00     0.274 HD
ATOM     19  H12 UNL     1      -2.070  -5.592  -4.223  1.00  0.00     0.274 HD
ATOM     20  H11 UNL     1      -0.733  -6.021  -5.184  1.00  0.00     0.274 HD
ENDBRANCH   1  17
TORSDOF 6
ENDMDL
MODEL 5
REMARK VINA RESULT: -6.958697640      2.347      6.947
REMARK  6 active torsions:
REMARK  status: ('A' for Active; 'I' for Inactive)
REMARK    1  A    between atoms: N1_1  and  C1_5 
REMARK    2  A    between atoms: N2_8  and  C4_9 
REMARK    3  A    between atoms: C4_9  and  C5_10 
REMARK    4  A    between atoms: C5_10  and  C6_11 
REMARK    5  A    between atoms: C6_11  and  N3_12 
REMARK    6  A    between atoms: C12_18  and  O1_19 
ROOT
HETATM    1  C1  UNL     1      -9.470  -8.764  -8.914  1.00  0.00     0.215 C 
HETATM    2  C2  UNL     1      -9.324  -7.985 -10.179  1.00  0.00     0.065 C 
HETATM    3  C3  UNL     1      -7.907  -7.722 -10.548  1.00  0.00     0.274 C 
HETATM    4  N2  UNL     1      -6.980  -7.731  -9.402  1.00  0.00     0.091 N 
HETATM    5  C11 UNL     1      -7.678  -7.160  -8.246  1.00  0.00     0.306 C 
HETATM    6  C12 UNL     1      -8.740  -8.096  -7.771  1.00  0.00     0.176 C 
ENDROOT
BRANCH   4   7
HETATM    7  C4  UNL     1      -5.822  -6.900  -9.730  1.00  0.00     0.274 C 
BRANCH   7   8
HETATM    8  C5  UNL     1      -5.114  -6.535  -8.465  1.00  0.00     0.060 C 
BRANCH   8   9
HETATM    9  C6  UNL     1      -3.872  -5.710  -8.793  1.00  0.00     0.274 C 
BRANCH   9  10
HETATM   10  N3  UNL     1      -3.133  -5.490  -7.607  1.00  0.00     0.088 N 
HETATM   11  C7  UNL     1      -3.525  -6.329  -6.539  1.00  0.00     0.272 C 
HETATM   12  C8  UNL     1      -2.232  -6.866  -5.927  1.00  0.00     0.032 C 
HETATM   13  C9  UNL     1      -1.259  -5.746  -6.292  1.00  0.00     0.032 C 
HETATM   14  C10 UNL     1      -1.735  -5.432  -7.727  1.00  0.00     0.272 C 
ENDBRANCH   9  10
ENDBRANCH   8   9
ENDBRANCH   7   8
ENDBRANCH   4   7
BRANCH   6  15
HETATM   15  O1  UNL     1      -9.689  -7.316  -7.072  1.00  0.00    -0.392 OA
ATOM     16  H1  UNL     1      -9.424  -7.306  -6.160  1.00  0.00     0.210 HD
ENDBRANCH   6  15
BRANCH   1  17
HETATM   17  N1  UNL     1     -10.893  -8.881  -8.637  1.00  0.00    -0.072 N 
ATOM     18  H13 UNL     1     -11.455  -8.196  -9.144  1.00  0.00     0.274 HD
ATOM     19  H12 UNL     1     -11.310  -9.719  -9.042  1.00  0.00     0.274 HD
ATOM     20  H11 UNL     1     -11.012  -8.824  -7.626  1.00  0.00     0.274 HD
ENDBRANCH   1  17
TORSDOF 6
ENDMDL
