MODEL 1
REMARK VINA RESULT: -6.515030185      0.000      0.000
REMARK  2 active torsions:
REMARK  status: ('A' for Active; 'I' for Inactive)
REMARK    1  A    between atoms: C5_5  and  N1_6 
REMARK    2  A    between atoms: N1_6  and  C6_8 
ROOT
HETATM    1  C1  UNL     1      32.313  -1.297  35.969  1.00  0.00     0.000 C 
HETATM    2  C2  UNL     1      33.146  -0.817  37.107  1.00  0.00     0.000 C 
HETATM    3  C3  UNL     1      34.589  -1.209  37.050  1.00  0.00     0.002 C 
HETATM    4  C4  UNL     1      35.336  -0.503  35.933  1.00  0.00     0.024 C 
HETATM    5  C5  UNL     1      34.734  -0.849  34.600  1.00  0.00     0.077 C 
HETATM    6  C9  UNL     1      33.583   0.030  34.225  1.00  0.00     0.024 C 
HETATM    7  C10 UNL     1      32.298  -0.269  34.878  1.00  0.00     0.002 C 
ENDROOT
BRANCH   5   8
HETATM    8  N1  UNL     1      35.617  -0.945  33.529  1.00  0.00    -0.413 N 
ATOM      9  H1  UNL     1      35.358  -1.551  32.751  1.00  0.00     0.154 HD
BRANCH   8  10
HETATM   10  C6  UNL     1      36.820  -0.273  33.450  1.00  0.00     0.077 A 
HETATM   11  C7  UNL     1      37.087   1.148  33.348  1.00  0.00     0.027 A 
HETATM   12  C8  UNL     1      37.099   0.388  32.076  1.00  0.00     0.027 A 
ENDBRANCH   8  10
ENDBRANCH   5   8
TORSDOF 2
ENDMDL
MODEL 2
REMARK VINA RESULT: -6.494910845      1.611      4.504
REMARK  2 active torsions:
REMARK  status: ('A' for Active; 'I' for Inactive)
REMARK    1  A    between atoms: C5_5  and  N1_6 
REMARK    2  A    between atoms: N1_6  and  C6_8 
ROOT
HETATM    1  C1  UNL     1      35.926   1.303  32.265  1.00  0.00     0.000 C 
HETATM    2  C2  UNL     1      37.066   0.781  33.069  1.00  0.00     0.000 C 
HETATM    3  C3  UNL     1      37.042   1.149  34.520  1.00  0.00     0.002 C 
HETATM    4  C4  UNL     1      35.921   0.456  35.273  1.00  0.00     0.024 C 
HETATM    5  C5  UNL     1      34.587   0.844  34.700  1.00  0.00     0.077 C 
HETATM    6  C9  UNL     1      34.173  -0.004  33.539  1.00  0.00     0.024 C 
HETATM    7  C10 UNL     1      34.811   0.302  32.249  1.00  0.00     0.002 C 
ENDROOT
BRANCH   5   8
HETATM    8  N1  UNL     1      33.533   0.949  35.602  1.00  0.00    -0.413 N 
ATOM      9  H1  UNL     1      32.750   1.552  35.352  1.00  0.00     0.154 HD
BRANCH   8  10
HETATM   10  C6  UNL     1      33.478   0.291  36.814  1.00  0.00     0.077 A 
HETATM   11  C7  UNL     1      33.414  -1.128  37.099  1.00  0.00     0.027 A 
HETATM   12  C8  UNL     1      32.123  -0.401  37.109  1.00  0.00     0.027 A 
ENDBRANCH   8  10
ENDBRANCH   5   8
TORSDOF 2
ENDMDL
MODEL 3
REMARK VINA RESULT: -6.346252899      0.814      1.988
REMARK  2 active torsions:
REMARK  status: ('A' for Active; 'I' for Inactive)
REMARK    1  A    between atoms: C5_5  and  N1_6 
REMARK    2  A    between atoms: N1_6  and  C6_8 
ROOT
HETATM    1  C1  UNL     1      33.910   0.678  36.995  1.00  0.00     0.000 C 
HETATM    2  C2  UNL     1      32.708  -0.166  36.748  1.00  0.00     0.000 C 
HETATM    3  C3  UNL     1      32.367  -0.383  35.307  1.00  0.00     0.002 C 
HETATM    4  C4  UNL     1      33.385  -1.258  34.598  1.00  0.00     0.024 C 
HETATM    5  C5  UNL     1      34.744  -0.617  34.636  1.00  0.00     0.077 C 
HETATM    6  C9  UNL     1      35.512  -0.934  35.880  1.00  0.00     0.024 C 
HETATM    7  C10 UNL     1      35.130  -0.187  37.089  1.00  0.00     0.002 C 
ENDROOT
BRANCH   5   8
HETATM    8  N1  UNL     1      35.553  -0.817  33.522  1.00  0.00    -0.413 N 
ATOM      9  H1  UNL     1      35.186  -1.389  32.763  1.00  0.00     0.154 HD
BRANCH   8  10
HETATM   10  C6  UNL     1      36.821  -0.292  33.379  1.00  0.00     0.077 A 
HETATM   11  C7  UNL     1      37.257   1.090  33.335  1.00  0.00     0.027 A 
HETATM   12  C8  UNL     1      37.073   0.421  32.026  1.00  0.00     0.027 A 
ENDBRANCH   8  10
ENDBRANCH   5   8
TORSDOF 2
ENDMDL
MODEL 4
REMARK VINA RESULT: -6.320920802      1.627      4.765
REMARK  2 active torsions:
REMARK  status: ('A' for Active; 'I' for Inactive)
REMARK    1  A    between atoms: C5_5  and  N1_6 
REMARK    2  A    between atoms: N1_6  and  C6_8 
ROOT
HETATM    1  C1  UNL     1      37.000  -0.608  33.833  1.00  0.00     0.000 C 
HETATM    2  C2  UNL     1      36.703   0.224  32.634  1.00  0.00     0.000 C 
HETATM    3  C3  UNL     1      35.250   0.401  32.325  1.00  0.00     0.002 C 
HETATM    4  C4  UNL     1      34.540   1.259  33.356  1.00  0.00     0.024 C 
HETATM    5  C5  UNL     1      34.626   0.624  34.716  1.00  0.00     0.077 C 
HETATM    6  C9  UNL     1      35.877   0.978  35.455  1.00  0.00     0.024 C 
HETATM    7  C10 UNL     1      37.098   0.263  35.049  1.00  0.00     0.002 C 
ENDROOT
BRANCH   5   8
HETATM    8  N1  UNL     1      33.525   0.796  35.549  1.00  0.00    -0.413 N 
ATOM      9  H1  UNL     1      32.751   1.363  35.206  1.00  0.00     0.154 HD
BRANCH   8  10
HETATM   10  C6  UNL     1      33.413   0.249  36.811  1.00  0.00     0.077 A 
HETATM   11  C7  UNL     1      33.362  -1.140  37.222  1.00  0.00     0.027 A 
HETATM   12  C8  UNL     1      32.058  -0.450  37.091  1.00  0.00     0.027 A 
ENDBRANCH   8  10
ENDBRANCH   5   8
TORSDOF 2
ENDMDL
MODEL 5
REMARK VINA RESULT: -6.209482276      1.163      1.257
REMARK  2 active torsions:
REMARK  status: ('A' for Active; 'I' for Inactive)
REMARK    1  A    between atoms: C5_5  and  N1_6 
REMARK    2  A    between atoms: N1_6  and  C6_8 
ROOT
HETATM    1  C1  UNL     1      32.277  -1.493  36.098  1.00  0.00     0.000 C 
HETATM    2  C2  UNL     1      32.668  -0.708  37.302  1.00  0.00     0.000 C 
HETATM    3  C3  UNL     1      34.079  -0.209  37.306  1.00  0.00     0.002 C 
HETATM    4  C4  UNL     1      34.312   0.874  36.267  1.00  0.00     0.024 C 
HETATM    5  C5  UNL     1      34.038   0.343  34.888  1.00  0.00     0.077 C 
HETATM    6  C9  UNL     1      32.598   0.438  34.493  1.00  0.00     0.024 C 
HETATM    7  C10 UNL     1      31.699  -0.581  35.059  1.00  0.00     0.002 C 
ENDROOT
BRANCH   5   8
HETATM    8  N1  UNL     1      34.837   0.840  33.863  1.00  0.00    -0.413 N 
ATOM      9  H1  UNL     1      34.533   1.691  33.392  1.00  0.00     0.154 HD
BRANCH   8  10
HETATM   10  C6  UNL     1      36.015   0.257  33.443  1.00  0.00     0.077 A 
HETATM   11  C7  UNL     1      37.255   0.041  34.161  1.00  0.00     0.027 A 
HETATM   12  C8  UNL     1      37.203   1.241  33.294  1.00  0.00     0.027 A 
ENDBRANCH   8  10
ENDBRANCH   5   8
TORSDOF 2
ENDMDL
