MODEL 1
REMARK VINA RESULT: -7.611881216      0.000      0.000
REMARK  9 active torsions:
REMARK  status: ('A' for Active; 'I' for Inactive)
REMARK    1  A    between atoms: C2_2  and  C3_3 
REMARK    2  A    between atoms: C3_3  and  C4_4 
REMARK    3  A    between atoms: N1_7  and  C7_8 
REMARK    4  A    between atoms: C7_8  and  C8_9 
REMARK    5  A    between atoms: C8_9  and  C9_10 
REMARK    6  A    between atoms: C11_12  and  C12_13 
REMARK    7  A    between atoms: N5_28  and  C22_29 
REMARK    8  A    between atoms: C22_29  and  C23_30 
REMARK    9  A    between atoms: C30_40  and  O2_41 
ROOT
HETATM    1  C9  UNL     1      80.584  63.658  13.000  1.00  0.00     0.017 A 
HETATM    2  C10 UNL     1      79.498  64.048  13.813  1.00  0.00     0.057 A 
HETATM    3  C11 UNL     1      78.804  63.147  14.564  1.00  0.00     0.062 A 
HETATM    4  N4  UNL     1      79.187  61.873  14.507  1.00  0.00    -0.344 N 
ATOM      5  H4  UNL     1      78.673  61.192  15.067  1.00  0.00     0.167 HD
HETATM    6  C20 UNL     1      80.226  61.423  13.743  1.00  0.00     0.080 A 
HETATM    7  C21 UNL     1      80.556  59.989  13.816  1.00  0.00     0.089 C 
HETATM    8  N5  UNL     1      80.880  62.353  13.014  1.00  0.00    -0.336 N 
ENDROOT
BRANCH   1   9
HETATM    9  C8  UNL     1      81.223  64.710  12.186  1.00  0.00     0.085 C 
BRANCH   9  10
HETATM   10  C7  UNL     1      80.715  66.044  12.456  1.00  0.00     0.243 C 
BRANCH  10  11
HETATM   11  N1  UNL     1      79.898  66.802  11.629  1.00  0.00    -0.063 N 
HETATM   12  C6  UNL     1      80.531  68.012  11.136  1.00  0.00     0.238 C 
HETATM   13  C5  UNL     1      79.422  69.017  10.858  1.00  0.00     0.042 C 
HETATM   14  C4  UNL     1      78.224  68.272  11.341  1.00  0.00     0.016 C 
HETATM   15  C30 UNL     1      77.937  67.165  10.358  1.00  0.00     0.154 C 
HETATM   16  C31 UNL     1      78.818  67.451  12.469  1.00  0.00     0.249 C 
HETATM   17  C29 UNL     1      79.102  66.212  10.631  1.00  0.00     0.269 C 
BRANCH  14  18
HETATM   18  C3  UNL     1      77.061  69.081  11.734  1.00  0.00     0.040 C 
BRANCH  18  19
HETATM   19  C2  UNL     1      76.794  69.168  13.173  1.00  0.00    -0.036 C 
HETATM   20  C1  UNL     1      76.795  70.372  13.772  1.00  0.00     0.007 C 
ENDBRANCH  18  19
ENDBRANCH  14  18
BRANCH  15  21
HETATM   21  O2  UNL     1      76.771  66.509  10.711  1.00  0.00    -0.393 OA
ATOM     22  H2  UNL     1      76.289  66.261   9.931  1.00  0.00     0.210 HD
ENDBRANCH  15  21
ENDBRANCH  10  11
ENDBRANCH   9  10
ENDBRANCH   1   9
BRANCH   8  23
HETATM   23  C22 UNL     1      81.915  61.869  12.136  1.00  0.00     0.169 C 
BRANCH  23  24
HETATM   24  C23 UNL     1      83.266  61.804  12.770  1.00  0.00    -0.033 A 
HETATM   25  C24 UNL     1      83.617  62.300  13.974  1.00  0.00     0.033 A 
HETATM   26  C25 UNL     1      84.905  62.210  14.452  1.00  0.00     0.009 A 
HETATM   27  C26 UNL     1      85.261  62.776  15.803  1.00  0.00     0.068 C 
HETATM   28  N6  UNL     1      85.832  61.607  13.690  1.00  0.00    -0.328 N 
HETATM   29  C27 UNL     1      85.543  61.094  12.485  1.00  0.00     0.246 A 
ATOM     30  H6  UNL     1      86.788  61.537  14.039  1.00  0.00     0.169 HD
HETATM   31  O1  UNL     1      86.472  60.532  11.805  1.00  0.00    -0.268 OA
HETATM   32  C28 UNL     1      84.262  61.184  12.008  1.00  0.00     0.083 A 
ENDBRANCH  23  24
ENDBRANCH   8  23
BRANCH   3  33
HETATM   33  C12 UNL     1      77.700  63.606  15.393  1.00  0.00     0.061 A 
HETATM   34  C13 UNL     1      77.239  63.061  16.578  1.00  0.00     0.047 A 
HETATM   35  C14 UNL     1      76.188  63.838  16.998  1.00  0.00     0.010 A 
HETATM   36  C15 UNL     1      75.382  63.735  18.116  1.00  0.00     0.017 A 
HETATM   37  C19 UNL     1      75.995  64.849  16.095  1.00  0.00     0.117 A 
HETATM   38  C16 UNL     1      74.382  64.644  18.325  1.00  0.00     0.018 A 
HETATM   39  C17 UNL     1      74.224  65.641  17.390  1.00  0.00     0.092 A 
HETATM   40  N2  UNL     1      75.012  65.737  16.307  1.00  0.00    -0.347 N 
HETATM   41  C18 UNL     1      74.818  66.796  15.346  1.00  0.00     0.157 C 
HETATM   42  N3  UNL     1      76.916  64.675  15.154  1.00  0.00    -0.340 N 
ATOM     43  H3  UNL     1      77.018  65.282  14.341  1.00  0.00     0.167 HD
ENDBRANCH   3  33
TORSDOF 9
ENDMDL
MODEL 2
REMARK VINA RESULT: -7.557607029      0.786      1.220
REMARK  9 active torsions:
REMARK  status: ('A' for Active; 'I' for Inactive)
REMARK    1  A    between atoms: C2_2  and  C3_3 
REMARK    2  A    between atoms: C3_3  and  C4_4 
REMARK    3  A    between atoms: N1_7  and  C7_8 
REMARK    4  A    between atoms: C7_8  and  C8_9 
REMARK    5  A    between atoms: C8_9  and  C9_10 
REMARK    6  A    between atoms: C11_12  and  C12_13 
REMARK    7  A    between atoms: N5_28  and  C22_29 
REMARK    8  A    between atoms: C22_29  and  C23_30 
REMARK    9  A    between atoms: C30_40  and  O2_41 
ROOT
HETATM    1  C9  UNL     1      80.623  63.675  12.976  1.00  0.00     0.017 A 
HETATM    2  C10 UNL     1      79.471  63.974  13.734  1.00  0.00     0.057 A 
HETATM    3  C11 UNL     1      78.793  63.011  14.420  1.00  0.00     0.062 A 
HETATM    4  N4  UNL     1      79.256  61.764  14.351  1.00  0.00    -0.344 N 
ATOM      5  H4  UNL     1      78.754  61.038  14.862  1.00  0.00     0.167 HD
HETATM    6  C20 UNL     1      80.362  61.401  13.638  1.00  0.00     0.080 A 
HETATM    7  C21 UNL     1      80.775  59.988  13.692  1.00  0.00     0.089 C 
HETATM    8  N5  UNL     1      80.998  62.390  12.973  1.00  0.00    -0.336 N 
ENDROOT
BRANCH   1   9
HETATM    9  C8  UNL     1      81.241  64.787  12.228  1.00  0.00     0.085 C 
BRANCH   9  10
HETATM   10  C7  UNL     1      80.648  66.082  12.517  1.00  0.00     0.243 C 
BRANCH  10  11
HETATM   11  N1  UNL     1      79.860  66.840  11.662  1.00  0.00    -0.063 N 
HETATM   12  C6  UNL     1      80.535  68.012  11.135  1.00  0.00     0.238 C 
HETATM   13  C5  UNL     1      79.461  69.044  10.820  1.00  0.00     0.042 C 
HETATM   14  C4  UNL     1      78.237  68.355  11.322  1.00  0.00     0.016 C 
HETATM   15  C30 UNL     1      77.917  67.228  10.372  1.00  0.00     0.154 C 
HETATM   16  C31 UNL     1      78.799  67.551  12.477  1.00  0.00     0.249 C 
HETATM   17  C29 UNL     1      79.048  66.246  10.680  1.00  0.00     0.269 C 
BRANCH  14  18
HETATM   18  C3  UNL     1      77.100  69.214  11.683  1.00  0.00     0.040 C 
BRANCH  18  19
HETATM   19  C2  UNL     1      76.791  69.304  13.114  1.00  0.00    -0.036 C 
HETATM   20  C1  UNL     1      76.779  70.508  13.712  1.00  0.00     0.007 C 
ENDBRANCH  18  19
ENDBRANCH  14  18
BRANCH  15  21
HETATM   21  O2  UNL     1      76.729  66.622  10.740  1.00  0.00    -0.393 OA
ATOM     22  H2  UNL     1      76.528  65.911  10.143  1.00  0.00     0.210 HD
ENDBRANCH  15  21
ENDBRANCH  10  11
ENDBRANCH   9  10
ENDBRANCH   1   9
BRANCH   8  23
HETATM   23  C22 UNL     1      82.109  61.995  12.144  1.00  0.00     0.169 C 
BRANCH  23  24
HETATM   24  C23 UNL     1      83.404  61.888  12.878  1.00  0.00    -0.033 A 
HETATM   25  C24 UNL     1      83.694  62.414  14.086  1.00  0.00     0.033 A 
HETATM   26  C25 UNL     1      84.937  62.278  14.662  1.00  0.00     0.009 A 
HETATM   27  C26 UNL     1      85.223  62.879  16.014  1.00  0.00     0.068 C 
HETATM   28  N6  UNL     1      85.883  61.599  13.994  1.00  0.00    -0.328 N 
HETATM   29  C27 UNL     1      85.655  61.053  12.790  1.00  0.00     0.246 A 
ATOM     30  H6  UNL     1      86.806  61.496  14.415  1.00  0.00     0.169 HD
HETATM   31  O1  UNL     1      86.600  60.418  12.202  1.00  0.00    -0.268 OA
HETATM   32  C28 UNL     1      84.419  61.189  12.216  1.00  0.00     0.083 A 
ENDBRANCH  23  24
ENDBRANCH   8  23
BRANCH   3  33
HETATM   33  C12 UNL     1      77.617  63.378  15.195  1.00  0.00     0.061 A 
HETATM   34  C13 UNL     1      76.350  63.680  14.731  1.00  0.00     0.047 A 
HETATM   35  C14 UNL     1      75.573  63.955  15.830  1.00  0.00     0.010 A 
HETATM   36  C15 UNL     1      74.240  64.308  15.924  1.00  0.00     0.017 A 
HETATM   37  C19 UNL     1      76.339  63.827  16.957  1.00  0.00     0.117 A 
HETATM   38  C16 UNL     1      73.677  64.534  17.150  1.00  0.00     0.018 A 
HETATM   39  C17 UNL     1      74.485  64.395  18.255  1.00  0.00     0.092 A 
HETATM   40  N2  UNL     1      75.779  64.050  18.156  1.00  0.00    -0.347 N 
HETATM   41  C18 UNL     1      76.597  63.913  19.337  1.00  0.00     0.157 C 
HETATM   42  N3  UNL     1      77.550  63.482  16.537  1.00  0.00    -0.340 N 
ATOM     43  H3  UNL     1      78.340  63.315  17.159  1.00  0.00     0.167 HD
ENDBRANCH   3  33
TORSDOF 9
ENDMDL
MODEL 3
REMARK VINA RESULT: -7.513395319      1.371      2.388
REMARK  9 active torsions:
REMARK  status: ('A' for Active; 'I' for Inactive)
REMARK    1  A    between atoms: C2_2  and  C3_3 
REMARK    2  A    between atoms: C3_3  and  C4_4 
REMARK    3  A    between atoms: N1_7  and  C7_8 
REMARK    4  A    between atoms: C7_8  and  C8_9 
REMARK    5  A    between atoms: C8_9  and  C9_10 
REMARK    6  A    between atoms: C11_12  and  C12_13 
REMARK    7  A    between atoms: N5_28  and  C22_29 
REMARK    8  A    between atoms: C22_29  and  C23_30 
REMARK    9  A    between atoms: C30_40  and  O2_41 
ROOT
HETATM    1  C9  UNL     1      80.633  63.718  13.026  1.00  0.00     0.017 A 
HETATM    2  C10 UNL     1      79.474  64.000  13.781  1.00  0.00     0.057 A 
HETATM    3  C11 UNL     1      78.792  63.023  14.442  1.00  0.00     0.062 A 
HETATM    4  N4  UNL     1      79.257  61.778  14.353  1.00  0.00    -0.344 N 
ATOM      5  H4  UNL     1      78.753  61.041  14.845  1.00  0.00     0.167 HD
HETATM    6  C20 UNL     1      80.370  61.431  13.641  1.00  0.00     0.080 A 
HETATM    7  C21 UNL     1      80.785  60.018  13.671  1.00  0.00     0.089 C 
HETATM    8  N5  UNL     1      81.010  62.434  13.002  1.00  0.00    -0.336 N 
ENDROOT
BRANCH   1   9
HETATM    9  C8  UNL     1      81.255  64.845  12.306  1.00  0.00     0.085 C 
BRANCH   9  10
HETATM   10  C7  UNL     1      80.541  66.101  12.464  1.00  0.00     0.243 C 
BRANCH  10  11
HETATM   11  N1  UNL     1      79.856  66.794  11.476  1.00  0.00    -0.063 N 
HETATM   12  C6  UNL     1      79.846  66.117  10.192  1.00  0.00     0.238 C 
HETATM   13  C5  UNL     1      79.706  67.189   9.120  1.00  0.00     0.042 C 
HETATM   14  C4  UNL     1      79.756  68.432   9.943  1.00  0.00     0.016 C 
HETATM   15  C30 UNL     1      78.459  68.538  10.704  1.00  0.00     0.154 C 
HETATM   16  C31 UNL     1      80.671  68.006  11.073  1.00  0.00     0.249 C 
HETATM   17  C29 UNL     1      78.617  67.411  11.726  1.00  0.00     0.269 C 
BRANCH  14  18
HETATM   18  C3  UNL     1      80.182  69.659   9.254  1.00  0.00     0.040 C 
BRANCH  18  19
HETATM   19  C2  UNL     1      80.993  69.471   8.047  1.00  0.00    -0.036 C 
HETATM   20  C1  UNL     1      82.329  69.604   8.122  1.00  0.00     0.007 C 
ENDBRANCH  18  19
ENDBRANCH  14  18
BRANCH  15  21
HETATM   21  O2  UNL     1      78.417  69.731  11.404  1.00  0.00    -0.393 OA
ATOM     22  H2  UNL     1      78.772  69.608  12.276  1.00  0.00     0.210 HD
ENDBRANCH  15  21
ENDBRANCH  10  11
ENDBRANCH   9  10
ENDBRANCH   1   9
BRANCH   8  23
HETATM   23  C22 UNL     1      82.128  62.057  12.174  1.00  0.00     0.169 C 
BRANCH  23  24
HETATM   24  C23 UNL     1      83.416  61.927  12.919  1.00  0.00    -0.033 A 
HETATM   25  C24 UNL     1      83.707  62.453  14.126  1.00  0.00     0.033 A 
HETATM   26  C25 UNL     1      84.942  62.296  14.712  1.00  0.00     0.009 A 
HETATM   27  C26 UNL     1      85.231  62.898  16.063  1.00  0.00     0.068 C 
HETATM   28  N6  UNL     1      85.880  61.595  14.055  1.00  0.00    -0.328 N 
HETATM   29  C27 UNL     1      85.650  61.047  12.851  1.00  0.00     0.246 A 
ATOM     30  H6  UNL     1      86.797  61.474  14.483  1.00  0.00     0.169 HD
HETATM   31  O1  UNL     1      86.586  60.390  12.274  1.00  0.00    -0.268 OA
HETATM   32  C28 UNL     1      84.421  61.204  12.267  1.00  0.00     0.083 A 
ENDBRANCH  23  24
ENDBRANCH   8  23
BRANCH   3  33
HETATM   33  C12 UNL     1      77.609  63.372  15.215  1.00  0.00     0.061 A 
HETATM   34  C13 UNL     1      76.340  63.662  14.747  1.00  0.00     0.047 A 
HETATM   35  C14 UNL     1      75.556  63.923  15.844  1.00  0.00     0.010 A 
HETATM   36  C15 UNL     1      74.218  64.260  15.935  1.00  0.00     0.017 A 
HETATM   37  C19 UNL     1      76.319  63.799  16.974  1.00  0.00     0.117 A 
HETATM   38  C16 UNL     1      73.649  64.475  17.160  1.00  0.00     0.018 A 
HETATM   39  C17 UNL     1      74.454  64.340  18.267  1.00  0.00     0.092 A 
HETATM   40  N2  UNL     1      75.753  64.011  18.172  1.00  0.00    -0.347 N 
HETATM   41  C18 UNL     1      76.568  63.878  19.355  1.00  0.00     0.157 C 
HETATM   42  N3  UNL     1      77.535  63.470  16.556  1.00  0.00    -0.340 N 
ATOM     43  H3  UNL     1      78.325  63.310  17.181  1.00  0.00     0.167 HD
ENDBRANCH   3  33
TORSDOF 9
ENDMDL
MODEL 4
REMARK VINA RESULT: -7.436728520      2.718      6.435
REMARK  9 active torsions:
REMARK  status: ('A' for Active; 'I' for Inactive)
REMARK    1  A    between atoms: C2_2  and  C3_3 
REMARK    2  A    between atoms: C3_3  and  C4_4 
REMARK    3  A    between atoms: N1_7  and  C7_8 
REMARK    4  A    between atoms: C7_8  and  C8_9 
REMARK    5  A    between atoms: C8_9  and  C9_10 
REMARK    6  A    between atoms: C11_12  and  C12_13 
REMARK    7  A    between atoms: N5_28  and  C22_29 
REMARK    8  A    between atoms: C22_29  and  C23_30 
REMARK    9  A    between atoms: C30_40  and  O2_41 
ROOT
HETATM    1  C9  UNL     1      80.347  61.427  13.725  1.00  0.00     0.017 A 
HETATM    2  C10 UNL     1      79.313  61.836  14.595  1.00  0.00     0.057 A 
HETATM    3  C11 UNL     1      78.933  63.140  14.695  1.00  0.00     0.062 A 
HETATM    4  N4  UNL     1      79.573  64.029  13.938  1.00  0.00    -0.344 N 
ATOM      5  H4  UNL     1      79.294  65.007  14.006  1.00  0.00     0.167 HD
HETATM    6  C20 UNL     1      80.582  63.707  13.075  1.00  0.00     0.080 A 
HETATM    7  C21 UNL     1      81.167  64.796  12.274  1.00  0.00     0.089 C 
HETATM    8  N5  UNL     1      80.925  62.402  13.014  1.00  0.00    -0.336 N 
ENDROOT
BRANCH   1   9
HETATM    9  C8  UNL     1      80.713  59.998  13.743  1.00  0.00     0.085 C 
BRANCH   9  10
HETATM   10  C7  UNL     1      80.085  59.222  12.687  1.00  0.00     0.243 C 
BRANCH  10  11
HETATM   11  N1  UNL     1      80.732  58.484  11.706  1.00  0.00    -0.063 N 
HETATM   12  C6  UNL     1      80.375  57.077  11.707  1.00  0.00     0.238 C 
HETATM   13  C5  UNL     1      81.557  56.314  11.127  1.00  0.00     0.042 C 
HETATM   14  C4  UNL     1      82.550  57.411  10.942  1.00  0.00     0.016 C 
HETATM   15  C30 UNL     1      82.092  58.263   9.785  1.00  0.00     0.154 C 
HETATM   16  C31 UNL     1      82.190  58.336  12.087  1.00  0.00     0.249 C 
HETATM   17  C29 UNL     1      80.875  58.962  10.392  1.00  0.00     0.269 C 
BRANCH  14  18
HETATM   18  C3  UNL     1      83.967  57.017  10.909  1.00  0.00     0.040 C 
BRANCH  18  19
HETATM   19  C2  UNL     1      84.766  57.395  12.079  1.00  0.00    -0.036 C 
HETATM   20  C1  UNL     1      86.105  57.280  12.028  1.00  0.00     0.007 C 
ENDBRANCH  18  19
ENDBRANCH  14  18
BRANCH  15  21
HETATM   21  O2  UNL     1      83.037  59.235   9.510  1.00  0.00    -0.393 OA
ATOM     22  H2  UNL     1      83.577  58.964   8.777  1.00  0.00     0.210 HD
ENDBRANCH  15  21
ENDBRANCH  10  11
ENDBRANCH   9  10
ENDBRANCH   1   9
BRANCH   8  23
HETATM   23  C22 UNL     1      82.052  62.073  12.176  1.00  0.00     0.169 C 
BRANCH  23  24
HETATM   24  C23 UNL     1      83.346  61.975  12.914  1.00  0.00    -0.033 A 
HETATM   25  C24 UNL     1      83.610  62.451  14.148  1.00  0.00     0.033 A 
HETATM   26  C25 UNL     1      84.855  62.331  14.725  1.00  0.00     0.009 A 
HETATM   27  C26 UNL     1      85.113  62.874  16.107  1.00  0.00     0.068 C 
HETATM   28  N6  UNL     1      85.828  61.720  14.031  1.00  0.00    -0.328 N 
HETATM   29  C27 UNL     1      85.626  61.226  12.800  1.00  0.00     0.246 A 
ATOM     30  H6  UNL     1      86.752  61.628  14.453  1.00  0.00     0.169 HD
HETATM   31  O1  UNL     1      86.595  60.655  12.187  1.00  0.00    -0.268 OA
HETATM   32  C28 UNL     1      84.388  61.346  12.225  1.00  0.00     0.083 A 
ENDBRANCH  23  24
ENDBRANCH   8  23
BRANCH   3  33
HETATM   33  C12 UNL     1      77.853  63.504  15.600  1.00  0.00     0.061 A 
HETATM   34  C13 UNL     1      77.527  62.926  16.814  1.00  0.00     0.047 A 
HETATM   35  C14 UNL     1      76.442  63.609  17.307  1.00  0.00     0.010 A 
HETATM   36  C15 UNL     1      75.728  63.439  18.479  1.00  0.00     0.017 A 
HETATM   37  C19 UNL     1      76.098  64.593  16.421  1.00  0.00     0.117 A 
HETATM   38  C16 UNL     1      74.669  64.257  18.759  1.00  0.00     0.018 A 
HETATM   39  C17 UNL     1      74.358  65.232  17.838  1.00  0.00     0.092 A 
HETATM   40  N2  UNL     1      75.056  65.391  16.702  1.00  0.00    -0.347 N 
HETATM   41  C18 UNL     1      74.702  66.425  15.759  1.00  0.00     0.157 C 
HETATM   42  N3  UNL     1      76.962  64.497  15.418  1.00  0.00    -0.340 N 
ATOM     43  H3  UNL     1      76.952  65.108  14.601  1.00  0.00     0.167 HD
ENDBRANCH   3  33
TORSDOF 9
ENDMDL
MODEL 5
REMARK VINA RESULT: -7.299492337      1.405      2.445
REMARK  9 active torsions:
REMARK  status: ('A' for Active; 'I' for Inactive)
REMARK    1  A    between atoms: C2_2  and  C3_3 
REMARK    2  A    between atoms: C3_3  and  C4_4 
REMARK    3  A    between atoms: N1_7  and  C7_8 
REMARK    4  A    between atoms: C7_8  and  C8_9 
REMARK    5  A    between atoms: C8_9  and  C9_10 
REMARK    6  A    between atoms: C11_12  and  C12_13 
REMARK    7  A    between atoms: N5_28  and  C22_29 
REMARK    8  A    between atoms: C22_29  and  C23_30 
REMARK    9  A    between atoms: C30_40  and  O2_41 
ROOT
HETATM    1  C9  UNL     1      80.612  63.693  13.052  1.00  0.00     0.017 A 
HETATM    2  C10 UNL     1      79.565  64.018  13.942  1.00  0.00     0.057 A 
HETATM    3  C11 UNL     1      78.923  63.064  14.673  1.00  0.00     0.062 A 
HETATM    4  N4  UNL     1      79.317  61.801  14.520  1.00  0.00    -0.344 N 
ATOM      5  H4  UNL     1      78.842  61.081  15.064  1.00  0.00     0.167 HD
HETATM    6  C20 UNL     1      80.320  61.413  13.678  1.00  0.00     0.080 A 
HETATM    7  C21 UNL     1      80.670  59.983  13.648  1.00  0.00     0.089 C 
HETATM    8  N5  UNL     1      80.924  62.394  12.973  1.00  0.00    -0.336 N 
ENDROOT
BRANCH   1   9
HETATM    9  C8  UNL     1      81.195  64.801  12.270  1.00  0.00     0.085 C 
BRANCH   9  10
HETATM   10  C7  UNL     1      80.496  66.063  12.440  1.00  0.00     0.243 C 
BRANCH  10  11
HETATM   11  N1  UNL     1      79.825  66.776  11.456  1.00  0.00    -0.063 N 
HETATM   12  C6  UNL     1      79.809  66.111  10.165  1.00  0.00     0.238 C 
HETATM   13  C5  UNL     1      79.689  67.196   9.104  1.00  0.00     0.042 C 
HETATM   14  C4  UNL     1      79.756  68.430   9.938  1.00  0.00     0.016 C 
HETATM   15  C30 UNL     1      78.458  68.550  10.696  1.00  0.00     0.154 C 
HETATM   16  C31 UNL     1      80.660  67.979  11.068  1.00  0.00     0.249 C 
HETATM   17  C29 UNL     1      78.595  67.410  11.707  1.00  0.00     0.269 C 
BRANCH  14  18
HETATM   18  C3  UNL     1      80.205  69.657   9.263  1.00  0.00     0.040 C 
BRANCH  18  19
HETATM   19  C2  UNL     1      81.022  69.468   8.060  1.00  0.00    -0.036 C 
HETATM   20  C1  UNL     1      82.355  69.629   8.136  1.00  0.00     0.007 C 
ENDBRANCH  18  19
ENDBRANCH  14  18
BRANCH  15  21
HETATM   21  O2  UNL     1      78.433  69.736  11.407  1.00  0.00    -0.393 OA
ATOM     22  H2  UNL     1      78.271  70.464  10.818  1.00  0.00     0.210 HD
ENDBRANCH  15  21
ENDBRANCH  10  11
ENDBRANCH   9  10
ENDBRANCH   1   9
BRANCH   8  23
HETATM   23  C22 UNL     1      81.918  61.978  12.015  1.00  0.00     0.169 C 
BRANCH  23  24
HETATM   24  C23 UNL     1      83.279  61.788  12.599  1.00  0.00    -0.033 A 
HETATM   25  C24 UNL     1      84.262  61.001  12.114  1.00  0.00     0.033 A 
HETATM   26  C25 UNL     1      85.476  60.876  12.751  1.00  0.00     0.009 A 
HETATM   27  C26 UNL     1      86.552  59.988  12.181  1.00  0.00     0.068 C 
HETATM   28  N6  UNL     1      85.679  61.563  13.887  1.00  0.00    -0.328 N 
HETATM   29  C27 UNL     1      84.740  62.362  14.417  1.00  0.00     0.246 A 
ATOM     30  H6  UNL     1      86.576  61.475  14.364  1.00  0.00     0.169 HD
HETATM   31  O1  UNL     1      84.994  62.990  15.504  1.00  0.00    -0.268 OA
HETATM   32  C28 UNL     1      83.531  62.486  13.784  1.00  0.00     0.083 A 
ENDBRANCH  23  24
ENDBRANCH   8  23
BRANCH   3  33
HETATM   33  C12 UNL     1      77.858  63.456  15.584  1.00  0.00     0.061 A 
HETATM   34  C13 UNL     1      77.517  62.882  16.795  1.00  0.00     0.047 A 
HETATM   35  C14 UNL     1      76.457  63.597  17.296  1.00  0.00     0.010 A 
HETATM   36  C15 UNL     1      75.742  63.443  18.470  1.00  0.00     0.017 A 
HETATM   37  C19 UNL     1      76.142  64.597  16.417  1.00  0.00     0.117 A 
HETATM   38  C16 UNL     1      74.710  64.293  18.758  1.00  0.00     0.018 A 
HETATM   39  C17 UNL     1      74.429  65.283  17.844  1.00  0.00     0.092 A 
HETATM   40  N2  UNL     1      75.128  65.427  16.707  1.00  0.00    -0.347 N 
HETATM   41  C18 UNL     1      74.805  66.477  15.770  1.00  0.00     0.157 C 
HETATM   42  N3  UNL     1      76.999  64.479  15.410  1.00  0.00    -0.340 N 
ATOM     43  H3  UNL     1      77.007  65.094  14.597  1.00  0.00     0.167 HD
ENDBRANCH   3  33
TORSDOF 9
ENDMDL
