MODEL 1
REMARK VINA RESULT: -10.399271200      0.000      0.000
REMARK  5 active torsions:
REMARK  status: ('A' for Active; 'I' for Inactive)
REMARK    1  A    between atoms: C2_3  and  C3_5 
REMARK    2  A    between atoms: C3_5  and  C4_6 
REMARK    3  A    between atoms: C13_16  and  O3_17 
REMARK    4  A    between atoms: C21_26  and  O4_27 
REMARK    5  A    between atoms: C25_32  and  C26_33 
ROOT
HETATM    1  C1  UNL     1       2.470  -3.661   6.464  1.00  0.00     0.232 C 
HETATM    2  N1  UNL     1       2.735  -2.344   6.507  1.00  0.00    -0.395 NA
HETATM    3  C2  UNL     1       3.013  -0.968   6.551  1.00  0.00     0.293 C 
HETATM    4  O1  UNL     1       2.617  -0.236   7.471  1.00  0.00    -0.257 OA
ENDROOT
BRANCH   3   5
HETATM    5  C3  UNL     1       3.819  -0.404   5.438  1.00  0.00     0.147 C 
BRANCH   5   6
HETATM    6  C4  UNL     1       3.181   0.208   4.267  1.00  0.00    -0.001 C 
HETATM    7  C5  UNL     1       2.970  -0.466   3.018  1.00  0.00     0.012 C 
HETATM    8  C6  UNL     1       2.130  -1.659   2.977  1.00  0.00     0.159 C 
HETATM    9  C22 UNL     1       2.645   0.390   1.810  1.00  0.00    -0.029 C 
HETATM   10  O2  UNL     1       2.577  -2.815   3.087  1.00  0.00    -0.292 OA
HETATM   11  C7  UNL     1       0.649  -1.498   2.785  1.00  0.00     0.085 C 
HETATM   12  C8  UNL     1       0.515  -0.684   1.517  1.00  0.00     0.022 C 
HETATM   13  C9  UNL     1       1.187   0.693   1.634  1.00  0.00    -0.013 C 
HETATM   14  C10 UNL     1       0.557   1.467   2.750  1.00  0.00     0.021 C 
HETATM   15  C11 UNL     1       0.908   1.483   0.372  1.00  0.00     0.004 C 
HETATM   16  C12 UNL     1       0.668   0.682  -0.865  1.00  0.00     0.038 C 
HETATM   17  C19 UNL     1       1.908   2.580   0.228  1.00  0.00    -0.007 C 
HETATM   18  C13 UNL     1      -0.407   1.307  -1.770  1.00  0.00     0.128 C 
HETATM   19  C14 UNL     1       0.161   1.775  -3.069  1.00  0.00    -0.004 C 
HETATM   20  C15 UNL     1       1.105   0.669  -3.564  1.00  0.00     0.019 C 
HETATM   21  C16 UNL     1       0.846   3.100  -3.035  1.00  0.00    -0.003 C 
HETATM   22  C25 UNL     1      -0.839   1.960  -4.170  1.00  0.00     0.066 C 
HETATM   23  C17 UNL     1       2.031   3.264  -2.189  1.00  0.00     0.006 C 
HETATM   24  C23 UNL     1       1.124   3.313  -4.525  1.00  0.00     0.006 C 
HETATM   25  C18 UNL     1       1.623   3.627  -0.798  1.00  0.00     0.005 C 
HETATM   26  C24 UNL     1      -0.265   3.071  -5.071  1.00  0.00     0.013 C 
HETATM   27  C20 UNL     1       3.280   1.970   0.082  1.00  0.00     0.041 C 
HETATM   28  C21 UNL     1       3.604   1.465   1.509  1.00  0.00     0.149 C 
BRANCH  18  29
HETATM   29  O3  UNL     1      -1.472   0.397  -1.982  1.00  0.00    -0.395 OA
ATOM     30  H3  UNL     1      -2.170   0.809  -2.478  1.00  0.00     0.210 HD
ENDBRANCH  18  29
BRANCH  22  31
HETATM   31  C26 UNL     1      -2.189   2.357  -3.792  1.00  0.00     0.128 C 
HETATM   32  C27 UNL     1      -3.459   1.724  -4.221  1.00  0.00     0.091 C 
HETATM   33  O5  UNL     1      -2.306   3.333  -3.026  1.00  0.00    -0.298 OA
ENDBRANCH  22  31
BRANCH  28  34
HETATM   34  O4  UNL     1       3.524   2.619   2.272  1.00  0.00    -0.391 OA
ATOM     35  H4  UNL     1       4.155   2.460   2.964  1.00  0.00     0.210 HD
ENDBRANCH  28  34
ENDBRANCH   5   6
ENDBRANCH   3   5
TORSDOF 4
ENDMDL
MODEL 2
REMARK VINA RESULT: -10.373528528      3.098      8.490
REMARK  5 active torsions:
REMARK  status: ('A' for Active; 'I' for Inactive)
REMARK    1  A    between atoms: C2_3  and  C3_5 
REMARK    2  A    between atoms: C3_5  and  C4_6 
REMARK    3  A    between atoms: C13_16  and  O3_17 
REMARK    4  A    between atoms: C21_26  and  O4_27 
REMARK    5  A    between atoms: C25_32  and  C26_33 
ROOT
HETATM    1  C1  UNL     1      -3.565   2.224  -6.524  1.00  0.00     0.232 C 
HETATM    2  N1  UNL     1      -2.272   2.588  -6.552  1.00  0.00    -0.395 NA
HETATM    3  C2  UNL     1      -0.921   2.970  -6.582  1.00  0.00     0.293 C 
HETATM    4  O1  UNL     1      -0.158   2.658  -7.509  1.00  0.00    -0.257 OA
ENDROOT
BRANCH   3   5
HETATM    5  C3  UNL     1      -0.422   3.782  -5.442  1.00  0.00     0.147 C 
BRANCH   5   6
HETATM    6  C4  UNL     1       0.196   3.153  -4.269  1.00  0.00    -0.001 C 
HETATM    7  C5  UNL     1      -0.474   2.944  -3.018  1.00  0.00     0.012 C 
HETATM    8  C6  UNL     1      -1.662   2.098  -2.970  1.00  0.00     0.159 C 
HETATM    9  C22 UNL     1       0.386   2.631  -1.809  1.00  0.00    -0.029 C 
HETATM   10  O2  UNL     1      -2.821   2.537  -3.080  1.00  0.00    -0.292 OA
HETATM   11  C7  UNL     1      -1.492   0.619  -2.771  1.00  0.00     0.085 C 
HETATM   12  C8  UNL     1      -0.675   0.495  -1.504  1.00  0.00     0.022 C 
HETATM   13  C9  UNL     1       0.698   1.175  -1.627  1.00  0.00    -0.013 C 
HETATM   14  C10 UNL     1       1.474   0.544  -2.741  1.00  0.00     0.021 C 
HETATM   15  C11 UNL     1       1.491   0.907  -0.365  1.00  0.00     0.004 C 
HETATM   16  C12 UNL     1       0.695   0.668   0.875  1.00  0.00     0.038 C 
HETATM   17  C19 UNL     1       2.583   1.914  -0.228  1.00  0.00    -0.007 C 
HETATM   18  C13 UNL     1       1.327  -0.398   1.784  1.00  0.00     0.128 C 
HETATM   19  C14 UNL     1       1.794   0.179   3.079  1.00  0.00    -0.004 C 
HETATM   20  C15 UNL     1       0.684   1.119   3.571  1.00  0.00     0.019 C 
HETATM   21  C16 UNL     1       3.116   0.871   3.039  1.00  0.00    -0.003 C 
HETATM   22  C25 UNL     1       1.987  -0.815   4.185  1.00  0.00     0.066 C 
HETATM   23  C17 UNL     1       3.271   2.053   2.187  1.00  0.00     0.006 C 
HETATM   24  C23 UNL     1       3.330   1.158   4.527  1.00  0.00     0.006 C 
HETATM   25  C18 UNL     1       3.633   1.640   0.798  1.00  0.00     0.005 C 
HETATM   26  C24 UNL     1       3.097  -0.230   5.080  1.00  0.00     0.013 C 
HETATM   27  C20 UNL     1       1.966   3.283  -0.088  1.00  0.00     0.041 C 
HETATM   28  C21 UNL     1       1.456   3.597  -1.515  1.00  0.00     0.149 C 
BRANCH  18  29
HETATM   29  O3  UNL     1       0.424  -1.467   2.003  1.00  0.00    -0.395 OA
ATOM     30  H3  UNL     1       0.506  -1.799   2.890  1.00  0.00     0.210 HD
ENDBRANCH  18  29
BRANCH  22  31
HETATM   31  C26 UNL     1       2.392  -2.165   3.813  1.00  0.00     0.128 C 
HETATM   32  C27 UNL     1       1.822  -3.437   4.316  1.00  0.00     0.091 C 
HETATM   33  O5  UNL     1       3.315  -2.278   2.984  1.00  0.00    -0.298 OA
ENDBRANCH  22  31
BRANCH  28  34
HETATM   34  O4  UNL     1       2.609   3.520  -2.280  1.00  0.00    -0.391 OA
ATOM     35  H4  UNL     1       2.643   2.602  -2.521  1.00  0.00     0.210 HD
ENDBRANCH  28  34
ENDBRANCH   5   6
ENDBRANCH   3   5
TORSDOF 4
ENDMDL
MODEL 3
REMARK VINA RESULT: -10.244139699      1.050      1.489
REMARK  5 active torsions:
REMARK  status: ('A' for Active; 'I' for Inactive)
REMARK    1  A    between atoms: C2_3  and  C3_5 
REMARK    2  A    between atoms: C3_5  and  C4_6 
REMARK    3  A    between atoms: C13_16  and  O3_17 
REMARK    4  A    between atoms: C21_26  and  O4_27 
REMARK    5  A    between atoms: C25_32  and  C26_33 
ROOT
HETATM    1  C1  UNL     1       5.098   2.848   6.322  1.00  0.00     0.232 C 
HETATM    2  N1  UNL     1       4.561   1.633   6.527  1.00  0.00    -0.395 NA
HETATM    3  C2  UNL     1       4.000   0.364   6.740  1.00  0.00     0.293 C 
HETATM    4  O1  UNL     1       3.782  -0.089   7.875  1.00  0.00    -0.257 OA
ENDROOT
BRANCH   3   5
HETATM    5  C3  UNL     1       3.663  -0.438   5.536  1.00  0.00     0.147 C 
BRANCH   5   6
HETATM    6  C4  UNL     1       3.060   0.182   4.350  1.00  0.00    -0.001 C 
HETATM    7  C5  UNL     1       2.880  -0.487   3.093  1.00  0.00     0.012 C 
HETATM    8  C6  UNL     1       2.037  -1.675   3.024  1.00  0.00     0.159 C 
HETATM    9  C22 UNL     1       2.593   0.376   1.880  1.00  0.00    -0.029 C 
HETATM   10  O2  UNL     1       2.475  -2.834   3.142  1.00  0.00    -0.292 OA
HETATM   11  C7  UNL     1       0.563  -1.507   2.793  1.00  0.00     0.085 C 
HETATM   12  C8  UNL     1       0.466  -0.688   1.524  1.00  0.00     0.022 C 
HETATM   13  C9  UNL     1       1.141   0.685   1.665  1.00  0.00    -0.013 C 
HETATM   14  C10 UNL     1       0.484   1.458   2.767  1.00  0.00     0.021 C 
HETATM   15  C11 UNL     1       0.900   1.481   0.400  1.00  0.00     0.004 C 
HETATM   16  C12 UNL     1       0.691   0.687  -0.847  1.00  0.00     0.038 C 
HETATM   17  C19 UNL     1       1.909   2.574   0.287  1.00  0.00    -0.007 C 
HETATM   18  C13 UNL     1      -0.356   1.320  -1.778  1.00  0.00     0.128 C 
HETATM   19  C14 UNL     1       0.249   1.790  -3.060  1.00  0.00    -0.004 C 
HETATM   20  C15 UNL     1       1.201   0.682  -3.533  1.00  0.00     0.019 C 
HETATM   21  C16 UNL     1       0.938   3.112  -3.002  1.00  0.00    -0.003 C 
HETATM   22  C25 UNL     1      -0.720   1.983  -4.187  1.00  0.00     0.066 C 
HETATM   23  C17 UNL     1       2.100   3.267  -2.123  1.00  0.00     0.006 C 
HETATM   24  C23 UNL     1       1.258   3.330  -4.482  1.00  0.00     0.006 C 
HETATM   25  C18 UNL     1       1.656   3.627  -0.742  1.00  0.00     0.005 C 
HETATM   26  C24 UNL     1      -0.117   3.096  -5.067  1.00  0.00     0.013 C 
HETATM   27  C20 UNL     1       3.281   1.960   0.176  1.00  0.00     0.041 C 
HETATM   28  C21 UNL     1       3.563   1.448   1.610  1.00  0.00     0.149 C 
BRANCH  18  29
HETATM   29  O3  UNL     1      -1.419   0.416  -2.023  1.00  0.00    -0.395 OA
ATOM     30  H3  UNL     1      -1.882   0.650  -2.819  1.00  0.00     0.210 HD
ENDBRANCH  18  29
BRANCH  22  31
HETATM   31  C26 UNL     1      -2.078   2.386  -3.844  1.00  0.00     0.128 C 
HETATM   32  C27 UNL     1      -3.337   1.852  -4.416  1.00  0.00     0.091 C 
HETATM   33  O5  UNL     1      -2.213   3.273  -2.980  1.00  0.00    -0.298 OA
ENDBRANCH  22  31
BRANCH  28  34
HETATM   34  O4  UNL     1       3.467   2.599   2.375  1.00  0.00    -0.391 OA
ATOM     35  H4  UNL     1       2.539   2.649   2.569  1.00  0.00     0.210 HD
ENDBRANCH  28  34
ENDBRANCH   5   6
ENDBRANCH   3   5
TORSDOF 4
ENDMDL
MODEL 4
REMARK VINA RESULT: -10.239470861      3.120      8.518
REMARK  5 active torsions:
REMARK  status: ('A' for Active; 'I' for Inactive)
REMARK    1  A    between atoms: C2_3  and  C3_5 
REMARK    2  A    between atoms: C3_5  and  C4_6 
REMARK    3  A    between atoms: C13_16  and  O3_17 
REMARK    4  A    between atoms: C21_26  and  O4_27 
REMARK    5  A    between atoms: C25_32  and  C26_33 
ROOT
HETATM    1  C1  UNL     1       2.754   4.899  -6.268  1.00  0.00     0.232 C 
HETATM    2  N1  UNL     1       1.520   4.415  -6.489  1.00  0.00    -0.395 NA
HETATM    3  C2  UNL     1       0.230   3.910  -6.721  1.00  0.00     0.293 C 
HETATM    4  O1  UNL     1      -0.239   3.773  -7.861  1.00  0.00    -0.257 OA
ENDROOT
BRANCH   3   5
HETATM    5  C3  UNL     1      -0.571   3.530  -5.529  1.00  0.00     0.147 C 
BRANCH   5   6
HETATM    6  C4  UNL     1       0.059   2.945  -4.339  1.00  0.00    -0.001 C 
HETATM    7  C5  UNL     1      -0.605   2.768  -3.080  1.00  0.00     0.012 C 
HETATM    8  C6  UNL     1      -1.782   1.911  -3.001  1.00  0.00     0.159 C 
HETATM    9  C22 UNL     1       0.264   2.502  -1.865  1.00  0.00    -0.029 C 
HETATM   10  O2  UNL     1      -2.947   2.334  -3.119  1.00  0.00    -0.292 OA
HETATM   11  C7  UNL     1      -1.596   0.441  -2.757  1.00  0.00     0.085 C 
HETATM   12  C8  UNL     1      -0.773   0.365  -1.490  1.00  0.00     0.022 C 
HETATM   13  C9  UNL     1       0.592   1.055  -1.640  1.00  0.00    -0.013 C 
HETATM   14  C10 UNL     1       1.371   0.399  -2.737  1.00  0.00     0.021 C 
HETATM   15  C11 UNL     1       1.394   0.835  -0.374  1.00  0.00     0.004 C 
HETATM   16  C12 UNL     1       0.605   0.627   0.877  1.00  0.00     0.038 C 
HETATM   17  C19 UNL     1       2.475   1.858  -0.272  1.00  0.00    -0.007 C 
HETATM   18  C13 UNL     1       1.253  -0.404   1.815  1.00  0.00     0.128 C 
HETATM   19  C14 UNL     1       1.718   0.218   3.090  1.00  0.00    -0.004 C 
HETATM   20  C15 UNL     1       0.600   1.160   3.558  1.00  0.00     0.019 C 
HETATM   21  C16 UNL     1       3.032   0.922   3.023  1.00  0.00    -0.003 C 
HETATM   22  C25 UNL     1       1.926  -0.739   4.225  1.00  0.00     0.066 C 
HETATM   23  C17 UNL     1       3.171   2.079   2.134  1.00  0.00     0.006 C 
HETATM   24  C23 UNL     1       3.249   1.257   4.501  1.00  0.00     0.006 C 
HETATM   25  C18 UNL     1       3.532   1.627   0.757  1.00  0.00     0.005 C 
HETATM   26  C24 UNL     1       3.033  -0.115   5.097  1.00  0.00     0.013 C 
HETATM   27  C20 UNL     1       1.843   3.224  -0.172  1.00  0.00     0.041 C 
HETATM   28  C21 UNL     1       1.325   3.488  -1.606  1.00  0.00     0.149 C 
BRANCH  18  29
HETATM   29  O3  UNL     1       0.362  -1.476   2.071  1.00  0.00    -0.395 OA
ATOM     30  H3  UNL     1      -0.051  -1.768   1.266  1.00  0.00     0.210 HD
ENDBRANCH  18  29
BRANCH  22  31
HETATM   31  C26 UNL     1       2.344  -2.095   3.893  1.00  0.00     0.128 C 
HETATM   32  C27 UNL     1       1.834  -3.355   4.484  1.00  0.00     0.091 C 
HETATM   33  O5  UNL     1       3.224  -2.226   3.021  1.00  0.00    -0.298 OA
ENDBRANCH  22  31
BRANCH  28  34
HETATM   34  O4  UNL     1       2.475   3.400  -2.373  1.00  0.00    -0.391 OA
ATOM     35  H4  UNL     1       3.025   4.084  -2.011  1.00  0.00     0.210 HD
ENDBRANCH  28  34
ENDBRANCH   5   6
ENDBRANCH   3   5
TORSDOF 4
ENDMDL
MODEL 5
REMARK VINA RESULT: -10.113242746      3.118      8.537
REMARK  5 active torsions:
REMARK  status: ('A' for Active; 'I' for Inactive)
REMARK    1  A    between atoms: C2_3  and  C3_5 
REMARK    2  A    between atoms: C3_5  and  C4_6 
REMARK    3  A    between atoms: C13_16  and  O3_17 
REMARK    4  A    between atoms: C21_26  and  O4_27 
REMARK    5  A    between atoms: C25_32  and  C26_33 
ROOT
HETATM    1  C1  UNL     1      -1.286   4.622  -8.057  1.00  0.00     0.232 C 
HETATM    2  N1  UNL     1      -0.823   3.879  -7.037  1.00  0.00    -0.395 NA
HETATM    3  C2  UNL     1      -0.339   3.104  -5.971  1.00  0.00     0.293 C 
HETATM    4  O1  UNL     1      -0.536   1.882  -5.890  1.00  0.00    -0.257 OA
ENDROOT
BRANCH   3   5
HETATM    5  C3  UNL     1       0.440   3.809  -4.921  1.00  0.00     0.147 C 
BRANCH   5   6
HETATM    6  C4  UNL     1       0.904   3.111  -3.716  1.00  0.00    -0.001 C 
HETATM    7  C5  UNL     1       0.116   2.941  -2.529  1.00  0.00     0.012 C 
HETATM    8  C6  UNL     1      -1.138   2.199  -2.597  1.00  0.00     0.159 C 
HETATM    9  C22 UNL     1       0.844   2.536  -1.261  1.00  0.00    -0.029 C 
HETATM   10  O2  UNL     1      -2.243   2.737  -2.791  1.00  0.00    -0.292 OA
HETATM   11  C7  UNL     1      -1.110   0.708  -2.418  1.00  0.00     0.085 C 
HETATM   12  C8  UNL     1      -0.414   0.495  -1.092  1.00  0.00     0.022 C 
HETATM   13  C9  UNL     1       1.016   1.056  -1.087  1.00  0.00    -0.013 C 
HETATM   14  C10 UNL     1       1.826   0.379  -2.149  1.00  0.00     0.021 C 
HETATM   15  C11 UNL     1       1.677   0.702   0.228  1.00  0.00     0.004 C 
HETATM   16  C12 UNL     1       0.763   0.513   1.394  1.00  0.00     0.038 C 
HETATM   17  C19 UNL     1       2.834   1.610   0.477  1.00  0.00    -0.007 C 
HETATM   18  C13 UNL     1       1.226  -0.618   2.327  1.00  0.00     0.128 C 
HETATM   19  C14 UNL     1       1.631  -0.104   3.669  1.00  0.00    -0.004 C 
HETATM   20  C15 UNL     1       0.566   0.920   4.090  1.00  0.00     0.019 C 
HETATM   21  C16 UNL     1       3.004   0.474   3.752  1.00  0.00    -0.003 C 
HETATM   22  C25 UNL     1       1.647  -1.127   4.763  1.00  0.00     0.066 C 
HETATM   23  C17 UNL     1       3.328   1.651   2.943  1.00  0.00     0.006 C 
HETATM   24  C23 UNL     1       3.117   0.718   5.258  1.00  0.00     0.006 C 
HETATM   25  C18 UNL     1       3.769   1.231   1.578  1.00  0.00     0.005 C 
HETATM   26  C24 UNL     1       2.723  -0.653   5.759  1.00  0.00     0.013 C 
HETATM   27  C20 UNL     1       2.324   3.024   0.597  1.00  0.00     0.041 C 
HETATM   28  C21 UNL     1       1.963   3.403  -0.859  1.00  0.00     0.149 C 
BRANCH  18  29
HETATM   29  O3  UNL     1       0.222  -1.609   2.447  1.00  0.00    -0.395 OA
ATOM     30  H3  UNL     1       0.601  -2.479   2.390  1.00  0.00     0.210 HD
ENDBRANCH  18  29
BRANCH  22  31
HETATM   31  C26 UNL     1       1.966  -2.501   4.395  1.00  0.00     0.128 C 
HETATM   32  C27 UNL     1       1.292  -3.732   4.871  1.00  0.00     0.091 C 
HETATM   33  O5  UNL     1       2.905  -2.676   3.595  1.00  0.00    -0.298 OA
ENDBRANCH  22  31
BRANCH  28  34
HETATM   34  O4  UNL     1       3.165   3.239  -1.529  1.00  0.00    -0.391 OA
ATOM     35  H4  UNL     1       3.506   2.433  -1.161  1.00  0.00     0.210 HD
ENDBRANCH  28  34
ENDBRANCH   5   6
ENDBRANCH   3   5
TORSDOF 4
ENDMDL
