MODEL 1
REMARK VINA RESULT: -5.479544879      0.000      0.000
REMARK  3 active torsions:
REMARK  status: ('A' for Active; 'I' for Inactive)
REMARK    1  A    between atoms: O1_1  and  C1_3 
REMARK    2  A    between atoms: C1_3  and  C2_4 
REMARK    3  A    between atoms: C2_4  and  N1_5 
ROOT
HETATM    1  N1  UNL     1      35.812  40.894  -3.882  1.00  0.00     0.109 N 
HETATM    2  C3  UNL     1      35.745  39.693  -3.061  1.00  0.00     0.224 C 
HETATM    3  C4  UNL     1      35.895  39.997  -1.595  1.00  0.00     0.036 C 
HETATM    4  C5  UNL     1      35.077  41.161  -1.126  1.00  0.00     0.003 C 
HETATM    5  C6  UNL     1      36.025  42.188  -0.535  1.00  0.00     0.010 C 
HETATM    6  C7  UNL     1      36.384  43.124  -1.694  1.00  0.00     0.076 C 
HETATM    7  S1  UNL     1      37.711  42.439  -2.667  1.00  0.00    -0.134 SA
HETATM    8  C8  UNL     1      37.240  41.224  -3.867  1.00  0.00     0.284 C 
HETATM    9  C9  UNL     1      37.986  39.925  -3.682  1.00  0.00     0.049 C 
HETATM   10  C10 UNL     1      36.941  38.852  -3.467  1.00  0.00     0.038 C 
ENDROOT
BRANCH   1  11
HETATM   11  C2  UNL     1      35.510  40.535  -5.246  1.00  0.00     0.300 C 
BRANCH  11  12
HETATM   12  C1  UNL     1      34.952  41.651  -6.078  1.00  0.00     0.194 C 
BRANCH  12  13
HETATM   13  O1  UNL     1      35.821  41.757  -7.193  1.00  0.00    -0.399 OA
ATOM     14  H1  UNL     1      35.285  42.103  -7.897  1.00  0.00     0.209 HD
ENDBRANCH  12  13
ENDBRANCH  11  12
ENDBRANCH   1  11
TORSDOF 3
ENDMDL
MODEL 2
REMARK VINA RESULT: -5.326989153      1.513      1.660
REMARK  3 active torsions:
REMARK  status: ('A' for Active; 'I' for Inactive)
REMARK    1  A    between atoms: O1_1  and  C1_3 
REMARK    2  A    between atoms: C1_3  and  C2_4 
REMARK    3  A    between atoms: C2_4  and  N1_5 
ROOT
HETATM    1  N1  UNL     1      35.737  39.635  -3.412  1.00  0.00     0.109 N 
HETATM    2  C3  UNL     1      35.759  39.110  -2.054  1.00  0.00     0.224 C 
HETATM    3  C4  UNL     1      36.073  40.175  -1.038  1.00  0.00     0.036 C 
HETATM    4  C5  UNL     1      35.316  41.452  -1.238  1.00  0.00     0.003 C 
HETATM    5  C6  UNL     1      36.326  42.569  -1.421  1.00  0.00     0.010 C 
HETATM    6  C7  UNL     1      36.557  42.666  -2.933  1.00  0.00     0.076 C 
HETATM    7  S1  UNL     1      37.764  41.467  -3.463  1.00  0.00    -0.134 SA
HETATM    8  C8  UNL     1      37.159  39.822  -3.716  1.00  0.00     0.284 C 
HETATM    9  C9  UNL     1      37.918  38.806  -2.897  1.00  0.00     0.049 C 
HETATM   10  C10 UNL     1      36.900  38.110  -2.019  1.00  0.00     0.038 C 
ENDROOT
BRANCH   1  11
HETATM   11  C2  UNL     1      35.284  38.591  -4.299  1.00  0.00     0.300 C 
BRANCH  11  12
HETATM   12  C1  UNL     1      35.335  38.943  -5.757  1.00  0.00     0.194 C 
BRANCH  12  13
HETATM   13  O1  UNL     1      34.110  39.603  -6.025  1.00  0.00    -0.399 OA
ATOM     14  H1  UNL     1      33.433  38.987  -5.773  1.00  0.00     0.209 HD
ENDBRANCH  12  13
ENDBRANCH  11  12
ENDBRANCH   1  11
TORSDOF 3
ENDMDL
MODEL 3
REMARK VINA RESULT: -5.282574838      1.473      3.230
REMARK  3 active torsions:
REMARK  status: ('A' for Active; 'I' for Inactive)
REMARK    1  A    between atoms: O1_1  and  C1_3 
REMARK    2  A    between atoms: C1_3  and  C2_4 
REMARK    3  A    between atoms: C2_4  and  N1_5 
ROOT
HETATM    1  N1  UNL     1      36.227  40.901  -4.128  1.00  0.00     0.109 N 
HETATM    2  C3  UNL     1      37.489  41.569  -3.842  1.00  0.00     0.224 C 
HETATM    3  C4  UNL     1      38.456  40.671  -3.119  1.00  0.00     0.036 C 
HETATM    4  C5  UNL     1      38.557  39.292  -3.695  1.00  0.00     0.003 C 
HETATM    5  C6  UNL     1      38.189  38.303  -2.605  1.00  0.00     0.010 C 
HETATM    6  C7  UNL     1      36.682  38.073  -2.756  1.00  0.00     0.076 C 
HETATM    7  S1  UNL     1      35.764  39.354  -1.924  1.00  0.00    -0.134 SA
HETATM    8  C8  UNL     1      35.567  40.869  -2.820  1.00  0.00     0.284 C 
HETATM    9  C9  UNL     1      36.078  42.058  -2.044  1.00  0.00     0.049 C 
HETATM   10  C10 UNL     1      37.145  42.707  -2.898  1.00  0.00     0.038 C 
ENDROOT
BRANCH   1  11
HETATM   11  C2  UNL     1      35.423  41.774  -4.949  1.00  0.00     0.300 C 
BRANCH  11  12
HETATM   12  C1  UNL     1      34.999  41.183  -6.261  1.00  0.00     0.194 C 
BRANCH  12  13
HETATM   13  O1  UNL     1      35.825  41.801  -7.234  1.00  0.00    -0.399 OA
ATOM     14  H1  UNL     1      36.157  41.090  -7.769  1.00  0.00     0.209 HD
ENDBRANCH  12  13
ENDBRANCH  11  12
ENDBRANCH   1  11
TORSDOF 3
ENDMDL
MODEL 4
REMARK VINA RESULT: -4.709686970      2.559      4.386
REMARK  3 active torsions:
REMARK  status: ('A' for Active; 'I' for Inactive)
REMARK    1  A    between atoms: O1_1  and  C1_3 
REMARK    2  A    between atoms: C1_3  and  C2_4 
REMARK    3  A    between atoms: C2_4  and  N1_5 
ROOT
HETATM    1  N1  UNL     1      37.403  39.528  -3.986  1.00  0.00     0.109 N 
HETATM    2  C3  UNL     1      38.018  38.458  -3.214  1.00  0.00     0.224 C 
HETATM    3  C4  UNL     1      37.773  37.105  -3.823  1.00  0.00     0.036 C 
HETATM    4  C5  UNL     1      37.986  37.053  -5.304  1.00  0.00     0.003 C 
HETATM    5  C6  UNL     1      36.687  36.602  -5.946  1.00  0.00     0.010 C 
HETATM    6  C7  UNL     1      35.924  37.890  -6.271  1.00  0.00     0.076 C 
HETATM    7  S1  UNL     1      35.032  38.470  -4.841  1.00  0.00    -0.134 SA
HETATM    8  C8  UNL     1      35.980  39.392  -3.662  1.00  0.00     0.284 C 
HETATM    9  C9  UNL     1      35.903  38.793  -2.279  1.00  0.00     0.049 C 
HETATM   10  C10 UNL     1      37.323  38.474  -1.865  1.00  0.00     0.038 C 
ENDROOT
BRANCH   1  11
HETATM   11  C2  UNL     1      37.811  40.793  -3.424  1.00  0.00     0.300 C 
BRANCH  11  12
HETATM   12  C1  UNL     1      36.972  41.964  -3.843  1.00  0.00     0.194 C 
BRANCH  12  13
HETATM   13  O1  UNL     1      37.639  42.520  -4.964  1.00  0.00    -0.399 OA
ATOM     14  H1  UNL     1      38.559  42.325  -4.829  1.00  0.00     0.209 HD
ENDBRANCH  12  13
ENDBRANCH  11  12
ENDBRANCH   1  11
TORSDOF 3
ENDMDL
MODEL 5
REMARK VINA RESULT: -4.693699060      2.450      4.093
REMARK  3 active torsions:
REMARK  status: ('A' for Active; 'I' for Inactive)
REMARK    1  A    between atoms: O1_1  and  C1_3 
REMARK    2  A    between atoms: C1_3  and  C2_4 
REMARK    3  A    between atoms: C2_4  and  N1_5 
ROOT
HETATM    1  N1  UNL     1      37.608  39.810  -3.222  1.00  0.00     0.109 N 
HETATM    2  C3  UNL     1      37.396  39.170  -1.932  1.00  0.00     0.224 C 
HETATM    3  C4  UNL     1      37.889  37.749  -1.915  1.00  0.00     0.036 C 
HETATM    4  C5  UNL     1      39.244  37.564  -2.526  1.00  0.00     0.003 C 
HETATM    5  C6  UNL     1      39.109  36.575  -3.668  1.00  0.00     0.010 C 
HETATM    6  C7  UNL     1      38.848  37.426  -4.915  1.00  0.00     0.076 C 
HETATM    7  S1  UNL     1      37.119  37.835  -5.047  1.00  0.00    -0.134 SA
HETATM    8  C8  UNL     1      36.573  39.205  -4.065  1.00  0.00     0.284 C 
HETATM    9  C9  UNL     1      35.432  38.829  -3.151  1.00  0.00     0.049 C 
HETATM   10  C10 UNL     1      35.891  39.124  -1.740  1.00  0.00     0.038 C 
ENDROOT
BRANCH   1  11
HETATM   11  C2  UNL     1      37.251  41.204  -3.107  1.00  0.00     0.300 C 
BRANCH  11  12
HETATM   12  C1  UNL     1      36.687  41.810  -4.358  1.00  0.00     0.194 C 
BRANCH  12  13
HETATM   13  O1  UNL     1      37.743  42.576  -4.912  1.00  0.00    -0.399 OA
ATOM     14  H1  UNL     1      37.480  43.482  -4.802  1.00  0.00     0.209 HD
ENDBRANCH  12  13
ENDBRANCH  11  12
ENDBRANCH   1  11
TORSDOF 3
ENDMDL
