MODEL 1
REMARK VINA RESULT: -5.250758353      0.000      0.000
REMARK  2 active torsions:
REMARK  status: ('A' for Active; 'I' for Inactive)
REMARK    1  A    between atoms: C2_2  and  S1_3 
REMARK    2  A    between atoms: S1_3  and  C3_4 
ROOT
HETATM    1  C3  UNL     1      36.781  39.013  -4.011  1.00  0.00     0.071 C 
HETATM    2  C4  UNL     1      35.663  38.803  -3.035  1.00  0.00     0.183 C 
HETATM    3  O1  UNL     1      35.222  39.961  -2.426  1.00  0.00    -0.384 OA
HETATM    4  C5  UNL     1      36.234  40.576  -1.674  1.00  0.00     0.128 C 
HETATM    5  C6  UNL     1      35.600  41.700  -0.922  1.00  0.00     0.051 C 
HETATM    6  C7  UNL     1      36.134  43.057  -1.194  1.00  0.00     0.116 C 
HETATM    7  N1  UNL     1      36.492  43.345  -2.546  1.00  0.00    -0.421 N 
ATOM      8  H1  UNL     1      36.722  44.287  -2.863  1.00  0.00     0.153 HD
HETATM    9  C8  UNL     1      36.504  42.209  -3.425  1.00  0.00     0.120 C 
HETATM   10  C9  UNL     1      37.224  41.100  -2.669  1.00  0.00     0.033 C 
HETATM   11  C10 UNL     1      37.761  40.072  -3.610  1.00  0.00     0.026 C 
ENDROOT
BRANCH   1  12
HETATM   12  S1  UNL     1      37.715  37.449  -4.103  1.00  0.00    -0.163 SA
BRANCH  12  13
HETATM   13  C2  UNL     1      38.983  37.339  -2.831  1.00  0.00     0.070 C 
HETATM   14  C1  UNL     1      38.402  37.018  -1.462  1.00  0.00     0.016 C 
ENDBRANCH  12  13
ENDBRANCH   1  12
TORSDOF 2
ENDMDL
MODEL 2
REMARK VINA RESULT: -5.127171027      2.912      4.984
REMARK  2 active torsions:
REMARK  status: ('A' for Active; 'I' for Inactive)
REMARK    1  A    between atoms: C2_2  and  S1_3 
REMARK    2  A    between atoms: S1_3  and  C3_4 
ROOT
HETATM    1  C3  UNL     1      35.909  41.093  -2.687  1.00  0.00     0.071 C 
HETATM    2  C4  UNL     1      37.267  41.281  -3.293  1.00  0.00     0.183 C 
HETATM    3  O1  UNL     1      37.627  40.290  -4.185  1.00  0.00    -0.384 OA
HETATM    4  C5  UNL     1      37.686  39.030  -3.573  1.00  0.00     0.128 C 
HETATM    5  C6  UNL     1      38.258  38.081  -4.576  1.00  0.00     0.051 C 
HETATM    6  C7  UNL     1      37.403  36.930  -4.954  1.00  0.00     0.116 C 
HETATM    7  N1  UNL     1      36.003  37.184  -5.076  1.00  0.00    -0.421 N 
ATOM      8  H1  UNL     1      35.355  36.506  -5.476  1.00  0.00     0.153 HD
HETATM    9  C8  UNL     1      35.576  38.468  -4.592  1.00  0.00     0.120 C 
HETATM   10  C9  UNL     1      36.269  38.663  -3.250  1.00  0.00     0.033 C 
HETATM   11  C10 UNL     1      35.545  39.667  -2.414  1.00  0.00     0.026 C 
ENDROOT
BRANCH   1  12
HETATM   12  S1  UNL     1      35.918  41.944  -1.074  1.00  0.00    -0.163 SA
BRANCH  12  13
HETATM   13  C2  UNL     1      37.337  43.034  -0.887  1.00  0.00     0.070 C 
HETATM   14  C1  UNL     1      37.022  44.467  -1.291  1.00  0.00     0.016 C 
ENDBRANCH  12  13
ENDBRANCH   1  12
TORSDOF 2
ENDMDL
MODEL 3
REMARK VINA RESULT: -5.038404720      1.500      2.068
REMARK  2 active torsions:
REMARK  status: ('A' for Active; 'I' for Inactive)
REMARK    1  A    between atoms: C2_2  and  S1_3 
REMARK    2  A    between atoms: S1_3  and  C3_4 
ROOT
HETATM    1  C3  UNL     1      36.471  39.341  -4.188  1.00  0.00     0.071 C 
HETATM    2  C4  UNL     1      35.435  39.146  -3.122  1.00  0.00     0.183 C 
HETATM    3  O1  UNL     1      35.209  40.264  -2.345  1.00  0.00    -0.384 OA
HETATM    4  C5  UNL     1      36.360  40.660  -1.648  1.00  0.00     0.128 C 
HETATM    5  C6  UNL     1      35.954  41.750  -0.711  1.00  0.00     0.051 C 
HETATM    6  C7  UNL     1      36.629  43.058  -0.891  1.00  0.00     0.116 C 
HETATM    7  N1  UNL     1      36.888  43.465  -2.235  1.00  0.00    -0.421 N 
ATOM      8  H1  UNL     1      37.206  44.405  -2.472  1.00  0.00     0.153 HD
HETATM    9  C8  UNL     1      36.668  42.451  -3.229  1.00  0.00     0.120 C 
HETATM   10  C9  UNL     1      37.309  41.182  -2.684  1.00  0.00     0.033 C 
HETATM   11  C10 UNL     1      37.614  40.221  -3.786  1.00  0.00     0.026 C 
ENDROOT
BRANCH   1  12
HETATM   12  S1  UNL     1      37.182  37.702  -4.554  1.00  0.00    -0.163 SA
BRANCH  12  13
HETATM   13  C2  UNL     1      36.429  36.941  -6.000  1.00  0.00     0.070 C 
HETATM   14  C1  UNL     1      35.428  37.863  -6.682  1.00  0.00     0.016 C 
ENDBRANCH  12  13
ENDBRANCH   1  12
TORSDOF 2
ENDMDL
MODEL 4
REMARK VINA RESULT: -4.897292173      6.647      7.955
REMARK  2 active torsions:
REMARK  status: ('A' for Active; 'I' for Inactive)
REMARK    1  A    between atoms: C2_2  and  S1_3 
REMARK    2  A    between atoms: S1_3  and  C3_4 
ROOT
HETATM    1  C3  UNL     1      32.417  40.957  -9.659  1.00  0.00     0.071 C 
HETATM    2  C4  UNL     1      32.666  39.580  -9.122  1.00  0.00     0.183 C 
HETATM    3  O1  UNL     1      33.227  39.560  -7.860  1.00  0.00    -0.384 OA
HETATM    4  C5  UNL     1      34.485  40.179  -7.836  1.00  0.00     0.128 C 
HETATM    5  C6  UNL     1      35.069  39.937  -6.483  1.00  0.00     0.051 C 
HETATM    6  C7  UNL     1      35.390  41.141  -5.680  1.00  0.00     0.116 C 
HETATM    7  N1  UNL     1      34.476  42.233  -5.769  1.00  0.00    -0.421 N 
ATOM      8  H1  UNL     1      34.522  43.040  -5.146  1.00  0.00     0.153 HD
HETATM    9  C8  UNL     1      33.484  42.111  -6.802  1.00  0.00     0.120 C 
HETATM   10  C9  UNL     1      34.228  41.641  -8.045  1.00  0.00     0.033 C 
HETATM   11  C10 UNL     1      33.459  41.965  -9.284  1.00  0.00     0.026 C 
ENDROOT
BRANCH   1  12
HETATM   12  S1  UNL     1      32.443  40.838 -11.478  1.00  0.00    -0.163 SA
BRANCH  12  13
HETATM   13  C2  UNL     1      31.658  42.253 -12.264  1.00  0.00     0.070 C 
HETATM   14  C1  UNL     1      32.667  43.307 -12.696  1.00  0.00     0.016 C 
ENDBRANCH  12  13
ENDBRANCH   1  12
TORSDOF 2
ENDMDL
MODEL 5
REMARK VINA RESULT: -4.821260072      7.770      9.270
REMARK  2 active torsions:
REMARK  status: ('A' for Active; 'I' for Inactive)
REMARK    1  A    between atoms: C2_2  and  S1_3 
REMARK    2  A    between atoms: S1_3  and  C3_4 
ROOT
HETATM    1  C3  UNL     1      32.849  41.877 -11.100  1.00  0.00     0.071 C 
HETATM    2  C4  UNL     1      33.471  42.860 -10.154  1.00  0.00     0.183 C 
HETATM    3  O1  UNL     1      34.087  42.279  -9.063  1.00  0.00    -0.384 OA
HETATM    4  C5  UNL     1      33.181  41.557  -8.273  1.00  0.00     0.128 C 
HETATM    5  C6  UNL     1      33.911  41.134  -7.041  1.00  0.00     0.051 C 
HETATM    6  C7  UNL     1      33.999  39.675  -6.795  1.00  0.00     0.116 C 
HETATM    7  N1  UNL     1      34.191  38.843  -7.939  1.00  0.00    -0.421 N 
ATOM      8  H1  UNL     1      34.416  37.851  -7.865  1.00  0.00     0.153 HD
HETATM    9  C8  UNL     1      34.045  39.509  -9.204  1.00  0.00     0.120 C 
HETATM   10  C9  UNL     1      32.788  40.361  -9.088  1.00  0.00     0.033 C 
HETATM   11  C10 UNL     1      32.233  40.685 -10.436  1.00  0.00     0.026 C 
ENDROOT
BRANCH   1  12
HETATM   12  S1  UNL     1      31.498  42.745 -11.965  1.00  0.00    -0.163 SA
BRANCH  12  13
HETATM   13  C2  UNL     1      31.675  44.533 -11.882  1.00  0.00     0.070 C 
HETATM   14  C1  UNL     1      32.820  45.041 -12.746  1.00  0.00     0.016 C 
ENDBRANCH  12  13
ENDBRANCH   1  12
TORSDOF 2
ENDMDL
