MODEL 1
REMARK VINA RESULT: -7.462560562      0.000      0.000
REMARK  5 active torsions:
REMARK  status: ('A' for Active; 'I' for Inactive)
REMARK    1  A    between atoms: N1_1  and  N2_4 
REMARK       I    between atoms: N2_4  and  C1_6 
REMARK       I    between atoms: C1_6  and  N4_8 
REMARK    2  A    between atoms: N4_8  and  C2_10 
REMARK    3  A    between atoms: C2_10  and  C3_11 
REMARK    4  A    between atoms: C3_11  and  N5_12 
REMARK    5  A    between atoms: N6_14  and  O1_15 
ROOT
HETATM    1  N2  UNL     1      17.994  42.710  18.864  1.00  0.00    -0.280 N 
ATOM      2  H2  UNL     1      17.946  43.716  18.703  1.00  0.00     0.189 HD
HETATM    3  C1  UNL     1      19.102  42.124  18.576  1.00  0.00     0.202 C 
HETATM    4  N3  UNL     1      19.341  40.744  18.735  1.00  0.00    -0.062 NA
HETATM    5  N4  UNL     1      20.137  42.949  18.062  1.00  0.00    -0.362 N 
ATOM      6  H4  UNL     1      20.676  42.617  17.262  1.00  0.00     0.162 HD
ENDROOT
BRANCH   5   7
HETATM    7  C2  UNL     1      20.458  44.236  18.627  1.00  0.00     0.144 C 
BRANCH   7   8
HETATM    8  C3  UNL     1      21.654  44.770  17.866  1.00  0.00     0.168 C 
BRANCH   8   9
HETATM    9  N5  UNL     1      22.278  45.786  18.670  1.00  0.00    -0.258 N 
HETATM   10  C4  UNL     1      23.493  45.806  19.237  1.00  0.00     0.260 A 
HETATM   11  N6  UNL     1      23.674  46.960  19.909  1.00  0.00    -0.099 N 
HETATM   12  O2  UNL     1      22.571  47.616  19.741  1.00  0.00    -0.113 OA
HETATM   13  N7  UNL     1      21.730  46.949  19.015  1.00  0.00     0.053 NA
BRANCH  11  14
HETATM   14  O1  UNL     1      24.800  47.336  20.617  1.00  0.00    -0.261 OA
ATOM     15  H1  UNL     1      25.547  47.819  20.282  1.00  0.00     0.247 HD
ENDBRANCH  11  14
ENDBRANCH   8   9
ENDBRANCH   7   8
ENDBRANCH   5   7
BRANCH   1  16
HETATM   16  N1  UNL     1      16.863  42.102  19.372  1.00  0.00    -0.343 N 
ATOM     17  H12 UNL     1      16.374  41.470  18.738  1.00  0.00     0.176 HD
ATOM     18  H11 UNL     1      16.484  42.229  20.311  1.00  0.00     0.176 HD
ENDBRANCH   1  16
TORSDOF 5
ENDMDL
MODEL 2
REMARK VINA RESULT: -7.315608818      4.879      7.071
REMARK  5 active torsions:
REMARK  status: ('A' for Active; 'I' for Inactive)
REMARK    1  A    between atoms: N1_1  and  N2_4 
REMARK       I    between atoms: N2_4  and  C1_6 
REMARK       I    between atoms: C1_6  and  N4_8 
REMARK    2  A    between atoms: N4_8  and  C2_10 
REMARK    3  A    between atoms: C2_10  and  C3_11 
REMARK    4  A    between atoms: C3_11  and  N5_12 
REMARK    5  A    between atoms: N6_14  and  O1_15 
ROOT
HETATM    1  N2  UNL     1      19.319  44.612  18.741  1.00  0.00    -0.280 N 
ATOM      2  H2  UNL     1      18.457  44.606  19.287  1.00  0.00     0.189 HD
HETATM    3  C1  UNL     1      19.861  43.472  18.492  1.00  0.00     0.202 C 
HETATM    4  N3  UNL     1      21.050  43.297  17.755  1.00  0.00    -0.062 NA
HETATM    5  N4  UNL     1      19.196  42.330  19.010  1.00  0.00    -0.362 N 
ATOM      6  H4  UNL     1      19.751  41.601  19.457  1.00  0.00     0.162 HD
ENDROOT
BRANCH   5   7
HETATM    7  C2  UNL     1      17.766  42.160  18.930  1.00  0.00     0.144 C 
BRANCH   7   8
HETATM    8  C3  UNL     1      17.513  40.860  18.194  1.00  0.00     0.168 C 
BRANCH   8   9
HETATM    9  N5  UNL     1      16.806  41.164  16.979  1.00  0.00    -0.258 N 
HETATM   10  C4  UNL     1      17.120  42.019  15.995  1.00  0.00     0.260 A 
HETATM   11  N6  UNL     1      16.172  41.993  15.037  1.00  0.00    -0.099 N 
HETATM   12  O2  UNL     1      15.304  41.128  15.455  1.00  0.00    -0.113 OA
HETATM   13  N7  UNL     1      15.652  40.624  16.597  1.00  0.00     0.053 NA
BRANCH  11  14
HETATM   14  O1  UNL     1      16.155  42.737  13.872  1.00  0.00    -0.261 OA
ATOM     15  H1  UNL     1      16.276  42.411  12.988  1.00  0.00     0.247 HD
ENDBRANCH  11  14
ENDBRANCH   8   9
ENDBRANCH   7   8
ENDBRANCH   5   7
BRANCH   1  16
HETATM   16  N1  UNL     1      19.796  45.843  18.335  1.00  0.00    -0.343 N 
ATOM     17  H12 UNL     1      20.780  46.026  18.533  1.00  0.00     0.176 HD
ATOM     18  H11 UNL     1      19.257  46.569  17.864  1.00  0.00     0.176 HD
ENDBRANCH   1  16
TORSDOF 5
ENDMDL
MODEL 3
REMARK VINA RESULT: -7.274623660      3.674      6.418
REMARK  5 active torsions:
REMARK  status: ('A' for Active; 'I' for Inactive)
REMARK    1  A    between atoms: N1_1  and  N2_4 
REMARK       I    between atoms: N2_4  and  C1_6 
REMARK       I    between atoms: C1_6  and  N4_8 
REMARK    2  A    between atoms: N4_8  and  C2_10 
REMARK    3  A    between atoms: C2_10  and  C3_11 
REMARK    4  A    between atoms: C3_11  and  N5_12 
REMARK    5  A    between atoms: N6_14  and  O1_15 
ROOT
HETATM    1  N2  UNL     1      21.649  47.009  19.040  1.00  0.00    -0.280 N 
ATOM      2  H2  UNL     1      20.645  46.968  19.214  1.00  0.00     0.189 HD
HETATM    3  C1  UNL     1      22.289  45.893  19.049  1.00  0.00     0.202 C 
HETATM    4  N3  UNL     1      23.676  45.766  18.829  1.00  0.00    -0.062 NA
HETATM    5  N4  UNL     1      21.521  44.727  19.301  1.00  0.00    -0.362 N 
ATOM      6  H4  UNL     1      21.891  44.028  19.946  1.00  0.00     0.162 HD
ENDROOT
BRANCH   5   7
HETATM    7  C2  UNL     1      20.240  44.490  18.684  1.00  0.00     0.144 C 
BRANCH   7   8
HETATM    8  C3  UNL     1      20.383  43.253  17.822  1.00  0.00     0.168 C 
BRANCH   8   9
HETATM    9  N5  UNL     1      19.363  42.316  18.211  1.00  0.00    -0.258 N 
HETATM   10  C4  UNL     1      18.062  42.522  18.465  1.00  0.00     0.260 A 
HETATM   11  N6  UNL     1      17.465  41.360  18.799  1.00  0.00    -0.099 N 
HETATM   12  O2  UNL     1      18.409  40.476  18.743  1.00  0.00    -0.113 OA
HETATM   13  N7  UNL     1      19.538  41.011  18.399  1.00  0.00     0.053 NA
BRANCH  11  14
HETATM   14  O1  UNL     1      16.135  41.180  19.127  1.00  0.00    -0.261 OA
ATOM     15  H1  UNL     1      15.779  41.029  19.995  1.00  0.00     0.247 HD
ENDBRANCH  11  14
ENDBRANCH   8   9
ENDBRANCH   7   8
ENDBRANCH   5   7
BRANCH   1  16
HETATM   16  N1  UNL     1      22.197  48.257  18.817  1.00  0.00    -0.343 N 
ATOM     17  H12 UNL     1      21.583  49.052  18.994  1.00  0.00     0.176 HD
ATOM     18  H11 UNL     1      23.147  48.445  18.496  1.00  0.00     0.176 HD
ENDBRANCH   1  16
TORSDOF 5
ENDMDL
MODEL 4
REMARK VINA RESULT: -7.192609439      3.867      6.413
REMARK  5 active torsions:
REMARK  status: ('A' for Active; 'I' for Inactive)
REMARK    1  A    between atoms: N1_1  and  N2_4 
REMARK       I    between atoms: N2_4  and  C1_6 
REMARK       I    between atoms: C1_6  and  N4_8 
REMARK    2  A    between atoms: N4_8  and  C2_10 
REMARK    3  A    between atoms: C2_10  and  C3_11 
REMARK    4  A    between atoms: C3_11  and  N5_12 
REMARK    5  A    between atoms: N6_14  and  O1_15 
ROOT
HETATM    1  N2  UNL     1      21.571  46.552  19.290  1.00  0.00    -0.280 N 
ATOM      2  H2  UNL     1      20.658  46.537  19.745  1.00  0.00     0.189 HD
HETATM    3  C1  UNL     1      22.051  45.422  18.907  1.00  0.00     0.202 C 
HETATM    4  N3  UNL     1      23.296  45.259  18.264  1.00  0.00    -0.062 NA
HETATM    5  N4  UNL     1      21.253  44.277  19.164  1.00  0.00    -0.362 N 
ATOM      6  H4  UNL     1      21.703  43.439  19.533  1.00  0.00     0.162 HD
ENDROOT
BRANCH   5   7
HETATM    7  C2  UNL     1      19.831  44.250  18.925  1.00  0.00     0.144 C 
BRANCH   7   8
HETATM    8  C3  UNL     1      19.565  43.121  17.951  1.00  0.00     0.168 C 
BRANCH   8   9
HETATM    9  N5  UNL     1      18.612  42.227  18.552  1.00  0.00    -0.258 N 
HETATM   10  C4  UNL     1      18.815  41.096  19.243  1.00  0.00     0.260 A 
HETATM   11  N6  UNL     1      17.636  40.568  19.628  1.00  0.00    -0.099 N 
HETATM   12  O2  UNL     1      16.743  41.384  19.166  1.00  0.00    -0.113 OA
HETATM   13  N7  UNL     1      17.289  42.371  18.528  1.00  0.00     0.053 NA
BRANCH  11  14
HETATM   14  O1  UNL     1      17.448  39.408  20.355  1.00  0.00    -0.261 OA
ATOM     15  H1  UNL     1      18.125  38.852  20.722  1.00  0.00     0.247 HD
ENDBRANCH  11  14
ENDBRANCH   8   9
ENDBRANCH   7   8
ENDBRANCH   5   7
BRANCH   1  16
HETATM   16  N1  UNL     1      22.178  47.783  19.141  1.00  0.00    -0.343 N 
ATOM     17  H12 UNL     1      23.149  47.767  18.830  1.00  0.00     0.176 HD
ATOM     18  H11 UNL     1      21.743  48.690  19.313  1.00  0.00     0.176 HD
ENDBRANCH   1  16
TORSDOF 5
ENDMDL
MODEL 5
REMARK VINA RESULT: -7.190062709      1.045      1.394
REMARK  5 active torsions:
REMARK  status: ('A' for Active; 'I' for Inactive)
REMARK    1  A    between atoms: N1_1  and  N2_4 
REMARK       I    between atoms: N2_4  and  C1_6 
REMARK       I    between atoms: C1_6  and  N4_8 
REMARK    2  A    between atoms: N4_8  and  C2_10 
REMARK    3  A    between atoms: C2_10  and  C3_11 
REMARK    4  A    between atoms: C3_11  and  N5_12 
REMARK    5  A    between atoms: N6_14  and  O1_15 
ROOT
HETATM    1  N2  UNL     1      18.245  42.894  18.740  1.00  0.00    -0.280 N 
ATOM      2  H2  UNL     1      18.284  43.889  18.520  1.00  0.00     0.189 HD
HETATM    3  C1  UNL     1      19.292  42.195  18.474  1.00  0.00     0.202 C 
HETATM    4  N3  UNL     1      19.409  40.810  18.712  1.00  0.00    -0.062 NA
HETATM    5  N4  UNL     1      20.387  42.892  17.902  1.00  0.00    -0.362 N 
ATOM      6  H4  UNL     1      20.881  42.467  17.116  1.00  0.00     0.162 HD
ENDROOT
BRANCH   5   7
HETATM    7  C2  UNL     1      20.831  44.176  18.385  1.00  0.00     0.144 C 
BRANCH   7   8
HETATM    8  C3  UNL     1      21.899  44.667  17.430  1.00  0.00     0.168 C 
BRANCH   8   9
HETATM    9  N5  UNL     1      22.981  45.207  18.208  1.00  0.00    -0.258 N 
HETATM   10  C4  UNL     1      22.958  46.118  19.192  1.00  0.00     0.260 A 
HETATM   11  N6  UNL     1      24.206  46.338  19.651  1.00  0.00    -0.099 N 
HETATM   12  O2  UNL     1      24.960  45.561  18.940  1.00  0.00    -0.113 OA
HETATM   13  N7  UNL     1      24.265  44.883  18.082  1.00  0.00     0.053 NA
BRANCH  11  14
HETATM   14  O1  UNL     1      24.574  47.208  20.659  1.00  0.00    -0.261 OA
ATOM     15  H1  UNL     1      25.409  47.654  20.749  1.00  0.00     0.247 HD
ENDBRANCH  11  14
ENDBRANCH   8   9
ENDBRANCH   7   8
ENDBRANCH   5   7
BRANCH   1  16
HETATM   16  N1  UNL     1      17.072  42.419  19.296  1.00  0.00    -0.343 N 
ATOM     17  H12 UNL     1      17.008  41.407  19.402  1.00  0.00     0.176 HD
ATOM     18  H11 UNL     1      16.282  42.987  19.602  1.00  0.00     0.176 HD
ENDBRANCH   1  16
TORSDOF 5
ENDMDL
