MODEL 1
REMARK VINA RESULT: -6.383541102      0.000      0.000
REMARK  4 active torsions:
REMARK  status: ('A' for Active; 'I' for Inactive)
REMARK    1  A    between atoms: N1_2  and  S1_4 
REMARK    2  A    between atoms: S1_4  and  N2_7 
REMARK    3  A    between atoms: N2_7  and  S2_9 
REMARK    4  A    between atoms: S2_9  and  N3_10 
ROOT
HETATM    1  N2  UNL     1      18.467  43.072  19.210  1.00  0.00    -0.177 N 
ATOM      2  H2  UNL     1      17.769  43.430  19.861  1.00  0.00     0.195 HD
ENDROOT
BRANCH   1   3
HETATM    3  S1  UNL     1      18.421  41.515  18.481  1.00  0.00     0.328 S 
HETATM    4  O1  UNL     1      19.682  40.738  18.761  1.00  0.00    -0.182 OA
HETATM    5  O2  UNL     1      17.213  40.801  19.019  1.00  0.00    -0.182 OA
BRANCH   3   6
HETATM    6  N1  UNL     1      18.261  41.606  16.764  1.00  0.00    -0.306 N 
HETATM    7  C1  UNL     1      17.113  42.415  16.418  1.00  0.00     0.161 C 
ATOM      8  H1  UNL     1      18.884  41.156  16.092  1.00  0.00     0.173 HD
ENDBRANCH   3   6
ENDBRANCH   1   3
BRANCH   1   9
HETATM    9  S2  UNL     1      19.864  43.948  18.681  1.00  0.00     0.327 S 
HETATM   10  O3  UNL     1      20.939  43.761  19.744  1.00  0.00    -0.182 OA
HETATM   11  O4  UNL     1      20.408  43.321  17.428  1.00  0.00    -0.182 OA
BRANCH   9  12
HETATM   12  N3  UNL     1      19.564  45.615  18.508  1.00  0.00    -0.311 N 
ATOM     13  H32 UNL     1      18.638  45.994  18.312  1.00  0.00     0.170 HD
ATOM     14  H31 UNL     1      20.407  46.179  18.623  1.00  0.00     0.170 HD
ENDBRANCH   9  12
ENDBRANCH   1   9
TORSDOF 4
ENDMDL
MODEL 2
REMARK VINA RESULT: -6.173937694      1.665      2.032
REMARK  4 active torsions:
REMARK  status: ('A' for Active; 'I' for Inactive)
REMARK    1  A    between atoms: N1_2  and  S1_4 
REMARK    2  A    between atoms: S1_4  and  N2_7 
REMARK    3  A    between atoms: N2_7  and  S2_9 
REMARK    4  A    between atoms: S2_9  and  N3_10 
ROOT
HETATM    1  N2  UNL     1      20.197  43.114  17.186  1.00  0.00    -0.177 N 
ATOM      2  H2  UNL     1      20.543  43.138  16.228  1.00  0.00     0.195 HD
ENDROOT
BRANCH   1   3
HETATM    3  S1  UNL     1      19.054  41.979  17.789  1.00  0.00     0.328 S 
HETATM    4  O1  UNL     1      18.224  41.390  16.677  1.00  0.00    -0.182 OA
HETATM    5  O2  UNL     1      19.820  40.911  18.518  1.00  0.00    -0.182 OA
BRANCH   3   6
HETATM    6  N1  UNL     1      17.952  42.698  18.908  1.00  0.00    -0.306 N 
HETATM    7  C1  UNL     1      16.741  41.911  18.981  1.00  0.00     0.161 C 
ATOM      8  H1  UNL     1      18.130  43.551  19.439  1.00  0.00     0.173 HD
ENDBRANCH   3   6
ENDBRANCH   1   3
BRANCH   1   9
HETATM    9  S2  UNL     1      20.679  44.211  18.437  1.00  0.00     0.327 S 
HETATM   10  O3  UNL     1      20.493  43.488  19.764  1.00  0.00    -0.182 OA
HETATM   11  O4  UNL     1      22.151  44.492  18.321  1.00  0.00    -0.182 OA
BRANCH   9  12
HETATM   12  N3  UNL     1      19.737  45.629  18.462  1.00  0.00    -0.311 N 
ATOM     13  H32 UNL     1      19.755  46.293  19.236  1.00  0.00     0.170 HD
ATOM     14  H31 UNL     1      19.163  45.733  17.625  1.00  0.00     0.170 HD
ENDBRANCH   9  12
ENDBRANCH   1   9
TORSDOF 4
ENDMDL
MODEL 3
REMARK VINA RESULT: -6.142275385      1.824      3.903
REMARK  4 active torsions:
REMARK  status: ('A' for Active; 'I' for Inactive)
REMARK    1  A    between atoms: N1_2  and  S1_4 
REMARK    2  A    between atoms: S1_4  and  N2_7 
REMARK    3  A    between atoms: N2_7  and  S2_9 
REMARK    4  A    between atoms: S2_9  and  N3_10 
ROOT
HETATM    1  N2  UNL     1      18.399  43.060  19.126  1.00  0.00    -0.177 N 
ATOM      2  H2  UNL     1      17.668  43.459  19.714  1.00  0.00     0.195 HD
ENDROOT
BRANCH   1   3
HETATM    3  S1  UNL     1      19.859  43.862  18.697  1.00  0.00     0.328 S 
HETATM    4  O1  UNL     1      20.914  43.692  19.760  1.00  0.00    -0.182 OA
HETATM    5  O2  UNL     1      20.317  43.293  17.384  1.00  0.00    -0.182 OA
BRANCH   3   6
HETATM    6  N1  UNL     1      19.630  45.561  18.488  1.00  0.00    -0.306 N 
HETATM    7  C1  UNL     1      20.912  46.232  18.467  1.00  0.00     0.161 C 
ATOM      8  H1  UNL     1      18.725  46.023  18.393  1.00  0.00     0.173 HD
ENDBRANCH   3   6
ENDBRANCH   1   3
BRANCH   1   9
HETATM    9  S2  UNL     1      18.345  41.481  18.420  1.00  0.00     0.327 S 
HETATM   10  O3  UNL     1      19.645  40.778  18.791  1.00  0.00    -0.182 OA
HETATM   11  O4  UNL     1      17.245  40.680  19.058  1.00  0.00    -0.182 OA
BRANCH   9  12
HETATM   12  N3  UNL     1      18.227  41.527  16.722  1.00  0.00    -0.311 N 
ATOM     13  H32 UNL     1      19.018  41.339  16.106  1.00  0.00     0.170 HD
ATOM     14  H31 UNL     1      17.288  41.762  16.400  1.00  0.00     0.170 HD
ENDBRANCH   9  12
ENDBRANCH   1   9
TORSDOF 4
ENDMDL
MODEL 4
REMARK VINA RESULT: -6.062438703      2.145      3.965
REMARK  4 active torsions:
REMARK  status: ('A' for Active; 'I' for Inactive)
REMARK    1  A    between atoms: N1_2  and  S1_4 
REMARK    2  A    between atoms: S1_4  and  N2_7 
REMARK    3  A    between atoms: N2_7  and  S2_9 
REMARK    4  A    between atoms: S2_9  and  N3_10 
ROOT
HETATM    1  N2  UNL     1      18.215  43.181  18.954  1.00  0.00    -0.177 N 
ATOM      2  H2  UNL     1      17.427  43.673  19.374  1.00  0.00     0.195 HD
ENDROOT
BRANCH   1   3
HETATM    3  S1  UNL     1      19.759  43.876  18.656  1.00  0.00     0.328 S 
HETATM    4  O1  UNL     1      20.729  43.558  19.765  1.00  0.00    -0.182 OA
HETATM    5  O2  UNL     1      20.247  43.343  17.339  1.00  0.00    -0.182 OA
BRANCH   3   6
HETATM    6  N1  UNL     1      19.685  45.598  18.536  1.00  0.00    -0.306 N 
HETATM    7  C1  UNL     1      21.021  46.151  18.563  1.00  0.00     0.161 C 
ATOM      8  H1  UNL     1      18.826  46.143  18.459  1.00  0.00     0.173 HD
ENDBRANCH   3   6
ENDBRANCH   1   3
BRANCH   1   9
HETATM    9  S2  UNL     1      18.186  41.527  18.442  1.00  0.00     0.327 S 
HETATM   10  O3  UNL     1      17.310  40.766  19.429  1.00  0.00    -0.182 OA
HETATM   11  O4  UNL     1      17.495  41.424  17.110  1.00  0.00    -0.182 OA
BRANCH   9  12
HETATM   12  N3  UNL     1      19.733  40.816  18.439  1.00  0.00    -0.311 N 
ATOM     13  H32 UNL     1      20.404  40.954  17.683  1.00  0.00     0.170 HD
ATOM     14  H31 UNL     1      19.905  40.248  19.269  1.00  0.00     0.170 HD
ENDBRANCH   9  12
ENDBRANCH   1   9
TORSDOF 4
ENDMDL
MODEL 5
REMARK VINA RESULT: -6.036555007      2.289      3.961
REMARK  4 active torsions:
REMARK  status: ('A' for Active; 'I' for Inactive)
REMARK    1  A    between atoms: N1_2  and  S1_4 
REMARK    2  A    between atoms: S1_4  and  N2_7 
REMARK    3  A    between atoms: N2_7  and  S2_9 
REMARK    4  A    between atoms: S2_9  and  N3_10 
ROOT
HETATM    1  N2  UNL     1      19.379  41.183  19.032  1.00  0.00    -0.177 N 
ATOM      2  H2  UNL     1      20.210  40.660  19.306  1.00  0.00     0.195 HD
ENDROOT
BRANCH   1   3
HETATM    3  S1  UNL     1      19.398  42.700  18.220  1.00  0.00     0.328 S 
HETATM    4  O1  UNL     1      20.718  42.941  17.535  1.00  0.00    -0.182 OA
HETATM    5  O2  UNL     1      18.266  42.696  17.231  1.00  0.00    -0.182 OA
BRANCH   3   6
HETATM    6  N1  UNL     1      19.149  44.020  19.305  1.00  0.00    -0.306 N 
HETATM    7  C1  UNL     1      20.107  45.069  19.031  1.00  0.00     0.161 C 
ATOM      8  H1  UNL     1      18.433  44.055  20.031  1.00  0.00     0.173 HD
ENDBRANCH   3   6
ENDBRANCH   1   3
BRANCH   1   9
HETATM    9  S2  UNL     1      17.751  40.669  19.318  1.00  0.00     0.327 S 
HETATM   10  O3  UNL     1      17.325  39.836  18.116  1.00  0.00    -0.182 OA
HETATM   11  O4  UNL     1      17.715  39.741  20.500  1.00  0.00    -0.182 OA
BRANCH   9  12
HETATM   12  N3  UNL     1      16.670  41.977  19.473  1.00  0.00    -0.311 N 
ATOM     13  H32 UNL     1      16.725  42.813  18.891  1.00  0.00     0.170 HD
ATOM     14  H31 UNL     1      15.975  41.826  20.204  1.00  0.00     0.170 HD
ENDBRANCH   9  12
ENDBRANCH   1   9
TORSDOF 4
ENDMDL
