MODEL 1
REMARK VINA RESULT: -6.428092904      0.000      0.000
REMARK  7 active torsions:
REMARK  status: ('A' for Active; 'I' for Inactive)
REMARK    1  A    between atoms: O1_2  and  C2_3 
REMARK    2  A    between atoms: C2_3  and  C3_4 
REMARK    3  A    between atoms: C3_4  and  N1_5 
REMARK    4  A    between atoms: C4_6  and  O2_7 
REMARK    5  A    between atoms: C5_9  and  O3_10 
REMARK    6  A    between atoms: C6_12  and  O4_13 
REMARK    7  A    between atoms: C7_15  and  O5_16 
ROOT
HETATM    1  N1  UNL     1      16.927  41.242  17.560  1.00  0.00     0.153 N 
HETATM    2  C4  UNL     1      17.765  42.127  16.776  1.00  0.00     0.391 C 
HETATM    3  C5  UNL     1      19.124  41.969  17.437  1.00  0.00     0.210 C 
HETATM    4  C6  UNL     1      18.804  41.684  18.887  1.00  0.00     0.210 C 
HETATM    5  C7  UNL     1      17.297  41.480  18.938  1.00  0.00     0.391 C 
ENDROOT
BRANCH   1   6
HETATM    6  C3  UNL     1      15.521  41.478  17.312  1.00  0.00     0.305 C 
BRANCH   6   7
HETATM    7  C2  UNL     1      15.122  40.698  16.103  1.00  0.00     0.197 C 
BRANCH   7   8
HETATM    8  O1  UNL     1      14.810  39.381  16.346  1.00  0.00    -0.394 OA
HETATM    9  C1  UNL     1      13.640  38.957  15.764  1.00  0.00     0.201 C 
ENDBRANCH   7   8
ENDBRANCH   6   7
ENDBRANCH   1   6
BRANCH   2  10
HETATM   10  O2  UNL     1      17.329  43.434  16.880  1.00  0.00    -0.366 OA
ATOM     11  H2  UNL     1      17.914  43.942  17.430  1.00  0.00     0.212 HD
ENDBRANCH   2  10
BRANCH   5  12
HETATM   12  O5  UNL     1      16.718  42.657  19.391  1.00  0.00    -0.366 OA
ATOM     13  H5  UNL     1      16.548  42.600  20.324  1.00  0.00     0.212 HD
ENDBRANCH   5  12
BRANCH   3  14
HETATM   14  O3  UNL     1      19.879  43.131  17.289  1.00  0.00    -0.388 OA
ATOM     15  H3  UNL     1      20.607  42.983  16.696  1.00  0.00     0.210 HD
ENDBRANCH   3  14
BRANCH   4  16
HETATM   16  O4  UNL     1      19.203  42.795  19.622  1.00  0.00    -0.388 OA
ATOM     17  H4  UNL     1      18.473  43.040  20.178  1.00  0.00     0.210 HD
ENDBRANCH   4  16
TORSDOF 7
ENDMDL
MODEL 2
REMARK VINA RESULT: -6.205224318      1.536      4.708
REMARK  7 active torsions:
REMARK  status: ('A' for Active; 'I' for Inactive)
REMARK    1  A    between atoms: O1_2  and  C2_3 
REMARK    2  A    between atoms: C2_3  and  C3_4 
REMARK    3  A    between atoms: C3_4  and  N1_5 
REMARK    4  A    between atoms: C4_6  and  O2_7 
REMARK    5  A    between atoms: C5_9  and  O3_10 
REMARK    6  A    between atoms: C6_12  and  O4_13 
REMARK    7  A    between atoms: C7_15  and  O5_16 
ROOT
HETATM    1  N1  UNL     1      17.434  41.294  17.380  1.00  0.00     0.153 N 
HETATM    2  C4  UNL     1      16.014  41.029  17.263  1.00  0.00     0.391 C 
HETATM    3  C5  UNL     1      15.846  40.761  15.777  1.00  0.00     0.210 C 
HETATM    4  C6  UNL     1      16.907  41.617  15.121  1.00  0.00     0.210 C 
HETATM    5  C7  UNL     1      17.757  42.156  16.262  1.00  0.00     0.391 C 
ENDROOT
BRANCH   1   6
HETATM    6  C3  UNL     1      17.763  41.892  18.656  1.00  0.00     0.305 C 
BRANCH   6   7
HETATM    7  C2  UNL     1      19.248  41.867  18.813  1.00  0.00     0.197 C 
BRANCH   7   8
HETATM    8  O1  UNL     1      19.768  42.921  19.526  1.00  0.00    -0.394 OA
HETATM    9  C1  UNL     1      19.993  44.055  18.783  1.00  0.00     0.201 C 
ENDBRANCH   7   8
ENDBRANCH   6   7
ENDBRANCH   1   6
BRANCH   2  10
HETATM   10  O2  UNL     1      15.275  42.134  17.639  1.00  0.00    -0.366 OA
ATOM     11  H2  UNL     1      15.790  42.713  18.190  1.00  0.00     0.212 HD
ENDBRANCH   2  10
BRANCH   5  12
HETATM   12  O5  UNL     1      17.350  43.456  16.528  1.00  0.00    -0.366 OA
ATOM     13  H5  UNL     1      16.608  43.684  15.981  1.00  0.00     0.212 HD
ENDBRANCH   5  12
BRANCH   3  14
HETATM   14  O3  UNL     1      14.564  41.109  15.358  1.00  0.00    -0.388 OA
ATOM     15  H3  UNL     1      14.008  41.297  16.105  1.00  0.00     0.210 HD
ENDBRANCH   3  14
BRANCH   4  16
HETATM   16  O4  UNL     1      16.250  42.636  14.439  1.00  0.00    -0.388 OA
ATOM     17  H4  UNL     1      16.377  42.480  13.511  1.00  0.00     0.210 HD
ENDBRANCH   4  16
TORSDOF 7
ENDMDL
MODEL 3
REMARK VINA RESULT: -6.204060841      2.459      5.222
REMARK  7 active torsions:
REMARK  status: ('A' for Active; 'I' for Inactive)
REMARK    1  A    between atoms: O1_2  and  C2_3 
REMARK    2  A    between atoms: C2_3  and  C3_4 
REMARK    3  A    between atoms: C3_4  and  N1_5 
REMARK    4  A    between atoms: C4_6  and  O2_7 
REMARK    5  A    between atoms: C5_9  and  O3_10 
REMARK    6  A    between atoms: C6_12  and  O4_13 
REMARK    7  A    between atoms: C7_15  and  O5_16 
ROOT
HETATM    1  N1  UNL     1      18.781  42.723  18.367  1.00  0.00     0.153 N 
HETATM    2  C4  UNL     1      17.742  42.434  17.399  1.00  0.00     0.391 C 
HETATM    3  C5  UNL     1      16.730  41.654  18.222  1.00  0.00     0.210 C 
HETATM    4  C6  UNL     1      17.566  40.929  19.253  1.00  0.00     0.210 C 
HETATM    5  C7  UNL     1      18.971  41.494  19.107  1.00  0.00     0.391 C 
ENDROOT
BRANCH   1   6
HETATM    6  C3  UNL     1      19.996  43.181  17.727  1.00  0.00     0.305 C 
BRANCH   6   7
HETATM    7  C2  UNL     1      20.576  44.278  18.556  1.00  0.00     0.197 C 
BRANCH   7   8
HETATM    8  O1  UNL     1      21.947  44.365  18.517  1.00  0.00    -0.394 OA
HETATM    9  C1  UNL     1      22.450  45.594  18.870  1.00  0.00     0.201 C 
ENDBRANCH   7   8
ENDBRANCH   6   7
ENDBRANCH   1   6
BRANCH   2  10
HETATM   10  O2  UNL     1      18.231  41.652  16.372  1.00  0.00    -0.366 OA
ATOM     11  H2  UNL     1      18.899  42.118  15.881  1.00  0.00     0.212 HD
ENDBRANCH   2  10
BRANCH   5  12
HETATM   12  O5  UNL     1      19.722  40.598  18.359  1.00  0.00    -0.366 OA
ATOM     13  H5  UNL     1      20.591  40.510  18.732  1.00  0.00     0.212 HD
ENDBRANCH   5  12
BRANCH   3  14
HETATM   14  O3  UNL     1      16.019  40.770  17.413  1.00  0.00    -0.388 OA
ATOM     15  H3  UNL     1      16.489  39.949  17.322  1.00  0.00     0.210 HD
ENDBRANCH   3  14
BRANCH   4  16
HETATM   16  O4  UNL     1      17.518  39.574  18.943  1.00  0.00    -0.388 OA
ATOM     17  H4  UNL     1      18.175  39.141  19.474  1.00  0.00     0.210 HD
ENDBRANCH   4  16
TORSDOF 7
ENDMDL
MODEL 4
REMARK VINA RESULT: -6.172186828      1.300      1.710
REMARK  7 active torsions:
REMARK  status: ('A' for Active; 'I' for Inactive)
REMARK    1  A    between atoms: O1_2  and  C2_3 
REMARK    2  A    between atoms: C2_3  and  C3_4 
REMARK    3  A    between atoms: C3_4  and  N1_5 
REMARK    4  A    between atoms: C4_6  and  O2_7 
REMARK    5  A    between atoms: C5_9  and  O3_10 
REMARK    6  A    between atoms: C6_12  and  O4_13 
REMARK    7  A    between atoms: C7_15  and  O5_16 
ROOT
HETATM    1  N1  UNL     1      17.020  41.871  17.317  1.00  0.00     0.153 N 
HETATM    2  C4  UNL     1      17.446  42.775  18.367  1.00  0.00     0.391 C 
HETATM    3  C5  UNL     1      18.961  42.672  18.299  1.00  0.00     0.210 C 
HETATM    4  C6  UNL     1      19.219  41.256  17.834  1.00  0.00     0.210 C 
HETATM    5  C7  UNL     1      17.855  40.698  17.456  1.00  0.00     0.391 C 
ENDROOT
BRANCH   1   6
HETATM    6  C3  UNL     1      15.609  41.564  17.416  1.00  0.00     0.305 C 
BRANCH   6   7
HETATM    7  C2  UNL     1      15.208  40.813  16.190  1.00  0.00     0.197 C 
BRANCH   7   8
HETATM    8  O1  UNL     1      14.899  39.490  16.401  1.00  0.00    -0.394 OA
HETATM    9  C1  UNL     1      13.730  39.077  15.810  1.00  0.00     0.201 C 
ENDBRANCH   7   8
ENDBRANCH   6   7
ENDBRANCH   1   6
BRANCH   2  10
HETATM   10  O2  UNL     1      16.990  42.346  19.599  1.00  0.00    -0.366 OA
ATOM     11  H2  UNL     1      16.456  43.014  20.012  1.00  0.00     0.212 HD
ENDBRANCH   2  10
BRANCH   5  12
HETATM   12  O5  UNL     1      17.404  39.912  18.508  1.00  0.00    -0.366 OA
ATOM     13  H5  UNL     1      17.961  40.033  19.268  1.00  0.00     0.212 HD
ENDBRANCH   5  12
BRANCH   3  14
HETATM   14  O3  UNL     1      19.525  42.921  19.548  1.00  0.00    -0.388 OA
ATOM     15  H3  UNL     1      18.849  42.994  20.212  1.00  0.00     0.210 HD
ENDBRANCH   3  14
BRANCH   4  16
HETATM   16  O4  UNL     1      19.783  40.569  18.904  1.00  0.00    -0.388 OA
ATOM     17  H4  UNL     1      19.249  39.798  19.054  1.00  0.00     0.210 HD
ENDBRANCH   4  16
TORSDOF 7
ENDMDL
MODEL 5
REMARK VINA RESULT: -6.118087491      1.672      2.223
REMARK  7 active torsions:
REMARK  status: ('A' for Active; 'I' for Inactive)
REMARK    1  A    between atoms: O1_2  and  C2_3 
REMARK    2  A    between atoms: C2_3  and  C3_4 
REMARK    3  A    between atoms: C3_4  and  N1_5 
REMARK    4  A    between atoms: C4_6  and  O2_7 
REMARK    5  A    between atoms: C5_9  and  O3_10 
REMARK    6  A    between atoms: C6_12  and  O4_13 
REMARK    7  A    between atoms: C7_15  and  O5_16 
ROOT
HETATM    1  N1  UNL     1      17.090  41.716  17.341  1.00  0.00     0.153 N 
HETATM    2  C4  UNL     1      17.484  42.709  18.320  1.00  0.00     0.391 C 
HETATM    3  C5  UNL     1      19.001  42.625  18.287  1.00  0.00     0.210 C 
HETATM    4  C6  UNL     1      19.288  41.180  17.945  1.00  0.00     0.210 C 
HETATM    5  C7  UNL     1      17.940  40.571  17.591  1.00  0.00     0.391 C 
ENDROOT
BRANCH   1   6
HETATM    6  C3  UNL     1      15.682  41.396  17.439  1.00  0.00     0.305 C 
BRANCH   6   7
HETATM    7  C2  UNL     1      15.140  41.247  16.056  1.00  0.00     0.197 C 
BRANCH   7   8
HETATM    8  O1  UNL     1      16.090  41.242  15.063  1.00  0.00    -0.394 OA
HETATM    9  C1  UNL     1      16.189  42.420  14.363  1.00  0.00     0.201 C 
ENDBRANCH   7   8
ENDBRANCH   6   7
ENDBRANCH   1   6
BRANCH   2  10
HETATM   10  O2  UNL     1      17.011  42.376  19.574  1.00  0.00    -0.366 OA
ATOM     11  H2  UNL     1      16.178  42.800  19.745  1.00  0.00     0.212 HD
ENDBRANCH   2  10
BRANCH   5  12
HETATM   12  O5  UNL     1      17.480  39.867  18.695  1.00  0.00    -0.366 OA
ATOM     13  H5  UNL     1      16.709  39.363  18.463  1.00  0.00     0.212 HD
ENDBRANCH   5  12
BRANCH   3  14
HETATM   14  O3  UNL     1      19.538  42.985  19.521  1.00  0.00    -0.388 OA
ATOM     15  H3  UNL     1      18.847  43.208  20.134  1.00  0.00     0.210 HD
ENDBRANCH   3  14
BRANCH   4  16
HETATM   16  O4  UNL     1      19.841  40.592  19.077  1.00  0.00    -0.388 OA
ATOM     17  H4  UNL     1      20.423  39.903  18.780  1.00  0.00     0.210 HD
ENDBRANCH   4  16
TORSDOF 7
ENDMDL
