MODEL 1
REMARK VINA RESULT: -7.103193654      0.000      0.000
REMARK  9 active torsions:
REMARK  status: ('A' for Active; 'I' for Inactive)
REMARK    1  A    between atoms: C2_2  and  C3_3 
REMARK    2  A    between atoms: C3_3  and  C4_4 
REMARK    3  A    between atoms: C4_4  and  N1_5 
REMARK    4  A    between atoms: N1_5  and  C5_6 
REMARK    5  A    between atoms: N1_5  and  C9_10 
REMARK    6  A    between atoms: C5_6  and  C6_7 
REMARK    7  A    between atoms: C6_7  and  C7_8 
REMARK    8  A    between atoms: N4_27  and  C22_28 
REMARK    9  A    between atoms: C22_28  and  C23_29 
ROOT
HETATM    1  C9  UNL     1      52.075  28.773  38.121  1.00  0.00     0.065 A 
HETATM    2  C10 UNL     1      51.105  29.733  38.132  1.00  0.00     0.058 A 
HETATM    3  C11 UNL     1      50.619  30.363  39.246  1.00  0.00     0.131 A 
HETATM    4  F1  UNL     1      51.094  30.026  40.432  1.00  0.00    -0.205 F 
HETATM    5  C12 UNL     1      49.626  31.336  39.258  1.00  0.00     0.044 A 
HETATM    6  C13 UNL     1      49.080  31.698  38.052  1.00  0.00     0.012 A 
HETATM    7  C14 UNL     1      49.511  31.108  36.887  1.00  0.00    -0.034 A 
HETATM    8  C15 UNL     1      48.921  31.504  35.590  1.00  0.00     0.050 C 
HETATM    9  C16 UNL     1      50.495  30.152  36.924  1.00  0.00     0.055 A 
HETATM   10  N2  UNL     1      50.860  29.616  35.776  1.00  0.00    -0.340 N 
ATOM     11  H2  UNL     1      50.409  29.934  34.917  1.00  0.00     0.167 HD
HETATM   12  C17 UNL     1      51.794  28.677  35.701  1.00  0.00     0.122 A 
HETATM   13  C18 UNL     1      52.412  28.244  36.877  1.00  0.00     0.058 A 
HETATM   14  C19 UNL     1      53.291  27.306  36.504  1.00  0.00     0.076 A 
HETATM   15  C20 UNL     1      54.170  26.513  37.284  1.00  0.00     0.102 C 
HETATM   16  N3  UNL     1      54.909  25.832  37.900  1.00  0.00    -0.191 NA
HETATM   17  C21 UNL     1      53.191  27.189  35.101  1.00  0.00     0.116 A 
HETATM   18  N4  UNL     1      52.268  28.039  34.633  1.00  0.00    -0.341 N 
ENDROOT
BRANCH   1  19
HETATM   19  N1  UNL     1      52.751  28.373  39.307  1.00  0.00    -0.359 N 
BRANCH  19  20
HETATM   20  C4  UNL     1      53.882  29.056  39.883  1.00  0.00     0.128 C 
BRANCH  20  21
HETATM   21  C3  UNL     1      54.703  29.885  38.919  1.00  0.00     0.020 C 
BRANCH  21  22
HETATM   22  C2  UNL     1      56.019  29.224  38.597  1.00  0.00    -0.003 C 
HETATM   23  C1  UNL     1      56.484  29.462  37.204  1.00  0.00     0.005 C 
ENDBRANCH  21  22
ENDBRANCH  20  21
ENDBRANCH  19  20
BRANCH  19  24
HETATM   24  C5  UNL     1      52.202  27.259  40.020  1.00  0.00     0.064 C 
BRANCH  24  25
HETATM   25  C6  UNL     1      51.324  26.210  39.596  1.00  0.00     0.044 C 
BRANCH  25  26
HETATM   26  C7  UNL     1      51.263  24.927  40.376  1.00  0.00     0.001 C 
HETATM   27  C8  UNL     1      52.612  24.169  40.221  1.00  0.00     0.005 C 
ENDBRANCH  25  26
ENDBRANCH  24  25
ENDBRANCH  19  24
ENDBRANCH   1  19
BRANCH  18  28
HETATM   28  C22 UNL     1      51.905  28.192  33.238  1.00  0.00     0.136 C 
BRANCH  28  29
HETATM   29  C23 UNL     1      51.978  26.981  32.398  1.00  0.00     0.031 C 
HETATM   30  C24 UNL     1      50.715  26.146  32.365  1.00  0.00     0.035 C 
HETATM   31  C25 UNL     1      50.262  26.266  30.935  1.00  0.00     0.232 C 
HETATM   32  N5  UNL     1      51.102  27.251  30.279  1.00  0.00    -0.075 N 
HETATM   33  C26 UNL     1      52.377  27.158  30.973  1.00  0.00     0.238 C 
ATOM     34  H52 UNL     1      51.168  27.136  29.268  1.00  0.00     0.277 HD
ATOM     35  H51 UNL     1      50.705  28.191  30.260  1.00  0.00     0.277 HD
ENDBRANCH  28  29
ENDBRANCH  18  28
TORSDOF 9
ENDMDL
MODEL 2
REMARK VINA RESULT: -6.995776603      0.214      2.874
REMARK  9 active torsions:
REMARK  status: ('A' for Active; 'I' for Inactive)
REMARK    1  A    between atoms: C2_2  and  C3_3 
REMARK    2  A    between atoms: C3_3  and  C4_4 
REMARK    3  A    between atoms: C4_4  and  N1_5 
REMARK    4  A    between atoms: N1_5  and  C5_6 
REMARK    5  A    between atoms: N1_5  and  C9_10 
REMARK    6  A    between atoms: C5_6  and  C6_7 
REMARK    7  A    between atoms: C6_7  and  C7_8 
REMARK    8  A    between atoms: N4_27  and  C22_28 
REMARK    9  A    between atoms: C22_28  and  C23_29 
ROOT
HETATM    1  C9  UNL     1      52.147  28.704  38.001  1.00  0.00     0.065 A 
HETATM    2  C10 UNL     1      51.159  29.646  38.001  1.00  0.00     0.058 A 
HETATM    3  C11 UNL     1      50.628  30.245  39.111  1.00  0.00     0.131 A 
HETATM    4  F1  UNL     1      51.073  29.894  40.305  1.00  0.00    -0.205 F 
HETATM    5  C12 UNL     1      49.617  31.199  39.112  1.00  0.00     0.044 A 
HETATM    6  C13 UNL     1      49.099  31.574  37.897  1.00  0.00     0.012 A 
HETATM    7  C14 UNL     1      49.576  31.015  36.735  1.00  0.00    -0.034 A 
HETATM    8  C15 UNL     1      49.017  31.424  35.428  1.00  0.00     0.050 C 
HETATM    9  C16 UNL     1      50.577  30.077  36.783  1.00  0.00     0.055 A 
HETATM   10  N2  UNL     1      50.986  29.571  35.636  1.00  0.00    -0.340 N 
ATOM     11  H2  UNL     1      50.555  29.896  34.771  1.00  0.00     0.167 HD
HETATM   12  C17 UNL     1      51.941  28.651  35.572  1.00  0.00     0.122 A 
HETATM   13  C18 UNL     1      52.532  28.206  36.758  1.00  0.00     0.058 A 
HETATM   14  C19 UNL     1      53.440  27.293  36.394  1.00  0.00     0.076 A 
HETATM   15  C20 UNL     1      54.310  26.502  37.185  1.00  0.00     0.102 C 
HETATM   16  N3  UNL     1      55.044  25.823  37.810  1.00  0.00    -0.191 NA
HETATM   17  C21 UNL     1      53.384  27.201  34.986  1.00  0.00     0.116 A 
HETATM   18  N4  UNL     1      52.458  28.043  34.507  1.00  0.00    -0.341 N 
ENDROOT
BRANCH   1  19
HETATM   19  N1  UNL     1      52.795  28.295  39.199  1.00  0.00    -0.359 N 
BRANCH  19  20
HETATM   20  C4  UNL     1      52.462  27.115  39.957  1.00  0.00     0.128 C 
BRANCH  20  21
HETATM   21  C3  UNL     1      51.184  26.416  39.548  1.00  0.00     0.020 C 
BRANCH  21  22
HETATM   22  C2  UNL     1      50.991  25.123  40.296  1.00  0.00    -0.003 C 
HETATM   23  C1  UNL     1      52.203  24.260  40.326  1.00  0.00     0.005 C 
ENDBRANCH  21  22
ENDBRANCH  20  21
ENDBRANCH  19  20
BRANCH  19  24
HETATM   24  C5  UNL     1      53.917  29.075  39.626  1.00  0.00     0.064 C 
BRANCH  24  25
HETATM   25  C6  UNL     1      54.878  29.831  38.879  1.00  0.00     0.044 C 
BRANCH  25  26
HETATM   26  C7  UNL     1      56.204  29.216  38.530  1.00  0.00     0.001 C 
HETATM   27  C8  UNL     1      56.524  29.504  37.035  1.00  0.00     0.005 C 
ENDBRANCH  25  26
ENDBRANCH  24  25
ENDBRANCH  19  24
ENDBRANCH   1  19
BRANCH  18  28
HETATM   28  C22 UNL     1      52.134  28.216  33.105  1.00  0.00     0.136 C 
BRANCH  28  29
HETATM   29  C23 UNL     1      52.100  26.995  32.277  1.00  0.00     0.031 C 
HETATM   30  C24 UNL     1      50.851  26.152  32.428  1.00  0.00     0.035 C 
HETATM   31  C25 UNL     1      50.204  26.251  31.073  1.00  0.00     0.232 C 
HETATM   32  N5  UNL     1      50.938  27.233  30.297  1.00  0.00    -0.075 N 
HETATM   33  C26 UNL     1      52.297  27.156  30.809  1.00  0.00     0.238 C 
ATOM     34  H52 UNL     1      50.865  27.106  29.287  1.00  0.00     0.277 HD
ATOM     35  H51 UNL     1      50.535  28.170  30.322  1.00  0.00     0.277 HD
ENDBRANCH  28  29
ENDBRANCH  18  28
TORSDOF 9
ENDMDL
MODEL 3
REMARK VINA RESULT: -6.762987113      1.148      1.530
REMARK  9 active torsions:
REMARK  status: ('A' for Active; 'I' for Inactive)
REMARK    1  A    between atoms: C2_2  and  C3_3 
REMARK    2  A    between atoms: C3_3  and  C4_4 
REMARK    3  A    between atoms: C4_4  and  N1_5 
REMARK    4  A    between atoms: N1_5  and  C5_6 
REMARK    5  A    between atoms: N1_5  and  C9_10 
REMARK    6  A    between atoms: C5_6  and  C6_7 
REMARK    7  A    between atoms: C6_7  and  C7_8 
REMARK    8  A    between atoms: N4_27  and  C22_28 
REMARK    9  A    between atoms: C22_28  and  C23_29 
ROOT
HETATM    1  C9  UNL     1      52.261  28.483  37.812  1.00  0.00     0.065 A 
HETATM    2  C10 UNL     1      51.275  29.417  37.668  1.00  0.00     0.058 A 
HETATM    3  C11 UNL     1      50.712  30.144  38.682  1.00  0.00     0.131 A 
HETATM    4  F1  UNL     1      51.119  29.940  39.922  1.00  0.00    -0.205 F 
HETATM    5  C12 UNL     1      49.704  31.091  38.536  1.00  0.00     0.044 A 
HETATM    6  C13 UNL     1      49.226  31.316  37.269  1.00  0.00     0.012 A 
HETATM    7  C14 UNL     1      49.738  30.623  36.198  1.00  0.00    -0.034 A 
HETATM    8  C15 UNL     1      49.221  30.872  34.835  1.00  0.00     0.050 C 
HETATM    9  C16 UNL     1      50.733  29.698  36.390  1.00  0.00     0.055 A 
HETATM   10  N2  UNL     1      51.177  29.059  35.325  1.00  0.00    -0.340 N 
ATOM     11  H2  UNL     1      50.774  29.278  34.414  1.00  0.00     0.167 HD
HETATM   12  C17 UNL     1      52.130  28.139  35.402  1.00  0.00     0.122 A 
HETATM   13  C18 UNL     1      52.683  27.840  36.650  1.00  0.00     0.058 A 
HETATM   14  C19 UNL     1      53.599  26.890  36.427  1.00  0.00     0.076 A 
HETATM   15  C20 UNL     1      54.442  26.200  37.334  1.00  0.00     0.102 C 
HETATM   16  N3  UNL     1      55.154  25.602  38.058  1.00  0.00    -0.191 NA
HETATM   17  C21 UNL     1      53.587  26.630  35.039  1.00  0.00     0.116 A 
HETATM   18  N4  UNL     1      52.679  27.408  34.434  1.00  0.00    -0.341 N 
ENDROOT
BRANCH   1  19
HETATM   19  N1  UNL     1      52.870  28.221  39.070  1.00  0.00    -0.359 N 
BRANCH  19  20
HETATM   20  C4  UNL     1      53.956  28.980  39.637  1.00  0.00     0.128 C 
BRANCH  20  21
HETATM   21  C3  UNL     1      54.800  29.750  38.645  1.00  0.00     0.020 C 
BRANCH  21  22
HETATM   22  C2  UNL     1      56.153  29.115  38.451  1.00  0.00    -0.003 C 
HETATM   23  C1  UNL     1      56.633  29.143  37.043  1.00  0.00     0.005 C 
ENDBRANCH  21  22
ENDBRANCH  20  21
ENDBRANCH  19  20
BRANCH  19  24
HETATM   24  C5  UNL     1      52.294  27.176  39.862  1.00  0.00     0.064 C 
BRANCH  24  25
HETATM   25  C6  UNL     1      51.300  26.193  39.546  1.00  0.00     0.044 C 
BRANCH  25  26
HETATM   26  C7  UNL     1      51.248  24.908  40.323  1.00  0.00     0.001 C 
HETATM   27  C8  UNL     1      52.625  24.193  40.222  1.00  0.00     0.005 C 
ENDBRANCH  25  26
ENDBRANCH  24  25
ENDBRANCH  19  24
ENDBRANCH   1  19
BRANCH  18  28
HETATM   28  C22 UNL     1      52.400  27.412  33.012  1.00  0.00     0.136 C 
BRANCH  28  29
HETATM   29  C23 UNL     1      53.245  28.284  32.173  1.00  0.00     0.031 C 
HETATM   30  C24 UNL     1      54.703  28.345  32.577  1.00  0.00     0.035 C 
HETATM   31  C25 UNL     1      55.409  27.712  31.408  1.00  0.00     0.232 C 
HETATM   32  N5  UNL     1      54.401  27.165  30.518  1.00  0.00    -0.075 N 
HETATM   33  C26 UNL     1      53.247  28.030  30.705  1.00  0.00     0.238 C 
ATOM     34  H52 UNL     1      54.704  27.078  29.548  1.00  0.00     0.277 HD
ATOM     35  H51 UNL     1      54.208  26.174  30.665  1.00  0.00     0.277 HD
ENDBRANCH  28  29
ENDBRANCH  18  28
TORSDOF 9
ENDMDL
MODEL 4
REMARK VINA RESULT: -6.724207760      2.168      4.724
REMARK  9 active torsions:
REMARK  status: ('A' for Active; 'I' for Inactive)
REMARK    1  A    between atoms: C2_2  and  C3_3 
REMARK    2  A    between atoms: C3_3  and  C4_4 
REMARK    3  A    between atoms: C4_4  and  N1_5 
REMARK    4  A    between atoms: N1_5  and  C5_6 
REMARK    5  A    between atoms: N1_5  and  C9_10 
REMARK    6  A    between atoms: C5_6  and  C6_7 
REMARK    7  A    between atoms: C6_7  and  C7_8 
REMARK    8  A    between atoms: N4_27  and  C22_28 
REMARK    9  A    between atoms: C22_28  and  C23_29 
ROOT
HETATM    1  C9  UNL     1      51.986  28.677  37.052  1.00  0.00     0.065 A 
HETATM    2  C10 UNL     1      52.490  27.889  36.058  1.00  0.00     0.058 A 
HETATM    3  C11 UNL     1      53.496  26.971  36.202  1.00  0.00     0.131 A 
HETATM    4  F1  UNL     1      54.063  26.819  37.385  1.00  0.00    -0.205 F 
HETATM    5  C12 UNL     1      54.014  26.173  35.188  1.00  0.00     0.044 A 
HETATM    6  C13 UNL     1      53.478  26.317  33.932  1.00  0.00     0.012 A 
HETATM    7  C14 UNL     1      52.468  27.220  33.706  1.00  0.00    -0.034 A 
HETATM    8  C15 UNL     1      51.892  27.369  32.352  1.00  0.00     0.050 C 
HETATM    9  C16 UNL     1      51.986  27.987  34.738  1.00  0.00     0.055 A 
HETATM   10  N2  UNL     1      51.024  28.843  34.457  1.00  0.00    -0.340 N 
ATOM     11  H2  UNL     1      50.674  28.896  33.500  1.00  0.00     0.167 HD
HETATM   12  C17 UNL     1      50.495  29.637  35.379  1.00  0.00     0.122 A 
HETATM   13  C18 UNL     1      50.973  29.563  36.690  1.00  0.00     0.058 A 
HETATM   14  C19 UNL     1      50.273  30.466  37.387  1.00  0.00     0.076 A 
HETATM   15  C20 UNL     1      50.357  30.834  38.753  1.00  0.00     0.102 C 
HETATM   16  N3  UNL     1      50.402  31.171  39.882  1.00  0.00    -0.191 NA
HETATM   17  C21 UNL     1      49.376  31.073  36.481  1.00  0.00     0.116 A 
HETATM   18  N4  UNL     1      49.532  30.548  35.259  1.00  0.00    -0.341 N 
ENDROOT
BRANCH   1  19
HETATM   19  N1  UNL     1      52.425  28.561  38.400  1.00  0.00    -0.359 N 
BRANCH  19  20
HETATM   20  C4  UNL     1      53.436  29.385  39.013  1.00  0.00     0.128 C 
BRANCH  20  21
HETATM   21  C3  UNL     1      54.802  28.747  39.152  1.00  0.00     0.020 C 
BRANCH  21  22
HETATM   22  C2  UNL     1      55.851  29.503  38.379  1.00  0.00    -0.003 C 
HETATM   23  C1  UNL     1      57.049  28.689  38.039  1.00  0.00     0.005 C 
ENDBRANCH  21  22
ENDBRANCH  20  21
ENDBRANCH  19  20
BRANCH  19  24
HETATM   24  C5  UNL     1      51.743  27.608  39.223  1.00  0.00     0.064 C 
BRANCH  24  25
HETATM   25  C6  UNL     1      52.039  26.238  39.521  1.00  0.00     0.044 C 
BRANCH  25  26
HETATM   26  C7  UNL     1      51.028  25.397  40.247  1.00  0.00     0.001 C 
HETATM   27  C8  UNL     1      51.661  24.019  40.593  1.00  0.00     0.005 C 
ENDBRANCH  25  26
ENDBRANCH  24  25
ENDBRANCH  19  24
ENDBRANCH   1  19
BRANCH  18  28
HETATM   28  C22 UNL     1      48.774  30.930  34.084  1.00  0.00     0.136 C 
BRANCH  28  29
HETATM   29  C23 UNL     1      47.303  30.858  34.192  1.00  0.00     0.031 C 
HETATM   30  C24 UNL     1      46.601  32.196  34.296  1.00  0.00     0.035 C 
HETATM   31  C25 UNL     1      45.807  32.267  33.020  1.00  0.00     0.232 C 
HETATM   32  N5  UNL     1      46.197  31.145  32.186  1.00  0.00    -0.075 N 
HETATM   33  C26 UNL     1      46.574  30.106  33.132  1.00  0.00     0.238 C 
ATOM     34  H52 UNL     1      45.485  30.858  31.514  1.00  0.00     0.277 HD
ATOM     35  H51 UNL     1      46.919  31.365  31.500  1.00  0.00     0.277 HD
ENDBRANCH  28  29
ENDBRANCH  18  28
TORSDOF 9
ENDMDL
MODEL 5
REMARK VINA RESULT: -6.714621438      1.180      3.243
REMARK  9 active torsions:
REMARK  status: ('A' for Active; 'I' for Inactive)
REMARK    1  A    between atoms: C2_2  and  C3_3 
REMARK    2  A    between atoms: C3_3  and  C4_4 
REMARK    3  A    between atoms: C4_4  and  N1_5 
REMARK    4  A    between atoms: N1_5  and  C5_6 
REMARK    5  A    between atoms: N1_5  and  C9_10 
REMARK    6  A    between atoms: C5_6  and  C6_7 
REMARK    7  A    between atoms: C6_7  and  C7_8 
REMARK    8  A    between atoms: N4_27  and  C22_28 
REMARK    9  A    between atoms: C22_28  and  C23_29 
ROOT
HETATM    1  C9  UNL     1      52.253  28.452  37.780  1.00  0.00     0.065 A 
HETATM    2  C10 UNL     1      51.278  29.397  37.640  1.00  0.00     0.058 A 
HETATM    3  C11 UNL     1      50.716  30.120  38.658  1.00  0.00     0.131 A 
HETATM    4  F1  UNL     1      51.113  29.898  39.898  1.00  0.00    -0.205 F 
HETATM    5  C12 UNL     1      49.718  31.077  38.517  1.00  0.00     0.044 A 
HETATM    6  C13 UNL     1      49.249  31.321  37.249  1.00  0.00     0.012 A 
HETATM    7  C14 UNL     1      49.761  30.634  36.174  1.00  0.00    -0.034 A 
HETATM    8  C15 UNL     1      49.255  30.902  34.810  1.00  0.00     0.050 C 
HETATM    9  C16 UNL     1      50.746  29.697  36.361  1.00  0.00     0.055 A 
HETATM   10  N2  UNL     1      51.190  29.064  35.293  1.00  0.00    -0.340 N 
ATOM     11  H2  UNL     1      50.794  29.297  34.382  1.00  0.00     0.167 HD
HETATM   12  C17 UNL     1      52.133  28.134  35.365  1.00  0.00     0.122 A 
HETATM   13  C18 UNL     1      52.676  27.817  36.614  1.00  0.00     0.058 A 
HETATM   14  C19 UNL     1      53.584  26.861  36.386  1.00  0.00     0.076 A 
HETATM   15  C20 UNL     1      54.414  26.153  37.290  1.00  0.00     0.102 C 
HETATM   16  N3  UNL     1      55.116  25.540  38.013  1.00  0.00    -0.191 NA
HETATM   17  C21 UNL     1      53.577  26.616  34.996  1.00  0.00     0.116 A 
HETATM   18  N4  UNL     1      52.681  27.408  34.393  1.00  0.00    -0.341 N 
ENDROOT
BRANCH   1  19
HETATM   19  N1  UNL     1      52.852  28.171  39.039  1.00  0.00    -0.359 N 
BRANCH  19  20
HETATM   20  C4  UNL     1      52.477  27.084  39.908  1.00  0.00     0.128 C 
BRANCH  20  21
HETATM   21  C3  UNL     1      51.195  26.368  39.540  1.00  0.00     0.020 C 
BRANCH  21  22
HETATM   22  C2  UNL     1      51.052  25.064  40.282  1.00  0.00    -0.003 C 
HETATM   23  C1  UNL     1      52.287  24.233  40.279  1.00  0.00     0.005 C 
ENDBRANCH  21  22
ENDBRANCH  20  21
ENDBRANCH  19  20
BRANCH  19  24
HETATM   24  C5  UNL     1      53.968  28.983  39.420  1.00  0.00     0.064 C 
BRANCH  24  25
HETATM   25  C6  UNL     1      54.946  29.671  38.630  1.00  0.00     0.044 C 
BRANCH  25  26
HETATM   26  C7  UNL     1      56.283  29.034  38.376  1.00  0.00     0.001 C 
HETATM   27  C8  UNL     1      56.596  29.089  36.854  1.00  0.00     0.005 C 
ENDBRANCH  25  26
ENDBRANCH  24  25
ENDBRANCH  19  24
ENDBRANCH   1  19
BRANCH  18  28
HETATM   28  C22 UNL     1      52.410  27.430  32.970  1.00  0.00     0.136 C 
BRANCH  28  29
HETATM   29  C23 UNL     1      53.271  28.301  32.145  1.00  0.00     0.031 C 
HETATM   30  C24 UNL     1      54.719  28.370  32.581  1.00  0.00     0.035 C 
HETATM   31  C25 UNL     1      55.454  27.732  31.432  1.00  0.00     0.232 C 
HETATM   32  N5  UNL     1      54.469  27.176  30.523  1.00  0.00    -0.075 N 
HETATM   33  C26 UNL     1      53.307  28.037  30.678  1.00  0.00     0.238 C 
ATOM     34  H52 UNL     1      54.794  27.084  29.561  1.00  0.00     0.277 HD
ATOM     35  H51 UNL     1      54.276  26.185  30.673  1.00  0.00     0.277 HD
ENDBRANCH  28  29
ENDBRANCH  18  28
TORSDOF 9
ENDMDL
