MODEL 1
REMARK VINA RESULT: -8.313864882      0.000      0.000
REMARK  7 active torsions:
REMARK  status: ('A' for Active; 'I' for Inactive)
REMARK    1  A    between atoms: O1_2  and  C2_3 
REMARK    2  A    between atoms: C4_5  and  C5_6 
REMARK       I    between atoms: C5_6  and  N1_8 
REMARK    3  A    between atoms: N1_8  and  C6_10 
REMARK    4  A    between atoms: C6_10  and  C7_11 
REMARK       I    between atoms: C7_11  and  N2_13 
REMARK    5  A    between atoms: N2_13  and  S1_15 
REMARK    6  A    between atoms: S1_15  and  C8_18 
REMARK    7  A    between atoms: C14_25  and  O6_26 
ROOT
HETATM    1  C5  UNL     1      35.788  29.391  19.351  1.00  0.00     0.227 C 
HETATM    2  O2  UNL     1      36.952  28.999  19.583  1.00  0.00    -0.273 OA
HETATM    3  N1  UNL     1      34.854  28.453  18.876  1.00  0.00    -0.340 N 
ATOM      4  H1  UNL     1      33.901  28.770  18.696  1.00  0.00     0.163 HD
ENDROOT
BRANCH   1   5
HETATM    5  C4  UNL     1      35.395  30.846  19.574  1.00  0.00     0.107 C 
HETATM    6  C3  UNL     1      34.982  31.084  20.938  1.00  0.00     0.026 C 
HETATM    7  C2  UNL     1      34.568  32.088  21.645  1.00  0.00     0.082 C 
HETATM    8  C24 UNL     1      34.336  33.486  21.334  1.00  0.00     0.040 C 
HETATM    9  C23 UNL     1      33.622  34.055  20.414  1.00  0.00    -0.004 C 
HETATM   10 BR1  UNL     1      35.226  34.743  22.566  1.00  0.00    -0.048 Br
HETATM   11  C22 UNL     1      32.784  33.484  19.351  1.00  0.00     0.038 C 
HETATM   12  C20 UNL     1      32.947  34.191  18.031  1.00  0.00     0.030 C 
HETATM   13  C19 UNL     1      34.129  33.892  17.255  1.00  0.00    -0.016 C 
HETATM   14  C21 UNL     1      31.721  33.774  17.201  1.00  0.00     0.016 C 
HETATM   15  C18 UNL     1      35.539  33.812  17.793  1.00  0.00     0.052 C 
HETATM   16  N3  UNL     1      34.068  33.664  15.974  1.00  0.00    -0.405 N 
HETATM   17  C17 UNL     1      35.972  32.401  17.697  1.00  0.00     0.011 C 
HETATM   18  C15 UNL     1      36.450  31.731  18.957  1.00  0.00    -0.002 C 
HETATM   19  C16 UNL     1      37.235  32.569  19.895  1.00  0.00     0.011 C 
ATOM     20  H32 UNL     1      34.902  33.453  15.426  1.00  0.00     0.155 HD
ATOM     21  H31 UNL     1      33.116  33.718  15.610  1.00  0.00     0.155 HD
BRANCH   7  22
HETATM   22  O1  UNL     1      34.262  31.809  23.043  1.00  0.00    -0.355 OA
HETATM   23  C1  UNL     1      33.680  30.546  23.326  1.00  0.00     0.210 C 
ENDBRANCH   7  22
ENDBRANCH   1   5
BRANCH   3  24
HETATM   24  C6  UNL     1      35.172  27.055  18.628  1.00  0.00     0.141 C 
HETATM   25  C9  UNL     1      33.988  26.175  18.921  1.00  0.00     0.052 C 
HETATM   26  C10 UNL     1      34.309  25.362  20.133  1.00  0.00    -0.043 C 
HETATM   27  C11 UNL     1      33.756  25.981  21.401  1.00  0.00     0.015 C 
HETATM   28  C12 UNL     1      33.704  23.959  20.039  1.00  0.00     0.015 C 
HETATM   29  C13 UNL     1      35.807  25.315  20.158  1.00  0.00     0.043 C 
HETATM   30  C14 UNL     1      36.249  26.610  19.533  1.00  0.00     0.156 C 
BRANCH  24  31
HETATM   31  C7  UNL     1      35.612  26.924  17.214  1.00  0.00     0.262 C 
HETATM   32  O3  UNL     1      35.750  25.780  16.721  1.00  0.00    -0.270 OA
HETATM   33  N2  UNL     1      35.892  28.022  16.368  1.00  0.00    -0.251 N 
ATOM     34  H2  UNL     1      35.786  28.969  16.732  1.00  0.00     0.181 HD
BRANCH  33  35
HETATM   35  S1  UNL     1      36.409  27.804  14.737  1.00  0.00     0.245 S 
HETATM   36  O4  UNL     1      35.333  27.113  13.945  1.00  0.00    -0.204 OA
HETATM   37  O5  UNL     1      36.665  29.155  14.113  1.00  0.00    -0.204 OA
BRANCH  35  38
HETATM   38  C8  UNL     1      37.878  26.820  14.724  1.00  0.00     0.277 C 
HETATM   39 CL1  UNL     1      39.041  27.332  13.503  1.00  0.00    -0.113 Cl
ENDBRANCH  35  38
ENDBRANCH  33  35
ENDBRANCH  24  31
BRANCH  30  40
HETATM   40  O6  UNL     1      37.449  26.369  18.849  1.00  0.00    -0.393 OA
ATOM     41  H6  UNL     1      37.314  25.871  18.052  1.00  0.00     0.210 HD
ENDBRANCH  30  40
ENDBRANCH   3  24
TORSDOF 7
ENDMDL
MODEL 2
REMARK VINA RESULT: -8.034144494      3.561      4.896
REMARK  7 active torsions:
REMARK  status: ('A' for Active; 'I' for Inactive)
REMARK    1  A    between atoms: O1_2  and  C2_3 
REMARK    2  A    between atoms: C4_5  and  C5_6 
REMARK       I    between atoms: C5_6  and  N1_8 
REMARK    3  A    between atoms: N1_8  and  C6_10 
REMARK    4  A    between atoms: C6_10  and  C7_11 
REMARK       I    between atoms: C7_11  and  N2_13 
REMARK    5  A    between atoms: N2_13  and  S1_15 
REMARK    6  A    between atoms: S1_15  and  C8_18 
REMARK    7  A    between atoms: C14_25  and  O6_26 
ROOT
HETATM    1  C5  UNL     1      35.446  29.161  20.073  1.00  0.00     0.227 C 
HETATM    2  O2  UNL     1      36.510  28.706  19.598  1.00  0.00    -0.273 OA
HETATM    3  N1  UNL     1      34.514  28.251  20.601  1.00  0.00    -0.340 N 
ATOM      4  H1  UNL     1      33.650  28.622  20.999  1.00  0.00     0.163 HD
ENDROOT
BRANCH   1   5
HETATM    5  C4  UNL     1      35.171  30.659  20.075  1.00  0.00     0.107 C 
HETATM    6  C3  UNL     1      34.787  31.129  21.388  1.00  0.00     0.026 C 
HETATM    7  C2  UNL     1      34.459  32.256  21.935  1.00  0.00     0.082 C 
HETATM    8  C24 UNL     1      34.334  33.607  21.419  1.00  0.00     0.040 C 
HETATM    9  C23 UNL     1      33.660  34.086  20.421  1.00  0.00    -0.004 C 
HETATM   10 BR1  UNL     1      35.329  34.959  22.454  1.00  0.00    -0.048 Br
HETATM   11  C22 UNL     1      32.772  33.432  19.451  1.00  0.00     0.038 C 
HETATM   12  C20 UNL     1      32.980  33.920  18.042  1.00  0.00     0.030 C 
HETATM   13  C19 UNL     1      34.129  33.416  17.324  1.00  0.00    -0.016 C 
HETATM   14  C21 UNL     1      31.719  33.481  17.278  1.00  0.00     0.016 C 
HETATM   15  C18 UNL     1      35.533  33.307  17.874  1.00  0.00     0.052 C 
HETATM   16  N3  UNL     1      34.041  33.006  16.090  1.00  0.00    -0.405 N 
HETATM   17  C17 UNL     1      35.853  31.867  17.991  1.00  0.00     0.011 C 
HETATM   18  C15 UNL     1      36.287  31.357  19.338  1.00  0.00    -0.002 C 
HETATM   19  C16 UNL     1      37.142  32.261  20.145  1.00  0.00     0.011 C 
ATOM     20  H32 UNL     1      34.852  32.651  15.584  1.00  0.00     0.155 HD
ATOM     21  H31 UNL     1      33.094  33.079  15.719  1.00  0.00     0.155 HD
BRANCH   7  22
HETATM   22  O1  UNL     1      34.142  32.213  23.357  1.00  0.00    -0.355 OA
HETATM   23  C1  UNL     1      33.960  30.927  23.929  1.00  0.00     0.210 C 
ENDBRANCH   7  22
ENDBRANCH   1   5
BRANCH   3  24
HETATM   24  C6  UNL     1      34.712  26.809  20.613  1.00  0.00     0.141 C 
HETATM   25  C9  UNL     1      35.898  26.423  19.773  1.00  0.00     0.052 C 
HETATM   26  C10 UNL     1      35.391  25.693  18.571  1.00  0.00    -0.043 C 
HETATM   27  C11 UNL     1      35.242  26.604  17.369  1.00  0.00     0.015 C 
HETATM   28  C12 UNL     1      36.351  24.579  18.151  1.00  0.00     0.015 C 
HETATM   29  C13 UNL     1      34.066  25.144  19.007  1.00  0.00     0.043 C 
HETATM   30  C14 UNL     1      33.546  26.132  20.015  1.00  0.00     0.156 C 
BRANCH  24  31
HETATM   31  C7  UNL     1      34.880  26.377  22.025  1.00  0.00     0.262 C 
HETATM   32  O3  UNL     1      35.432  25.278  22.266  1.00  0.00    -0.270 OA
HETATM   33  N2  UNL     1      34.452  27.134  23.141  1.00  0.00    -0.251 N 
ATOM     34  H2  UNL     1      34.002  28.036  22.986  1.00  0.00     0.181 HD
BRANCH  33  35
HETATM   35  S1  UNL     1      34.668  26.572  24.757  1.00  0.00     0.245 S 
HETATM   36  O4  UNL     1      34.215  27.623  25.732  1.00  0.00    -0.204 OA
HETATM   37  O5  UNL     1      33.829  25.334  24.968  1.00  0.00    -0.204 OA
BRANCH  35  38
HETATM   38  C8  UNL     1      36.380  26.219  25.021  1.00  0.00     0.277 C 
HETATM   39 CL1  UNL     1      36.968  26.782  26.584  1.00  0.00    -0.113 Cl
ENDBRANCH  35  38
ENDBRANCH  33  35
ENDBRANCH  24  31
BRANCH  30  40
HETATM   40  O6  UNL     1      32.800  25.421  20.967  1.00  0.00    -0.393 OA
ATOM     41  H6  UNL     1      33.347  24.860  21.505  1.00  0.00     0.210 HD
ENDBRANCH  30  40
ENDBRANCH   3  24
TORSDOF 7
ENDMDL
MODEL 3
REMARK VINA RESULT: -7.959188178      3.012      6.934
REMARK  7 active torsions:
REMARK  status: ('A' for Active; 'I' for Inactive)
REMARK    1  A    between atoms: O1_2  and  C2_3 
REMARK    2  A    between atoms: C4_5  and  C5_6 
REMARK       I    between atoms: C5_6  and  N1_8 
REMARK    3  A    between atoms: N1_8  and  C6_10 
REMARK    4  A    between atoms: C6_10  and  C7_11 
REMARK       I    between atoms: C7_11  and  N2_13 
REMARK    5  A    between atoms: N2_13  and  S1_15 
REMARK    6  A    between atoms: S1_15  and  C8_18 
REMARK    7  A    between atoms: C14_25  and  O6_26 
ROOT
HETATM    1  C5  UNL     1      34.202  31.254  21.956  1.00  0.00     0.227 C 
HETATM    2  O2  UNL     1      33.584  32.339  21.869  1.00  0.00    -0.273 OA
HETATM    3  N1  UNL     1      35.240  31.008  21.041  1.00  0.00    -0.340 N 
ATOM      4  H1  UNL     1      35.752  30.129  21.118  1.00  0.00     0.163 HD
ENDROOT
BRANCH   1   5
HETATM    5  C4  UNL     1      33.836  30.231  23.024  1.00  0.00     0.107 C 
HETATM    6  C3  UNL     1      33.671  30.849  24.320  1.00  0.00     0.026 C 
HETATM    7  C2  UNL     1      33.371  30.469  25.522  1.00  0.00     0.082 C 
HETATM    8  C24 UNL     1      33.056  29.176  26.101  1.00  0.00     0.040 C 
HETATM    9  C23 UNL     1      33.694  28.048  26.083  1.00  0.00    -0.004 C 
HETATM   10 BR1  UNL     1      31.382  29.148  27.144  1.00  0.00    -0.048 Br
HETATM   11  C22 UNL     1      34.975  27.672  25.470  1.00  0.00     0.038 C 
HETATM   12  C20 UNL     1      34.929  26.327  24.793  1.00  0.00     0.030 C 
HETATM   13  C19 UNL     1      34.291  26.253  23.498  1.00  0.00    -0.016 C 
HETATM   14  C21 UNL     1      36.402  25.920  24.616  1.00  0.00     0.016 C 
HETATM   15  C18 UNL     1      32.966  26.881  23.131  1.00  0.00     0.052 C 
HETATM   16  N3  UNL     1      34.830  25.605  22.504  1.00  0.00    -0.405 N 
HETATM   17  C17 UNL     1      33.241  27.959  22.155  1.00  0.00     0.011 C 
HETATM   18  C15 UNL     1      32.744  29.340  22.484  1.00  0.00    -0.002 C 
HETATM   19  C16 UNL     1      31.430  29.427  23.166  1.00  0.00     0.011 C 
ATOM     20  H32 UNL     1      34.380  25.552  21.591  1.00  0.00     0.155 HD
ATOM     21  H31 UNL     1      35.724  25.180  22.751  1.00  0.00     0.155 HD
BRANCH   7  22
HETATM   22  O1  UNL     1      33.329  31.515  26.536  1.00  0.00    -0.355 OA
HETATM   23  C1  UNL     1      33.346  32.855  26.067  1.00  0.00     0.210 C 
ENDBRANCH   7  22
ENDBRANCH   1   5
BRANCH   3  24
HETATM   24  C6  UNL     1      35.626  31.938  19.990  1.00  0.00     0.141 C 
HETATM   25  C9  UNL     1      36.933  32.607  20.318  1.00  0.00     0.052 C 
HETATM   26  C10 UNL     1      36.652  34.048  20.598  1.00  0.00    -0.043 C 
HETATM   27  C11 UNL     1      36.507  34.326  22.081  1.00  0.00     0.015 C 
HETATM   28  C12 UNL     1      37.791  34.943  20.102  1.00  0.00     0.015 C 
HETATM   29  C13 UNL     1      35.375  34.323  19.863  1.00  0.00     0.043 C 
HETATM   30  C14 UNL     1      34.628  33.018  19.876  1.00  0.00     0.156 C 
BRANCH  24  31
HETATM   31  C7  UNL     1      35.706  31.184  18.711  1.00  0.00     0.262 C 
HETATM   32  O3  UNL     1      36.262  31.716  17.723  1.00  0.00    -0.270 OA
HETATM   33  N2  UNL     1      35.186  29.881  18.527  1.00  0.00    -0.251 N 
ATOM     34  H2  UNL     1      34.731  29.413  19.311  1.00  0.00     0.181 HD
BRANCH  33  35
HETATM   35  S1  UNL     1      35.302  29.062  17.014  1.00  0.00     0.245 S 
HETATM   36  O4  UNL     1      34.316  29.643  16.039  1.00  0.00    -0.204 OA
HETATM   37  O5  UNL     1      36.692  29.249  16.455  1.00  0.00    -0.204 OA
BRANCH  35  38
HETATM   38  C8  UNL     1      34.951  27.347  17.259  1.00  0.00     0.277 C 
HETATM   39 CL1  UNL     1      36.137  26.285  16.503  1.00  0.00    -0.113 Cl
ENDBRANCH  35  38
ENDBRANCH  33  35
ENDBRANCH  24  31
BRANCH  30  40
HETATM   40  O6  UNL     1      33.891  32.934  18.686  1.00  0.00    -0.393 OA
ATOM     41  H6  UNL     1      34.445  32.993  17.916  1.00  0.00     0.210 HD
ENDBRANCH  30  40
ENDBRANCH   3  24
TORSDOF 7
ENDMDL
MODEL 4
REMARK VINA RESULT: -7.927436960      3.023      3.935
REMARK  7 active torsions:
REMARK  status: ('A' for Active; 'I' for Inactive)
REMARK    1  A    between atoms: O1_2  and  C2_3 
REMARK    2  A    between atoms: C4_5  and  C5_6 
REMARK       I    between atoms: C5_6  and  N1_8 
REMARK    3  A    between atoms: N1_8  and  C6_10 
REMARK    4  A    between atoms: C6_10  and  C7_11 
REMARK       I    between atoms: C7_11  and  N2_13 
REMARK    5  A    between atoms: N2_13  and  S1_15 
REMARK    6  A    between atoms: S1_15  and  C8_18 
REMARK    7  A    between atoms: C14_25  and  O6_26 
ROOT
HETATM    1  C5  UNL     1      33.884  30.245  17.249  1.00  0.00     0.227 C 
HETATM    2  O2  UNL     1      33.051  29.341  17.478  1.00  0.00    -0.273 OA
HETATM    3  N1  UNL     1      34.926  29.972  16.345  1.00  0.00    -0.340 N 
ATOM      4  H1  UNL     1      35.601  30.712  16.149  1.00  0.00     0.163 HD
ENDROOT
BRANCH   1   5
HETATM    5  C4  UNL     1      33.773  31.601  17.933  1.00  0.00     0.107 C 
HETATM    6  C3  UNL     1      34.288  31.561  19.284  1.00  0.00     0.026 C 
HETATM    7  C2  UNL     1      34.436  32.388  20.269  1.00  0.00     0.082 C 
HETATM    8  C24 UNL     1      34.123  33.796  20.434  1.00  0.00     0.040 C 
HETATM    9  C23 UNL     1      33.022  34.457  20.262  1.00  0.00    -0.004 C 
HETATM   10 BR1  UNL     1      35.634  34.885  21.084  1.00  0.00    -0.048 Br
HETATM   11  C22 UNL     1      31.686  34.017  19.841  1.00  0.00     0.038 C 
HETATM   12  C20 UNL     1      31.042  34.956  18.855  1.00  0.00     0.030 C 
HETATM   13  C19 UNL     1      31.490  34.894  17.482  1.00  0.00    -0.016 C 
HETATM   14  C21 UNL     1      29.547  34.592  18.877  1.00  0.00     0.016 C 
HETATM   15  C18 UNL     1      32.932  34.836  17.029  1.00  0.00     0.052 C 
HETATM   16  N3  UNL     1      30.652  34.891  16.486  1.00  0.00    -0.405 N 
HETATM   17  C17 UNL     1      33.154  33.503  16.427  1.00  0.00     0.011 C 
HETATM   18  C15 UNL     1      34.271  32.664  16.984  1.00  0.00    -0.002 C 
HETATM   19  C16 UNL     1      35.501  33.384  17.392  1.00  0.00     0.011 C 
ATOM     20  H32 UNL     1      30.969  34.848  15.518  1.00  0.00     0.155 HD
ATOM     21  H31 UNL     1      29.679  34.930  16.792  1.00  0.00     0.155 HD
BRANCH   7  22
HETATM   22  O1  UNL     1      35.033  31.845  21.483  1.00  0.00    -0.355 OA
HETATM   23  C1  UNL     1      34.157  31.618  22.576  1.00  0.00     0.210 C 
ENDBRANCH   7  22
ENDBRANCH   1   5
BRANCH   3  24
HETATM   24  C6  UNL     1      35.095  28.693  15.672  1.00  0.00     0.141 C 
HETATM   25  C9  UNL     1      35.102  27.562  16.663  1.00  0.00     0.052 C 
HETATM   26  C10 UNL     1      36.484  26.992  16.700  1.00  0.00    -0.043 C 
HETATM   27  C11 UNL     1      37.310  27.565  17.834  1.00  0.00     0.015 C 
HETATM   28  C12 UNL     1      36.456  25.477  16.911  1.00  0.00     0.015 C 
HETATM   29  C13 UNL     1      37.065  27.352  15.366  1.00  0.00     0.043 C 
HETATM   30  C14 UNL     1      36.401  28.647  14.987  1.00  0.00     0.156 C 
BRANCH  24  31
HETATM   31  C7  UNL     1      33.997  28.541  14.681  1.00  0.00     0.262 C 
HETATM   32  O3  UNL     1      33.602  29.549  14.049  1.00  0.00    -0.270 OA
HETATM   33  N2  UNL     1      33.353  27.315  14.397  1.00  0.00    -0.251 N 
ATOM     34  H2  UNL     1      33.650  26.472  14.888  1.00  0.00     0.181 HD
BRANCH  33  35
HETATM   35  S1  UNL     1      32.077  27.206  13.241  1.00  0.00     0.245 S 
HETATM   36  O4  UNL     1      32.133  28.378  12.301  1.00  0.00    -0.204 OA
HETATM   37  O5  UNL     1      32.244  25.940  12.435  1.00  0.00    -0.204 OA
BRANCH  35  38
HETATM   38  C8  UNL     1      30.527  27.205  14.093  1.00  0.00     0.277 C 
HETATM   39 CL1  UNL     1      30.408  28.472  15.312  1.00  0.00    -0.113 Cl
ENDBRANCH  35  38
ENDBRANCH  33  35
ENDBRANCH  24  31
BRANCH  30  40
HETATM   40  O6  UNL     1      36.268  28.669  13.591  1.00  0.00    -0.393 OA
ATOM     41  H6  UNL     1      37.075  28.920  13.158  1.00  0.00     0.210 HD
ENDBRANCH  30  40
ENDBRANCH   3  24
TORSDOF 7
ENDMDL
MODEL 5
REMARK VINA RESULT: -7.866264167      4.772      7.028
REMARK  7 active torsions:
REMARK  status: ('A' for Active; 'I' for Inactive)
REMARK    1  A    between atoms: O1_2  and  C2_3 
REMARK    2  A    between atoms: C4_5  and  C5_6 
REMARK       I    between atoms: C5_6  and  N1_8 
REMARK    3  A    between atoms: N1_8  and  C6_10 
REMARK    4  A    between atoms: C6_10  and  C7_11 
REMARK       I    between atoms: C7_11  and  N2_13 
REMARK    5  A    between atoms: N2_13  and  S1_15 
REMARK    6  A    between atoms: S1_15  and  C8_18 
REMARK    7  A    between atoms: C14_25  and  O6_26 
ROOT
HETATM    1  C5  UNL     1      34.028  30.222  21.952  1.00  0.00     0.227 C 
HETATM    2  O2  UNL     1      34.113  29.105  21.395  1.00  0.00    -0.273 OA
HETATM    3  N1  UNL     1      33.480  30.276  23.246  1.00  0.00    -0.340 N 
ATOM      4  H1  UNL     1      33.420  31.185  23.706  1.00  0.00     0.163 HD
ENDROOT
BRANCH   1   5
HETATM    5  C4  UNL     1      34.501  31.485  21.246  1.00  0.00     0.107 C 
HETATM    6  C3  UNL     1      35.132  31.184  19.980  1.00  0.00     0.026 C 
HETATM    7  C2  UNL     1      35.686  31.845  19.014  1.00  0.00     0.082 C 
HETATM    8  C24 UNL     1      35.917  33.260  18.788  1.00  0.00     0.040 C 
HETATM    9  C23 UNL     1      36.498  34.162  19.515  1.00  0.00    -0.004 C 
HETATM   10 BR1  UNL     1      35.276  33.911  17.040  1.00  0.00    -0.048 Br
HETATM   11  C22 UNL     1      37.138  34.076  20.834  1.00  0.00     0.038 C 
HETATM   12  C20 UNL     1      36.795  35.236  21.731  1.00  0.00     0.030 C 
HETATM   13  C19 UNL     1      35.496  35.229  22.365  1.00  0.00    -0.016 C 
HETATM   14  C21 UNL     1      37.860  35.211  22.841  1.00  0.00     0.016 C 
HETATM   15  C18 UNL     1      34.185  34.906  21.685  1.00  0.00     0.052 C 
HETATM   16  N3  UNL     1      35.347  35.520  23.626  1.00  0.00    -0.405 N 
HETATM   17  C17 UNL     1      33.693  33.631  22.253  1.00  0.00     0.011 C 
HETATM   18  C15 UNL     1      33.395  32.510  21.295  1.00  0.00    -0.002 C 
HETATM   19  C16 UNL     1      32.797  32.893  19.993  1.00  0.00     0.011 C 
ATOM     20  H32 UNL     1      34.430  35.516  24.073  1.00  0.00     0.155 HD
ATOM     21  H31 UNL     1      36.231  35.739  24.086  1.00  0.00     0.155 HD
BRANCH   7  22
HETATM   22  O1  UNL     1      36.198  31.053  17.902  1.00  0.00    -0.355 OA
HETATM   23  C1  UNL     1      35.629  29.764  17.726  1.00  0.00     0.210 C 
ENDBRANCH   7  22
ENDBRANCH   1   5
BRANCH   3  24
HETATM   24  C6  UNL     1      32.995  29.109  23.966  1.00  0.00     0.141 C 
HETATM   25  C9  UNL     1      32.267  28.172  23.042  1.00  0.00     0.052 C 
HETATM   26  C10 UNL     1      30.819  28.197  23.410  1.00  0.00    -0.043 C 
HETATM   27  C11 UNL     1      30.024  29.154  22.545  1.00  0.00     0.015 C 
HETATM   28  C12 UNL     1      30.175  26.820  23.233  1.00  0.00     0.015 C 
HETATM   29  C13 UNL     1      30.813  28.627  24.846  1.00  0.00     0.043 C 
HETATM   30  C14 UNL     1      32.018  29.515  24.994  1.00  0.00     0.156 C 
BRANCH  24  31
HETATM   31  C7  UNL     1      34.160  28.444  24.609  1.00  0.00     0.262 C 
HETATM   32  O3  UNL     1      35.073  29.150  25.096  1.00  0.00    -0.270 OA
HETATM   33  N2  UNL     1      34.313  27.041  24.709  1.00  0.00    -0.251 N 
ATOM     34  H2  UNL     1      33.588  26.434  24.328  1.00  0.00     0.181 HD
BRANCH  33  35
HETATM   35  S1  UNL     1      35.694  26.330  25.459  1.00  0.00     0.245 S 
HETATM   36  O4  UNL     1      35.690  24.843  25.238  1.00  0.00    -0.204 OA
HETATM   37  O5  UNL     1      36.945  26.902  24.837  1.00  0.00    -0.204 OA
BRANCH  35  38
HETATM   38  C8  UNL     1      35.647  26.670  27.194  1.00  0.00     0.277 C 
HETATM   39 CL1  UNL     1      37.223  27.102  27.856  1.00  0.00    -0.113 Cl
ENDBRANCH  35  38
ENDBRANCH  33  35
ENDBRANCH  24  31
BRANCH  30  40
HETATM   40  O6  UNL     1      32.516  29.349  26.294  1.00  0.00    -0.393 OA
ATOM     41  H6  UNL     1      32.349  28.478  26.634  1.00  0.00     0.210 HD
ENDBRANCH  30  40
ENDBRANCH   3  24
TORSDOF 7
ENDMDL
