MODEL 1
REMARK VINA RESULT: -7.889776668      0.000      0.000
REMARK  2 active torsions:
REMARK  status: ('A' for Active; 'I' for Inactive)
REMARK       I    between atoms: N1_2  and  C2_4 
REMARK       I    between atoms: C2_4  and  N2_6 
REMARK    1  A    between atoms: N2_6  and  C3_8 
REMARK    2  A    between atoms: C3_8  and  C4_9 
ROOT
HETATM    1  C4  UNL     1      -3.647   3.192  12.952  1.00  0.00     0.150 C 
HETATM    2  C5  UNL     1      -2.767   3.989  11.977  1.00  0.00     0.136 C 
HETATM    3  C6  UNL     1      -3.386   3.637  10.614  1.00  0.00     0.287 C 
HETATM    4  O2  UNL     1      -4.609   4.345  10.601  1.00  0.00    -0.331 OA
HETATM    5  C7  UNL     1      -4.280   5.590  10.055  1.00  0.00     0.200 C 
HETATM    6  C8  UNL     1      -3.352   5.117   8.928  1.00  0.00     0.200 C 
HETATM    7  O3  UNL     1      -2.618   4.162   9.586  1.00  0.00    -0.331 OA
HETATM    8  O4  UNL     1      -3.545   2.313  10.416  1.00  0.00    -0.295 OA
HETATM    9  C9  UNL     1      -3.476   1.447  11.430  1.00  0.00     0.170 C 
HETATM   10  C10 UNL     1      -4.689   0.513  11.372  1.00  0.00     0.069 C 
HETATM   11  C11 UNL     1      -4.378  -0.356  10.163  1.00  0.00     0.006 C 
HETATM   12  C12 UNL     1      -2.914  -0.682  10.410  1.00  0.00     0.006 C 
HETATM   13  C13 UNL     1      -2.320   0.473  11.145  1.00  0.00     0.069 C 
HETATM   14  O5  UNL     1      -3.344   1.878  12.699  1.00  0.00    -0.348 OA
ENDROOT
BRANCH   1  15
HETATM   15  C3  UNL     1      -3.365   3.565  14.373  1.00  0.00     0.156 C 
BRANCH  15  16
HETATM   16  N2  UNL     1      -4.495   3.354  15.220  1.00  0.00    -0.341 N 
HETATM   17  C2  UNL     1      -4.550   2.186  16.033  1.00  0.00     0.315 C 
HETATM   18  N1  UNL     1      -5.654   1.925  16.897  1.00  0.00    -0.347 N 
HETATM   19  O1  UNL     1      -3.607   1.348  16.004  1.00  0.00    -0.247 OA
HETATM   20  C1  UNL     1      -5.679   0.728  17.711  1.00  0.00     0.151 C 
ATOM     21  H1  UNL     1      -6.430   2.584  16.942  1.00  0.00     0.163 HD
ATOM     22  H2  UNL     1      -5.256   4.032  15.242  1.00  0.00     0.164 HD
ENDBRANCH  15  16
ENDBRANCH   1  15
TORSDOF 2
ENDMDL
MODEL 2
REMARK VINA RESULT: -7.412280128      2.615      5.450
REMARK  2 active torsions:
REMARK  status: ('A' for Active; 'I' for Inactive)
REMARK       I    between atoms: N1_2  and  C2_4 
REMARK       I    between atoms: C2_4  and  N2_6 
REMARK    1  A    between atoms: N2_6  and  C3_8 
REMARK    2  A    between atoms: C3_8  and  C4_9 
ROOT
HETATM    1  C4  UNL     1      -3.620   4.012  13.802  1.00  0.00     0.150 C 
HETATM    2  C5  UNL     1      -3.135   2.715  13.137  1.00  0.00     0.136 C 
HETATM    3  C6  UNL     1      -4.432   1.898  13.026  1.00  0.00     0.287 C 
HETATM    4  O2  UNL     1      -5.154   2.541  11.996  1.00  0.00    -0.331 OA
HETATM    5  C7  UNL     1      -4.730   1.900  10.827  1.00  0.00     0.200 C 
HETATM    6  C8  UNL     1      -4.732   0.452  11.337  1.00  0.00     0.200 C 
HETATM    7  O3  UNL     1      -4.158   0.617  12.574  1.00  0.00    -0.331 OA
HETATM    8  O4  UNL     1      -5.124   1.820  14.181  1.00  0.00    -0.295 OA
HETATM    9  C9  UNL     1      -4.866   2.641  15.201  1.00  0.00     0.170 C 
HETATM   10  C10 UNL     1      -6.182   3.246  15.702  1.00  0.00     0.069 C 
HETATM   11  C11 UNL     1      -6.850   2.062  16.382  1.00  0.00     0.006 C 
HETATM   12  C12 UNL     1      -5.685   1.485  17.171  1.00  0.00     0.006 C 
HETATM   13  C13 UNL     1      -4.439   1.784  16.405  1.00  0.00     0.069 C 
HETATM   14  O5  UNL     1      -3.971   3.640  15.075  1.00  0.00    -0.348 OA
ENDROOT
BRANCH   1  15
HETATM   15  C3  UNL     1      -2.551   5.059  13.802  1.00  0.00     0.156 C 
BRANCH  15  16
HETATM   16  N2  UNL     1      -1.282   4.535  13.412  1.00  0.00    -0.341 N 
HETATM   17  C2  UNL     1      -0.657   5.024  12.229  1.00  0.00     0.315 C 
HETATM   18  N1  UNL     1       0.610   4.535  11.793  1.00  0.00    -0.347 N 
HETATM   19  O1  UNL     1      -1.221   5.913  11.535  1.00  0.00    -0.247 OA
HETATM   20  C1  UNL     1       1.218   5.054  10.586  1.00  0.00     0.151 C 
ATOM     21  H1  UNL     1       1.090   3.817  12.334  1.00  0.00     0.163 HD
ATOM     22  H2  UNL     1      -0.827   3.816  13.974  1.00  0.00     0.164 HD
ENDBRANCH  15  16
ENDBRANCH   1  15
TORSDOF 2
ENDMDL
MODEL 3
REMARK VINA RESULT: -7.308486553      1.148      3.467
REMARK  2 active torsions:
REMARK  status: ('A' for Active; 'I' for Inactive)
REMARK       I    between atoms: N1_2  and  C2_4 
REMARK       I    between atoms: C2_4  and  N2_6 
REMARK    1  A    between atoms: N2_6  and  C3_8 
REMARK    2  A    between atoms: C3_8  and  C4_9 
ROOT
HETATM    1  C4  UNL     1      -3.305   3.164  12.984  1.00  0.00     0.150 C 
HETATM    2  C5  UNL     1      -4.514   2.415  12.404  1.00  0.00     0.136 C 
HETATM    3  C6  UNL     1      -3.921   1.757  11.148  1.00  0.00     0.287 C 
HETATM    4  O2  UNL     1      -3.108   0.718  11.656  1.00  0.00    -0.331 OA
HETATM    5  C7  UNL     1      -3.970  -0.381  11.744  1.00  0.00     0.200 C 
HETATM    6  C8  UNL     1      -4.707  -0.211  10.408  1.00  0.00     0.200 C 
HETATM    7  O3  UNL     1      -4.920   1.146  10.406  1.00  0.00    -0.331 OA
HETATM    8  O4  UNL     1      -3.242   2.612  10.356  1.00  0.00    -0.295 OA
HETATM    9  C9  UNL     1      -2.860   3.812  10.799  1.00  0.00     0.170 C 
HETATM   10  C10 UNL     1      -1.378   4.017  10.470  1.00  0.00     0.069 C 
HETATM   11  C11 UNL     1      -1.399   4.205   8.962  1.00  0.00     0.006 C 
HETATM   12  C12 UNL     1      -2.569   5.163   8.805  1.00  0.00     0.006 C 
HETATM   13  C13 UNL     1      -3.526   4.880   9.914  1.00  0.00     0.069 C 
HETATM   14  O5  UNL     1      -3.053   4.168  12.084  1.00  0.00    -0.348 OA
ENDROOT
BRANCH   1  15
HETATM   15  C3  UNL     1      -3.597   3.700  14.350  1.00  0.00     0.156 C 
BRANCH  15  16
HETATM   16  N2  UNL     1      -4.802   3.161  14.893  1.00  0.00    -0.341 N 
HETATM   17  C2  UNL     1      -4.728   2.112  15.854  1.00  0.00     0.315 C 
HETATM   18  N1  UNL     1      -5.900   1.538  16.429  1.00  0.00    -0.347 N 
HETATM   19  O1  UNL     1      -3.607   1.664  16.219  1.00  0.00    -0.247 OA
HETATM   20  C1  UNL     1      -5.790   0.472  17.402  1.00  0.00     0.151 C 
ATOM     21  H1  UNL     1      -6.820   1.880  16.154  1.00  0.00     0.163 HD
ATOM     22  H2  UNL     1      -5.707   3.525  14.597  1.00  0.00     0.164 HD
ENDBRANCH  15  16
ENDBRANCH   1  15
TORSDOF 2
ENDMDL
MODEL 4
REMARK VINA RESULT: -7.267432143      2.743      5.101
REMARK  2 active torsions:
REMARK  status: ('A' for Active; 'I' for Inactive)
REMARK       I    between atoms: N1_2  and  C2_4 
REMARK       I    between atoms: C2_4  and  N2_6 
REMARK    1  A    between atoms: N2_6  and  C3_8 
REMARK    2  A    between atoms: C3_8  and  C4_9 
ROOT
HETATM    1  C4  UNL     1      -4.072   2.450  12.444  1.00  0.00     0.150 C 
HETATM    2  C5  UNL     1      -3.986   3.982  12.381  1.00  0.00     0.136 C 
HETATM    3  C6  UNL     1      -3.464   4.339  13.782  1.00  0.00     0.287 C 
HETATM    4  O2  UNL     1      -2.110   3.936  13.757  1.00  0.00    -0.331 OA
HETATM    5  C7  UNL     1      -1.425   5.062  13.288  1.00  0.00     0.200 C 
HETATM    6  C8  UNL     1      -2.162   6.140  14.094  1.00  0.00     0.200 C 
HETATM    7  O3  UNL     1      -3.461   5.714  13.960  1.00  0.00    -0.331 OA
HETATM    8  O4  UNL     1      -4.163   3.765  14.783  1.00  0.00    -0.295 OA
HETATM    9  C9  UNL     1      -4.995   2.747  14.553  1.00  0.00     0.170 C 
HETATM   10  C10 UNL     1      -4.702   1.627  15.556  1.00  0.00     0.069 C 
HETATM   11  C11 UNL     1      -5.228   2.206  16.860  1.00  0.00     0.006 C 
HETATM   12  C12 UNL     1      -6.562   2.777  16.406  1.00  0.00     0.006 C 
HETATM   13  C13 UNL     1      -6.408   3.183  14.978  1.00  0.00     0.069 C 
HETATM   14  O5  UNL     1      -5.089   2.195  13.329  1.00  0.00    -0.348 OA
ENDROOT
BRANCH   1  15
HETATM   15  C3  UNL     1      -4.345   1.861  11.096  1.00  0.00     0.156 C 
BRANCH  15  16
HETATM   16  N2  UNL     1      -4.690   0.478  11.171  1.00  0.00    -0.341 N 
HETATM   17  C2  UNL     1      -3.655  -0.501  11.167  1.00  0.00     0.315 C 
HETATM   18  N1  UNL     1      -3.943  -1.896  11.240  1.00  0.00    -0.347 N 
HETATM   19  O1  UNL     1      -2.447  -0.146  11.098  1.00  0.00    -0.247 OA
HETATM   20  C1  UNL     1      -2.868  -2.866  11.234  1.00  0.00     0.151 C 
ATOM     21  H1  UNL     1      -4.910  -2.213  11.298  1.00  0.00     0.163 HD
ATOM     22  H2  UNL     1      -5.667   0.193  11.227  1.00  0.00     0.164 HD
ENDBRANCH  15  16
ENDBRANCH   1  15
TORSDOF 2
ENDMDL
MODEL 5
REMARK VINA RESULT: -7.112083586      2.513      5.377
REMARK  2 active torsions:
REMARK  status: ('A' for Active; 'I' for Inactive)
REMARK       I    between atoms: N1_2  and  C2_4 
REMARK       I    between atoms: C2_4  and  N2_6 
REMARK    1  A    between atoms: N2_6  and  C3_8 
REMARK    2  A    between atoms: C3_8  and  C4_9 
ROOT
HETATM    1  C4  UNL     1      -4.358   4.105  13.317  1.00  0.00     0.150 C 
HETATM    2  C5  UNL     1      -3.536   2.936  12.755  1.00  0.00     0.136 C 
HETATM    3  C6  UNL     1      -4.507   1.753  12.896  1.00  0.00     0.287 C 
HETATM    4  O2  UNL     1      -5.474   1.983  11.891  1.00  0.00    -0.331 OA
HETATM    5  C7  UNL     1      -4.957   1.337  10.763  1.00  0.00     0.200 C 
HETATM    6  C8  UNL     1      -4.456   0.051  11.435  1.00  0.00     0.200 C 
HETATM    7  O3  UNL     1      -3.873   0.566  12.566  1.00  0.00    -0.331 OA
HETATM    8  O4  UNL     1      -5.047   1.639  14.126  1.00  0.00    -0.295 OA
HETATM    9  C9  UNL     1      -4.988   2.642  15.006  1.00  0.00     0.170 C 
HETATM   10  C10 UNL     1      -6.386   2.880  15.586  1.00  0.00     0.069 C 
HETATM   11  C11 UNL     1      -6.585   1.663  16.475  1.00  0.00     0.006 C 
HETATM   12  C12 UNL     1      -5.240   1.596  17.181  1.00  0.00     0.006 C 
HETATM   13  C13 UNL     1      -4.219   2.145  16.242  1.00  0.00     0.069 C 
HETATM   14  O5  UNL     1      -4.473   3.836  14.657  1.00  0.00    -0.348 OA
ENDROOT
BRANCH   1  15
HETATM   15  C3  UNL     1      -3.685   5.418  13.067  1.00  0.00     0.156 C 
BRANCH  15  16
HETATM   16  N2  UNL     1      -4.613   6.501  13.033  1.00  0.00    -0.341 N 
HETATM   17  C2  UNL     1      -5.401   6.711  11.865  1.00  0.00     0.315 C 
HETATM   18  N1  UNL     1      -6.343   7.778  11.778  1.00  0.00    -0.347 N 
HETATM   19  O1  UNL     1      -5.278   5.945  10.872  1.00  0.00    -0.247 OA
HETATM   20  C1  UNL     1      -7.128   7.964  10.576  1.00  0.00     0.151 C 
ATOM     21  H1  UNL     1      -6.465   8.414  12.566  1.00  0.00     0.163 HD
ATOM     22  H2  UNL     1      -4.712   7.120  13.838  1.00  0.00     0.164 HD
ENDBRANCH  15  16
ENDBRANCH   1  15
TORSDOF 2
ENDMDL
