MODEL 1
REMARK VINA RESULT: -4.521063109      0.000      0.000
REMARK  1 active torsions:
REMARK  status: ('A' for Active; 'I' for Inactive)
REMARK    1  A    between atoms: C2_2  and  C3_3 
ROOT
HETATM    1  C3  UNL     1      23.207  -2.128   9.951  1.00  0.00     0.384 C 
HETATM    2  N1  UNL     1      23.041  -2.814  11.187  1.00  0.00    -0.039 N 
ATOM      3  H11 UNL     1      22.084  -2.760  11.538  1.00  0.00     0.280 HD
ATOM      4  H12 UNL     1      23.502  -2.337  11.963  1.00  0.00     0.280 HD
HETATM    5  C4  UNL     1      23.491  -4.166  11.029  1.00  0.00     0.229 C 
HETATM    6  C5  UNL     1      24.889  -4.295  11.601  1.00  0.00     0.043 C 
HETATM    7  C6  UNL     1      23.516  -4.373   9.520  1.00  0.00     0.324 C 
HETATM    8  C7  UNL     1      22.257  -4.930   9.047  1.00  0.00     0.095 C 
HETATM    9  N2  UNL     1      21.250  -5.395   8.672  1.00  0.00    -0.195 NA
HETATM   10  N3  UNL     1      23.760  -3.047   8.995  1.00  0.00    -0.028 N 
ATOM     11  H31 UNL     1      24.742  -2.869   8.782  1.00  0.00     0.281 HD
ATOM     12  H32 UNL     1      23.401  -2.913   8.049  1.00  0.00     0.281 HD
ENDROOT
BRANCH   1  13
HETATM   13  C2  UNL     1      21.910  -1.590   9.386  1.00  0.00     0.058 C 
HETATM   14  C1  UNL     1      21.210  -0.730  10.417  1.00  0.00     0.009 C 
ENDBRANCH   1  13
TORSDOF 1
ENDMDL
MODEL 2
REMARK VINA RESULT: -4.419241147      2.389      3.807
REMARK  1 active torsions:
REMARK  status: ('A' for Active; 'I' for Inactive)
REMARK    1  A    between atoms: C2_2  and  C3_3 
ROOT
HETATM    1  C3  UNL     1      22.306  -0.966  12.461  1.00  0.00     0.384 C 
HETATM    2  N1  UNL     1      23.105  -0.219  11.550  1.00  0.00    -0.039 N 
ATOM      3  H11 UNL     1      24.043  -0.039  11.910  1.00  0.00     0.280 HD
ATOM      4  H12 UNL     1      22.797   0.750  11.466  1.00  0.00     0.280 HD
HETATM    5  C4  UNL     1      23.124  -0.900  10.288  1.00  0.00     0.229 C 
HETATM    6  C5  UNL     1      22.136  -0.235   9.349  1.00  0.00     0.043 C 
HETATM    7  C6  UNL     1      22.665  -2.313  10.624  1.00  0.00     0.324 C 
HETATM    8  C7  UNL     1      23.801  -3.179  10.901  1.00  0.00     0.095 C 
HETATM    9  N2  UNL     1      24.717  -3.879  11.105  1.00  0.00    -0.195 NA
HETATM   10  N3  UNL     1      21.817  -2.134  11.782  1.00  0.00    -0.028 N 
ATOM     11  H31 UNL     1      20.824  -2.084  11.553  1.00  0.00     0.281 HD
ATOM     12  H32 UNL     1      21.767  -2.960  12.379  1.00  0.00     0.281 HD
ENDROOT
BRANCH   1  13
HETATM   13  C2  UNL     1      23.066  -1.423  13.688  1.00  0.00     0.058 C 
HETATM   14  C1  UNL     1      24.347  -0.628  13.833  1.00  0.00     0.009 C 
ENDBRANCH   1  13
TORSDOF 1
ENDMDL
MODEL 3
REMARK VINA RESULT: -4.416586446      1.531      3.162
REMARK  1 active torsions:
REMARK  status: ('A' for Active; 'I' for Inactive)
REMARK    1  A    between atoms: C2_2  and  C3_3 
ROOT
HETATM    1  C3  UNL     1      24.209  -3.193  10.187  1.00  0.00     0.384 C 
HETATM    2  N1  UNL     1      23.325  -4.224  10.616  1.00  0.00    -0.039 N 
ATOM      3  H11 UNL     1      23.173  -4.212  11.625  1.00  0.00     0.280 HD
ATOM      4  H12 UNL     1      23.745  -5.151  10.548  1.00  0.00     0.280 HD
HETATM    5  C4  UNL     1      22.102  -4.120   9.876  1.00  0.00     0.229 C 
HETATM    6  C5  UNL     1      22.110  -5.141   8.755  1.00  0.00     0.043 C 
HETATM    7  C6  UNL     1      22.133  -2.707   9.305  1.00  0.00     0.324 C 
HETATM    8  C7  UNL     1      21.463  -1.770  10.194  1.00  0.00     0.095 C 
HETATM    9  N2  UNL     1      20.906  -1.021  10.901  1.00  0.00    -0.195 NA
HETATM   10  N3  UNL     1      23.545  -2.422   9.172  1.00  0.00    -0.028 N 
ATOM     11  H31 UNL     1      23.906  -2.591   8.233  1.00  0.00     0.281 HD
ATOM     12  H32 UNL     1      23.763  -1.426   9.213  1.00  0.00     0.281 HD
ENDROOT
BRANCH   1  13
HETATM   13  C2  UNL     1      24.614  -2.251  11.300  1.00  0.00     0.058 C 
HETATM   14  C1  UNL     1      24.794  -3.018  12.592  1.00  0.00     0.009 C 
ENDBRANCH   1  13
TORSDOF 1
ENDMDL
MODEL 4
REMARK VINA RESULT: -4.404505787      1.817      3.322
REMARK  1 active torsions:
REMARK  status: ('A' for Active; 'I' for Inactive)
REMARK    1  A    between atoms: C2_2  and  C3_3 
ROOT
HETATM    1  C3  UNL     1      21.317  -1.852  11.333  1.00  0.00     0.384 C 
HETATM    2  N1  UNL     1      21.841  -1.052  10.279  1.00  0.00    -0.039 N 
ATOM      3  H11 UNL     1      22.497  -0.345  10.614  1.00  0.00     0.280 HD
ATOM      4  H12 UNL     1      21.144  -0.420   9.884  1.00  0.00     0.280 HD
HETATM    5  C4  UNL     1      22.422  -1.913   9.291  1.00  0.00     0.229 C 
HETATM    6  C5  UNL     1      21.446  -2.082   8.142  1.00  0.00     0.043 C 
HETATM    7  C6  UNL     1      22.613  -3.237  10.021  1.00  0.00     0.324 C 
HETATM    8  C7  UNL     1      23.941  -3.321  10.611  1.00  0.00     0.095 C 
HETATM    9  N2  UNL     1      25.016  -3.394  11.068  1.00  0.00    -0.195 NA
HETATM   10  N3  UNL     1      21.569  -3.232  11.021  1.00  0.00    -0.028 N 
ATOM     11  H31 UNL     1      20.733  -3.743  10.737  1.00  0.00     0.281 HD
ATOM     12  H32 UNL     1      21.789  -3.799  11.840  1.00  0.00     0.281 HD
ENDROOT
BRANCH   1  13
HETATM   13  C2  UNL     1      21.943  -1.555  12.678  1.00  0.00     0.058 C 
HETATM   14  C1  UNL     1      22.858  -0.354  12.573  1.00  0.00     0.009 C 
ENDBRANCH   1  13
TORSDOF 1
ENDMDL
MODEL 5
REMARK VINA RESULT: -4.403030584      1.518      3.153
REMARK  1 active torsions:
REMARK  status: ('A' for Active; 'I' for Inactive)
REMARK    1  A    between atoms: C2_2  and  C3_3 
ROOT
HETATM    1  C3  UNL     1      23.684  -4.041   9.894  1.00  0.00     0.384 C 
HETATM    2  N1  UNL     1      24.847  -3.220   9.891  1.00  0.00    -0.039 N 
ATOM      3  H11 UNL     1      25.206  -3.055   8.950  1.00  0.00     0.280 HD
ATOM      4  H12 UNL     1      25.664  -3.700  10.272  1.00  0.00     0.280 HD
HETATM    5  C4  UNL     1      24.554  -2.002  10.587  1.00  0.00     0.229 C 
HETATM    6  C5  UNL     1      25.103  -2.089  11.998  1.00  0.00     0.043 C 
HETATM    7  C6  UNL     1      23.031  -1.950  10.616  1.00  0.00     0.324 C 
HETATM    8  C7  UNL     1      22.512  -1.210   9.475  1.00  0.00     0.095 C 
HETATM    9  N2  UNL     1      22.098  -0.598   8.567  1.00  0.00    -0.195 NA
HETATM   10  N3  UNL     1      22.639  -3.342  10.590  1.00  0.00    -0.028 N 
ATOM     11  H31 UNL     1      22.440  -3.725  11.514  1.00  0.00     0.281 HD
ATOM     12  H32 UNL     1      21.713  -3.495  10.189  1.00  0.00     0.281 HD
ENDROOT
BRANCH   1  13
HETATM   13  C2  UNL     1      23.182  -4.372   8.505  1.00  0.00     0.058 C 
HETATM   14  C1  UNL     1      21.726  -4.785   8.563  1.00  0.00     0.009 C 
ENDBRANCH   1  13
TORSDOF 1
ENDMDL
