MODEL 1
REMARK VINA RESULT: -5.893091567      0.000      0.000
REMARK  6 active torsions:
REMARK  status: ('A' for Active; 'I' for Inactive)
REMARK    1  A    between atoms: S1_2  and  C2_3 
REMARK    2  A    between atoms: C3_6  and  N2_7 
REMARK    3  A    between atoms: C4_12  and  N4_13 
REMARK    4  A    between atoms: N4_13  and  C5_15 
REMARK    5  A    between atoms: C5_15  and  N5_16 
REMARK    6  A    between atoms: N5_16  and  N6_17 
ROOT
HETATM    1  C2  UNL     1      -7.491   8.487  13.766  1.00  0.00     0.174 A 
HETATM    2  N1  UNL     1      -6.744   7.403  13.508  1.00  0.00    -0.170 N 
ATOM      3  H1  UNL     1      -7.013   6.780  12.747  1.00  0.00     0.186 HD
HETATM    4  C3  UNL     1      -5.630   7.117  14.242  1.00  0.00     0.692 A 
HETATM    5  N3  UNL     1      -5.316   7.977  15.238  1.00  0.00    -0.023 N 
ATOM      6  H3  UNL     1      -4.486   7.781  15.799  1.00  0.00     0.203 HD
HETATM    7  C4  UNL     1      -6.032   9.069  15.529  1.00  0.00     0.695 A 
HETATM    8  N7  UNL     1      -7.135   9.301  14.760  1.00  0.00    -0.169 N 
ATOM      9  H7  UNL     1      -7.706  10.124  14.951  1.00  0.00     0.186 HD
ENDROOT
BRANCH   7  10
HETATM   10  N4  UNL     1      -5.724   9.889  16.488  1.00  0.00    -0.210 N 
ATOM     11  H4  UNL     1      -5.060   9.608  17.209  1.00  0.00     0.179 HD
BRANCH  10  12
HETATM   12  C5  UNL     1      -6.324  11.192  16.527  1.00  0.00     0.273 C 
BRANCH  12  13
HETATM   13  N5  UNL     1      -5.937  11.894  15.323  1.00  0.00    -0.128 NA
BRANCH  13  14
HETATM   14  N6  UNL     1      -4.765  12.626  15.475  1.00  0.00    -0.347 N 
ATOM     15  H62 UNL     1      -3.872  12.322  15.087  1.00  0.00     0.172 HD
ATOM     16  H61 UNL     1      -4.900  13.484  16.009  1.00  0.00     0.172 HD
ENDBRANCH  13  14
ENDBRANCH  12  13
ENDBRANCH  10  12
ENDBRANCH   7  10
BRANCH   4  17
HETATM   17  N2  UNL     1      -4.920   6.072  13.983  1.00  0.00    -0.234 N 
ATOM     18  H22 UNL     1      -5.155   5.150  14.350  1.00  0.00     0.174 HD
ATOM     19  H21 UNL     1      -4.090   6.139  13.396  1.00  0.00     0.174 HD
ENDBRANCH   4  17
BRANCH   1  20
HETATM   20  S1  UNL     1      -8.939   8.820  12.779  1.00  0.00    -0.097 SA
HETATM   21  C1  UNL     1      -9.794   7.259  12.466  1.00  0.00     0.099 C 
ENDBRANCH   1  20
TORSDOF 6
ENDMDL
MODEL 2
REMARK VINA RESULT: -5.797925578      1.291      4.281
REMARK  6 active torsions:
REMARK  status: ('A' for Active; 'I' for Inactive)
REMARK    1  A    between atoms: S1_2  and  C2_3 
REMARK    2  A    between atoms: C3_6  and  N2_7 
REMARK    3  A    between atoms: C4_12  and  N4_13 
REMARK    4  A    between atoms: N4_13  and  C5_15 
REMARK    5  A    between atoms: C5_15  and  N5_16 
REMARK    6  A    between atoms: N5_16  and  N6_17 
ROOT
HETATM    1  C2  UNL     1      -7.698   8.926  13.560  1.00  0.00     0.174 A 
HETATM    2  N1  UNL     1      -7.333  10.054  14.188  1.00  0.00    -0.170 N 
ATOM      3  H1  UNL     1      -7.915  10.887  14.098  1.00  0.00     0.186 HD
HETATM    4  C3  UNL     1      -6.199  10.111  14.943  1.00  0.00     0.692 A 
HETATM    5  N3  UNL     1      -5.463   8.979  15.030  1.00  0.00    -0.023 N 
ATOM      6  H3  UNL     1      -4.611   9.000  15.591  1.00  0.00     0.203 HD
HETATM    7  C4  UNL     1      -5.791   7.833  14.422  1.00  0.00     0.695 A 
HETATM    8  N7  UNL     1      -6.937   7.839  13.680  1.00  0.00    -0.169 N 
ATOM      9  H7  UNL     1      -7.219   6.984  13.202  1.00  0.00     0.186 HD
ENDROOT
BRANCH   7  10
HETATM   10  N4  UNL     1      -5.079   6.751  14.510  1.00  0.00    -0.210 N 
ATOM     11  H4  UNL     1      -4.201   6.673  13.998  1.00  0.00     0.179 HD
BRANCH  10  12
HETATM   12  C5  UNL     1      -5.536   5.665  15.330  1.00  0.00     0.273 C 
BRANCH  12  13
HETATM   13  N5  UNL     1      -6.406   4.837  14.523  1.00  0.00    -0.128 NA
BRANCH  13  14
HETATM   14  N6  UNL     1      -6.072   3.489  14.575  1.00  0.00    -0.347 N 
ATOM     15  H62 UNL     1      -5.121   3.151  14.425  1.00  0.00     0.172 HD
ATOM     16  H61 UNL     1      -6.872   2.889  14.776  1.00  0.00     0.172 HD
ENDBRANCH  13  14
ENDBRANCH  12  13
ENDBRANCH  10  12
ENDBRANCH   7  10
BRANCH   4  17
HETATM   17  N2  UNL     1      -5.859  11.202  15.541  1.00  0.00    -0.234 N 
ATOM     18  H22 UNL     1      -6.236  11.465  16.451  1.00  0.00     0.174 HD
ATOM     19  H21 UNL     1      -5.192  11.844  15.113  1.00  0.00     0.174 HD
ENDBRANCH   4  17
BRANCH   1  20
HETATM   20  S1  UNL     1      -9.191   8.900  12.582  1.00  0.00    -0.097 SA
HETATM   21  C1  UNL     1      -9.798   7.200  12.503  1.00  0.00     0.099 C 
ENDBRANCH   1  20
TORSDOF 6
ENDMDL
MODEL 3
REMARK VINA RESULT: -5.751639733      2.384      3.153
REMARK  6 active torsions:
REMARK  status: ('A' for Active; 'I' for Inactive)
REMARK    1  A    between atoms: S1_2  and  C2_3 
REMARK    2  A    between atoms: C3_6  and  N2_7 
REMARK    3  A    between atoms: C4_12  and  N4_13 
REMARK    4  A    between atoms: N4_13  and  C5_15 
REMARK    5  A    between atoms: C5_15  and  N5_16 
REMARK    6  A    between atoms: N5_16  and  N6_17 
ROOT
HETATM    1  C2  UNL     1      -7.614   6.690  13.741  1.00  0.00     0.174 A 
HETATM    2  N1  UNL     1      -7.420   5.373  13.903  1.00  0.00    -0.170 N 
ATOM      3  H1  UNL     1      -8.080   4.715  13.489  1.00  0.00     0.186 HD
HETATM    4  C3  UNL     1      -6.356   4.894  14.611  1.00  0.00     0.692 A 
HETATM    5  N3  UNL     1      -5.510   5.808  15.138  1.00  0.00    -0.023 N 
ATOM      6  H3  UNL     1      -4.707   5.471  15.671  1.00  0.00     0.203 HD
HETATM    7  C4  UNL     1      -5.666   7.130  15.000  1.00  0.00     0.695 A 
HETATM    8  N7  UNL     1      -6.749   7.547  14.282  1.00  0.00    -0.169 N 
ATOM      9  H7  UNL     1      -6.901   8.547  14.155  1.00  0.00     0.186 HD
ENDROOT
BRANCH   7  10
HETATM   10  N4  UNL     1      -4.849   8.001  15.510  1.00  0.00    -0.210 N 
ATOM     11  H4  UNL     1      -4.175   8.480  14.914  1.00  0.00     0.179 HD
BRANCH  10  12
HETATM   12  C5  UNL     1      -4.902   8.288  16.915  1.00  0.00     0.273 C 
BRANCH  12  13
HETATM   13  N5  UNL     1      -4.393   7.132  17.622  1.00  0.00    -0.128 NA
BRANCH  13  14
HETATM   14  N6  UNL     1      -4.716   7.139  18.973  1.00  0.00    -0.347 N 
ATOM     15  H62 UNL     1      -5.665   6.981  19.314  1.00  0.00     0.172 HD
ATOM     16  H61 UNL     1      -3.910   7.317  19.573  1.00  0.00     0.172 HD
ENDBRANCH  13  14
ENDBRANCH  12  13
ENDBRANCH  10  12
ENDBRANCH   7  10
BRANCH   4  17
HETATM   17  N2  UNL     1      -6.180   3.625  14.759  1.00  0.00    -0.234 N 
ATOM     18  H22 UNL     1      -5.818   3.222  15.623  1.00  0.00     0.174 HD
ATOM     19  H21 UNL     1      -6.402   2.977  14.004  1.00  0.00     0.174 HD
ENDBRANCH   4  17
BRANCH   1  20
HETATM   20  S1  UNL     1      -9.021   7.269  12.808  1.00  0.00    -0.097 SA
HETATM   21  C1  UNL     1      -8.901   9.064  12.639  1.00  0.00     0.099 C 
ENDBRANCH   1  20
TORSDOF 6
ENDMDL
MODEL 4
REMARK VINA RESULT: -5.692517417      2.364      5.284
REMARK  6 active torsions:
REMARK  status: ('A' for Active; 'I' for Inactive)
REMARK    1  A    between atoms: S1_2  and  C2_3 
REMARK    2  A    between atoms: C3_6  and  N2_7 
REMARK    3  A    between atoms: C4_12  and  N4_13 
REMARK    4  A    between atoms: N4_13  and  C5_15 
REMARK    5  A    between atoms: C5_15  and  N5_16 
REMARK    6  A    between atoms: N5_16  and  N6_17 
ROOT
HETATM    1  C2  UNL     1      -5.991   8.976  15.204  1.00  0.00     0.174 A 
HETATM    2  N1  UNL     1      -5.401   9.079  16.405  1.00  0.00    -0.170 N 
ATOM      3  H1  UNL     1      -5.386   9.983  16.878  1.00  0.00     0.186 HD
HETATM    4  C3  UNL     1      -4.822   8.001  17.007  1.00  0.00     0.692 A 
HETATM    5  N3  UNL     1      -4.872   6.826  16.338  1.00  0.00    -0.023 N 
ATOM      6  H3  UNL     1      -4.445   6.007  16.771  1.00  0.00     0.203 HD
HETATM    7  C4  UNL     1      -5.449   6.678  15.141  1.00  0.00     0.695 A 
HETATM    8  N7  UNL     1      -6.011   7.794  14.590  1.00  0.00    -0.169 N 
ATOM      9  H7  UNL     1      -6.461   7.720  13.678  1.00  0.00     0.186 HD
ENDROOT
BRANCH   7  10
HETATM   10  N4  UNL     1      -5.493   5.548  14.504  1.00  0.00    -0.210 N 
ATOM     11  H4  UNL     1      -4.687   5.233  13.964  1.00  0.00     0.179 HD
BRANCH  10  12
HETATM   12  C5  UNL     1      -6.680   4.743  14.564  1.00  0.00     0.273 C 
BRANCH  12  13
HETATM   13  N5  UNL     1      -6.278   3.355  14.484  1.00  0.00    -0.128 NA
BRANCH  13  14
HETATM   14  N6  UNL     1      -7.005   2.532  15.336  1.00  0.00    -0.347 N 
ATOM     15  H62 UNL     1      -6.565   1.826  15.927  1.00  0.00     0.172 HD
ATOM     16  H61 UNL     1      -8.008   2.711  15.301  1.00  0.00     0.172 HD
ENDBRANCH  13  14
ENDBRANCH  12  13
ENDBRANCH  10  12
ENDBRANCH   7  10
BRANCH   4  17
HETATM   17  N2  UNL     1      -4.259   8.114  18.162  1.00  0.00    -0.234 N 
ATOM     18  H22 UNL     1      -4.794   8.251  19.019  1.00  0.00     0.174 HD
ATOM     19  H21 UNL     1      -3.244   8.069  18.253  1.00  0.00     0.174 HD
ENDBRANCH   4  17
BRANCH   1  20
HETATM   20  S1  UNL     1      -6.734  10.415  14.456  1.00  0.00    -0.097 SA
HETATM   21  C1  UNL     1      -5.537  11.767  14.494  1.00  0.00     0.099 C 
ENDBRANCH   1  20
TORSDOF 6
ENDMDL
MODEL 5
REMARK VINA RESULT: -5.545523417      1.036      1.235
REMARK  6 active torsions:
REMARK  status: ('A' for Active; 'I' for Inactive)
REMARK    1  A    between atoms: S1_2  and  C2_3 
REMARK    2  A    between atoms: C3_6  and  N2_7 
REMARK    3  A    between atoms: C4_12  and  N4_13 
REMARK    4  A    between atoms: N4_13  and  C5_15 
REMARK    5  A    between atoms: C5_15  and  N5_16 
REMARK    6  A    between atoms: N5_16  and  N6_17 
ROOT
HETATM    1  C2  UNL     1      -7.657   8.755  13.701  1.00  0.00     0.174 A 
HETATM    2  N1  UNL     1      -6.911   7.645  13.810  1.00  0.00    -0.170 N 
ATOM      3  H1  UNL     1      -7.270   6.763  13.446  1.00  0.00     0.186 HD
HETATM    4  C3  UNL     1      -5.680   7.673  14.398  1.00  0.00     0.692 A 
HETATM    5  N3  UNL     1      -5.250   8.868  14.863  1.00  0.00    -0.023 N 
ATOM      6  H3  UNL     1      -4.332   8.911  15.306  1.00  0.00     0.203 HD
HETATM    7  C4  UNL     1      -5.961   9.998  14.775  1.00  0.00     0.695 A 
HETATM    8  N7  UNL     1      -7.185   9.906  14.177  1.00  0.00    -0.169 N 
ATOM      9  H7  UNL     1      -7.756  10.747  14.090  1.00  0.00     0.186 HD
ENDROOT
BRANCH   7  10
HETATM   10  N4  UNL     1      -5.542  11.142  15.224  1.00  0.00    -0.210 N 
ATOM     11  H4  UNL     1      -5.332  11.256  16.215  1.00  0.00     0.179 HD
BRANCH  10  12
HETATM   12  C5  UNL     1      -5.375  12.243  14.319  1.00  0.00     0.273 C 
BRANCH  12  13
HETATM   13  N5  UNL     1      -4.371  13.124  14.874  1.00  0.00    -0.128 NA
BRANCH  13  14
HETATM   14  N6  UNL     1      -4.385  13.153  16.264  1.00  0.00    -0.347 N 
ATOM     15  H62 UNL     1      -4.637  13.987  16.795  1.00  0.00     0.172 HD
ATOM     16  H61 UNL     1      -4.119  12.261  16.682  1.00  0.00     0.172 HD
ENDBRANCH  13  14
ENDBRANCH  12  13
ENDBRANCH  10  12
ENDBRANCH   7  10
BRANCH   4  17
HETATM   17  N2  UNL     1      -4.972   6.599  14.496  1.00  0.00    -0.234 N 
ATOM     18  H22 UNL     1      -5.383   5.695  14.729  1.00  0.00     0.174 HD
ATOM     19  H21 UNL     1      -3.964   6.624  14.341  1.00  0.00     0.174 HD
ENDBRANCH   4  17
BRANCH   1  20
HETATM   20  S1  UNL     1      -9.262   8.670  12.925  1.00  0.00    -0.097 SA
HETATM   21  C1  UNL     1      -9.607   6.947  12.504  1.00  0.00     0.099 C 
ENDBRANCH   1  20
TORSDOF 6
ENDMDL
