MODEL 1
REMARK VINA RESULT: -7.491395191      0.000      0.000
REMARK  8 active torsions:
REMARK  status: ('A' for Active; 'I' for Inactive)
REMARK    1  A    between atoms: C15_19  and  C16_20 
REMARK    2  A    between atoms: C16_20  and  O2_21 
REMARK    3  A    between atoms: C16_20  and  C17_23 
REMARK    4  A    between atoms: C17_23  and  C18_24 
REMARK    5  A    between atoms: C18_24  and  C19_25 
REMARK    6  A    between atoms: C19_25  and  O3_26 
REMARK    7  A    between atoms: C19_25  and  C20_28 
REMARK    8  A    between atoms: C20_28  and  O4_29 
ROOT
HETATM    1  C1  UNL     1       3.102   2.568  13.137  1.00  0.00     0.015 C 
HETATM    2  C2  UNL     1       1.796   2.737  13.182  1.00  0.00    -0.081 C 
HETATM    3  C3  UNL     1       1.044   3.863  13.751  1.00  0.00     0.041 C 
HETATM    4  C4  UNL     1      -0.073   4.157  12.711  1.00  0.00     0.032 C 
HETATM    5  C5  UNL     1       0.234   5.377  11.931  1.00  0.00     0.227 A 
HETATM    6  N1  UNL     1       0.032   5.574  10.549  1.00  0.00    -0.058 N 
ATOM      7  H11 UNL     1      -0.231   5.007   9.743  1.00  0.00     0.278 HD
ATOM      8  H12 UNL     1       0.606   5.767   9.729  1.00  0.00     0.278 HD
HETATM    9  C6  UNL     1      -0.685   6.385  11.644  1.00  0.00     0.151 A 
HETATM   10  C7  UNL     1      -0.166   7.848  11.696  1.00  0.00     0.048 C 
HETATM   11  C8  UNL     1      -2.118   6.282  11.422  1.00  0.00     0.048 C 
HETATM   12  C9  UNL     1      -3.008   5.793  12.506  1.00  0.00     0.081 C 
HETATM   13  C10 UNL     1      -3.312   4.342  12.453  1.00  0.00     0.127 C 
HETATM   14  O1  UNL     1      -4.152   3.962  13.252  1.00  0.00    -0.298 OA
HETATM   15  C11 UNL     1      -2.709   3.357  11.554  1.00  0.00     0.079 C 
HETATM   16  C12 UNL     1      -1.690   2.436  12.158  1.00  0.00     0.017 C 
HETATM   17  C13 UNL     1      -0.263   2.863  12.006  1.00  0.00    -0.028 C 
HETATM   18  C14 UNL     1       0.144   2.834  10.560  1.00  0.00     0.016 C 
HETATM   19  C15 UNL     1       0.680   1.850  12.666  1.00  0.00     0.051 C 
ENDROOT
BRANCH  19  20
HETATM   20  C16 UNL     1       0.116   1.013  13.737  1.00  0.00     0.127 C 
BRANCH  20  21
HETATM   21  O2  UNL     1      -0.908   0.180  13.314  1.00  0.00    -0.395 OA
ATOM     22  H2  UNL     1      -1.624   0.109  13.935  1.00  0.00     0.210 HD
ENDBRANCH  20  21
BRANCH  20  23
HETATM   23  C17 UNL     1       1.218   0.027  14.169  1.00  0.00     0.035 C 
BRANCH  23  24
HETATM   24  C18 UNL     1       0.722  -1.348  13.692  1.00  0.00     0.036 C 
BRANCH  24  25
HETATM   25  C19 UNL     1       0.912  -2.381  14.782  1.00  0.00     0.141 C 
BRANCH  25  26
HETATM   26  O3  UNL     1       1.569  -1.724  15.835  1.00  0.00    -0.393 OA
ATOM     27  H3  UNL     1       2.444  -1.530  15.521  1.00  0.00     0.210 HD
ENDBRANCH  25  26
BRANCH  25  28
HETATM   28  C20 UNL     1      -0.412  -2.853  15.336  1.00  0.00     0.195 C 
BRANCH  28  29
HETATM   29  O4  UNL     1      -0.252  -3.463  16.585  1.00  0.00    -0.398 OA
ATOM     30  H4  UNL     1      -0.607  -4.343  16.587  1.00  0.00     0.209 HD
ENDBRANCH  28  29
ENDBRANCH  25  28
ENDBRANCH  24  25
ENDBRANCH  23  24
ENDBRANCH  20  23
ENDBRANCH  19  20
TORSDOF 8
ENDMDL
MODEL 2
REMARK VINA RESULT: -7.449287157      6.158      9.696
REMARK  8 active torsions:
REMARK  status: ('A' for Active; 'I' for Inactive)
REMARK    1  A    between atoms: C15_19  and  C16_20 
REMARK    2  A    between atoms: C16_20  and  O2_21 
REMARK    3  A    between atoms: C16_20  and  C17_23 
REMARK    4  A    between atoms: C17_23  and  C18_24 
REMARK    5  A    between atoms: C18_24  and  C19_25 
REMARK    6  A    between atoms: C19_25  and  O3_26 
REMARK    7  A    between atoms: C19_25  and  C20_28 
REMARK    8  A    between atoms: C20_28  and  O4_29 
ROOT
HETATM    1  C1  UNL     1      -0.099  10.272   7.724  1.00  0.00     0.015 C 
HETATM    2  C2  UNL     1       1.052   9.966   8.288  1.00  0.00    -0.081 C 
HETATM    3  C3  UNL     1       2.062   9.004   7.826  1.00  0.00     0.041 C 
HETATM    4  C4  UNL     1       3.422   9.728   8.038  1.00  0.00     0.032 C 
HETATM    5  C5  UNL     1       3.977  10.203   6.751  1.00  0.00     0.227 A 
HETATM    6  N1  UNL     1       4.627  11.431   6.508  1.00  0.00    -0.058 N 
ATOM      7  H11 UNL     1       4.796  12.300   7.013  1.00  0.00     0.278 HD
ATOM      8  H12 UNL     1       4.475  12.256   5.930  1.00  0.00     0.278 HD
HETATM    9  C6  UNL     1       5.308  10.058   6.362  1.00  0.00     0.151 A 
HETATM   10  C7  UNL     1       5.573   9.714   4.871  1.00  0.00     0.048 C 
HETATM   11  C8  UNL     1       6.507  10.054   7.184  1.00  0.00     0.048 C 
HETATM   12  C9  UNL     1       6.704   9.002   8.214  1.00  0.00     0.081 C 
HETATM   13  C10 UNL     1       6.266   9.380   9.580  1.00  0.00     0.127 C 
HETATM   14  O1  UNL     1       6.554   8.578  10.453  1.00  0.00    -0.298 OA
HETATM   15  C11 UNL     1       5.540  10.593   9.958  1.00  0.00     0.079 C 
HETATM   16  C12 UNL     1       4.080  10.431  10.263  1.00  0.00     0.017 C 
HETATM   17  C13 UNL     1       3.148  10.704   9.124  1.00  0.00    -0.028 C 
HETATM   18  C14 UNL     1       3.201  12.154   8.736  1.00  0.00     0.016 C 
HETATM   19  C15 UNL     1       1.690  10.500   9.554  1.00  0.00     0.051 C 
ENDROOT
BRANCH  19  20
HETATM   20  C16 UNL     1       1.451   9.606  10.698  1.00  0.00     0.127 C 
BRANCH  20  21
HETATM   21  O2  UNL     1       1.374  10.264  11.915  1.00  0.00    -0.395 OA
ATOM     22  H2  UNL     1       0.760   9.872  12.525  1.00  0.00     0.210 HD
ENDBRANCH  20  21
BRANCH  20  23
HETATM   23  C17 UNL     1       0.039   9.017  10.525  1.00  0.00     0.035 C 
BRANCH  23  24
HETATM   24  C18 UNL     1       0.205   7.513  10.800  1.00  0.00     0.036 C 
BRANCH  24  25
HETATM   25  C19 UNL     1      -0.530   7.126  12.066  1.00  0.00     0.141 C 
BRANCH  25  26
HETATM   26  O3  UNL     1      -1.878   6.970  11.704  1.00  0.00    -0.393 OA
ATOM     27  H3  UNL     1      -2.360   6.879  12.517  1.00  0.00     0.210 HD
ENDBRANCH  25  26
BRANCH  25  28
HETATM   28  C20 UNL     1      -0.071   5.784  12.584  1.00  0.00     0.195 C 
BRANCH  28  29
HETATM   29  O4  UNL     1       0.902   5.929  13.579  1.00  0.00    -0.398 OA
ATOM     30  H4  UNL     1       1.203   5.084  13.893  1.00  0.00     0.209 HD
ENDBRANCH  28  29
ENDBRANCH  25  28
ENDBRANCH  24  25
ENDBRANCH  23  24
ENDBRANCH  20  23
ENDBRANCH  19  20
TORSDOF 8
ENDMDL
MODEL 3
REMARK VINA RESULT: -7.373061720      2.848      4.173
REMARK  8 active torsions:
REMARK  status: ('A' for Active; 'I' for Inactive)
REMARK    1  A    between atoms: C15_19  and  C16_20 
REMARK    2  A    between atoms: C16_20  and  O2_21 
REMARK    3  A    between atoms: C16_20  and  C17_23 
REMARK    4  A    between atoms: C17_23  and  C18_24 
REMARK    5  A    between atoms: C18_24  and  C19_25 
REMARK    6  A    between atoms: C19_25  and  O3_26 
REMARK    7  A    between atoms: C19_25  and  C20_28 
REMARK    8  A    between atoms: C20_28  and  O4_29 
ROOT
HETATM    1  C1  UNL     1       0.149  -0.427  13.955  1.00  0.00     0.015 C 
HETATM    2  C2  UNL     1       0.546   0.678  13.355  1.00  0.00    -0.081 C 
HETATM    3  C3  UNL     1       0.210   1.148  12.004  1.00  0.00     0.041 C 
HETATM    4  C4  UNL     1      -0.074   2.668  12.176  1.00  0.00     0.032 C 
HETATM    5  C5  UNL     1      -1.525   2.947  12.117  1.00  0.00     0.227 A 
HETATM    6  N1  UNL     1      -2.248   3.855  12.918  1.00  0.00    -0.058 N 
ATOM      7  H11 UNL     1      -2.072   4.431  13.741  1.00  0.00     0.278 HD
ATOM      8  H12 UNL     1      -3.008   3.813  13.596  1.00  0.00     0.278 HD
HETATM    9  C6  UNL     1      -2.102   3.990  11.391  1.00  0.00     0.151 A 
HETATM   10  C7  UNL     1      -3.441   3.686  10.666  1.00  0.00     0.048 C 
HETATM   11  C8  UNL     1      -1.565   5.308  11.100  1.00  0.00     0.048 C 
HETATM   12  C9  UNL     1      -0.324   5.449  10.296  1.00  0.00     0.081 C 
HETATM   13  C10 UNL     1       0.922   5.571  11.093  1.00  0.00     0.127 C 
HETATM   14  O1  UNL     1       1.924   5.828  10.446  1.00  0.00    -0.298 OA
HETATM   15  C11 UNL     1       1.049   5.412  12.542  1.00  0.00     0.079 C 
HETATM   16  C12 UNL     1       1.665   4.131  13.023  1.00  0.00     0.017 C 
HETATM   17  C13 UNL     1       0.698   3.047  13.387  1.00  0.00    -0.028 C 
HETATM   18  C14 UNL     1      -0.112   3.445  14.588  1.00  0.00     0.016 C 
HETATM   19  C15 UNL     1       1.443   1.791  13.857  1.00  0.00     0.051 C 
ENDROOT
BRANCH  19  20
HETATM   20  C16 UNL     1       2.828   1.622  13.386  1.00  0.00     0.127 C 
BRANCH  20  21
HETATM   21  O2  UNL     1       3.663   2.678  13.717  1.00  0.00    -0.395 OA
ATOM     22  H2  UNL     1       3.264   3.532  13.600  1.00  0.00     0.210 HD
ENDBRANCH  20  21
BRANCH  20  23
HETATM   23  C17 UNL     1       3.429   0.438  14.166  1.00  0.00     0.035 C 
BRANCH  23  24
HETATM   24  C18 UNL     1       4.951   0.602  14.015  1.00  0.00     0.036 C 
BRANCH  24  25
HETATM   25  C19 UNL     1       5.623   0.532  15.370  1.00  0.00     0.141 C 
BRANCH  25  26
HETATM   26  O3  UNL     1       5.515   1.816  15.928  1.00  0.00    -0.393 OA
ATOM     27  H3  UNL     1       5.423   2.416  15.197  1.00  0.00     0.210 HD
ENDBRANCH  25  26
BRANCH  25  28
HETATM   28  C20 UNL     1       4.891  -0.401  16.304  1.00  0.00     0.195 C 
BRANCH  28  29
HETATM   29  O4  UNL     1       5.760  -0.962  17.246  1.00  0.00    -0.398 OA
ATOM     30  H4  UNL     1       5.789  -0.443  18.041  1.00  0.00     0.209 HD
ENDBRANCH  28  29
ENDBRANCH  25  28
ENDBRANCH  24  25
ENDBRANCH  23  24
ENDBRANCH  20  23
ENDBRANCH  19  20
TORSDOF 8
ENDMDL
MODEL 4
REMARK VINA RESULT: -7.359879659      3.422      7.560
REMARK  8 active torsions:
REMARK  status: ('A' for Active; 'I' for Inactive)
REMARK    1  A    between atoms: C15_19  and  C16_20 
REMARK    2  A    between atoms: C16_20  and  O2_21 
REMARK    3  A    between atoms: C16_20  and  C17_23 
REMARK    4  A    between atoms: C17_23  and  C18_24 
REMARK    5  A    between atoms: C18_24  and  C19_25 
REMARK    6  A    between atoms: C19_25  and  O3_26 
REMARK    7  A    between atoms: C19_25  and  C20_28 
REMARK    8  A    between atoms: C20_28  and  O4_29 
ROOT
HETATM    1  C1  UNL     1      -2.911   4.942  11.921  1.00  0.00     0.015 C 
HETATM    2  C2  UNL     1      -1.683   4.700  12.333  1.00  0.00    -0.081 C 
HETATM    3  C3  UNL     1      -1.254   3.947  13.519  1.00  0.00     0.041 C 
HETATM    4  C4  UNL     1      -0.069   3.071  13.022  1.00  0.00     0.032 C 
HETATM    5  C5  UNL     1      -0.482   1.659  12.864  1.00  0.00     0.227 A 
HETATM    6  N1  UNL     1      -0.115   0.779  11.824  1.00  0.00    -0.058 N 
ATOM      7  H11 UNL     1       0.369   0.839  10.929  1.00  0.00     0.278 HD
ATOM      8  H12 UNL     1      -0.585   0.255  11.088  1.00  0.00     0.278 HD
HETATM    9  C6  UNL     1       0.261   0.563  13.302  1.00  0.00     0.151 A 
HETATM   10  C7  UNL     1      -0.529  -0.622  13.919  1.00  0.00     0.048 C 
HETATM   11  C8  UNL     1       1.704   0.411  13.386  1.00  0.00     0.048 C 
HETATM   12  C9  UNL     1       2.498   1.293  14.280  1.00  0.00     0.081 C 
HETATM   13  C10 UNL     1       3.077   2.488  13.618  1.00  0.00     0.127 C 
HETATM   14  O1  UNL     1       3.844   3.138  14.309  1.00  0.00    -0.298 OA
HETATM   15  C11 UNL     1       2.815   2.941  12.251  1.00  0.00     0.079 C 
HETATM   16  C12 UNL     1       1.910   4.129  12.102  1.00  0.00     0.017 C 
HETATM   17  C13 UNL     1       0.468   3.815  11.853  1.00  0.00    -0.028 C 
HETATM   18  C14 UNL     1       0.296   3.154  10.516  1.00  0.00     0.016 C 
HETATM   19  C15 UNL     1      -0.354   5.104  11.725  1.00  0.00     0.051 C 
ENDROOT
BRANCH  19  20
HETATM   20  C16 UNL     1       0.191   6.309  12.371  1.00  0.00     0.127 C 
BRANCH  20  21
HETATM   21  O2  UNL     1       1.150   6.041  13.335  1.00  0.00    -0.395 OA
ATOM     22  H2  UNL     1       1.890   6.637  13.315  1.00  0.00     0.210 HD
ENDBRANCH  20  21
BRANCH  20  23
HETATM   23  C17 UNL     1       0.978   7.082  11.296  1.00  0.00     0.035 C 
BRANCH  23  24
HETATM   24  C18 UNL     1       0.268   8.441  11.192  1.00  0.00     0.036 C 
BRANCH  24  25
HETATM   25  C19 UNL     1       1.278   9.545  10.959  1.00  0.00     0.141 C 
BRANCH  25  26
HETATM   26  O3  UNL     1       1.073  10.486  11.981  1.00  0.00    -0.393 OA
ATOM     27  H3  UNL     1       1.411  11.311  11.653  1.00  0.00     0.210 HD
ENDBRANCH  25  26
BRANCH  25  28
HETATM   28  C20 UNL     1       2.693   9.043  11.122  1.00  0.00     0.195 C 
BRANCH  28  29
HETATM   29  O4  UNL     1       3.399   9.809  12.057  1.00  0.00    -0.398 OA
ATOM     30  H4  UNL     1       2.963  10.636  12.225  1.00  0.00     0.209 HD
ENDBRANCH  28  29
ENDBRANCH  25  28
ENDBRANCH  24  25
ENDBRANCH  23  24
ENDBRANCH  20  23
ENDBRANCH  19  20
TORSDOF 8
ENDMDL
MODEL 5
REMARK VINA RESULT: -7.329830159      1.079      1.308
REMARK  8 active torsions:
REMARK  status: ('A' for Active; 'I' for Inactive)
REMARK    1  A    between atoms: C15_19  and  C16_20 
REMARK    2  A    between atoms: C16_20  and  O2_21 
REMARK    3  A    between atoms: C16_20  and  C17_23 
REMARK    4  A    between atoms: C17_23  and  C18_24 
REMARK    5  A    between atoms: C18_24  and  C19_25 
REMARK    6  A    between atoms: C19_25  and  O3_26 
REMARK    7  A    between atoms: C19_25  and  C20_28 
REMARK    8  A    between atoms: C20_28  and  O4_29 
ROOT
HETATM    1  C1  UNL     1       3.111   2.815  12.789  1.00  0.00     0.015 C 
HETATM    2  C2  UNL     1       1.810   3.001  12.879  1.00  0.00    -0.081 C 
HETATM    3  C3  UNL     1       1.094   4.137  13.477  1.00  0.00     0.041 C 
HETATM    4  C4  UNL     1      -0.055   4.449  12.476  1.00  0.00     0.032 C 
HETATM    5  C5  UNL     1       0.242   5.666  11.689  1.00  0.00     0.227 A 
HETATM    6  N1  UNL     1      -0.004   5.869  10.315  1.00  0.00    -0.058 N 
ATOM      7  H11 UNL     1      -0.303   5.309   9.518  1.00  0.00     0.278 HD
ATOM      8  H12 UNL     1       0.544   6.057   9.476  1.00  0.00     0.278 HD
HETATM    9  C6  UNL     1      -0.672   6.688  11.436  1.00  0.00     0.151 A 
HETATM   10  C7  UNL     1      -0.131   8.143  11.473  1.00  0.00     0.048 C 
HETATM   11  C8  UNL     1      -2.113   6.604  11.263  1.00  0.00     0.048 C 
HETATM   12  C9  UNL     1      -2.972   6.125  12.376  1.00  0.00     0.081 C 
HETATM   13  C10 UNL     1      -3.298   4.678  12.330  1.00  0.00     0.127 C 
HETATM   14  O1  UNL     1      -4.115   4.308  13.157  1.00  0.00    -0.298 OA
HETATM   15  C11 UNL     1      -2.739   3.687  11.409  1.00  0.00     0.079 C 
HETATM   16  C12 UNL     1      -1.712   2.751  11.976  1.00  0.00     0.017 C 
HETATM   17  C13 UNL     1      -0.286   3.159  11.775  1.00  0.00    -0.028 C 
HETATM   18  C14 UNL     1       0.070   3.128  10.317  1.00  0.00     0.016 C 
HETATM   19  C15 UNL     1       0.665   2.131  12.400  1.00  0.00     0.051 C 
ENDROOT
BRANCH  19  20
HETATM   20  C16 UNL     1       0.127   1.300  13.488  1.00  0.00     0.127 C 
BRANCH  20  21
HETATM   21  O2  UNL     1      -0.756   0.321  13.059  1.00  0.00    -0.395 OA
ATOM     22  H2  UNL     1      -0.361  -0.538  12.968  1.00  0.00     0.210 HD
ENDBRANCH  20  21
BRANCH  20  23
HETATM   23  C17 UNL     1       1.303   0.487  14.061  1.00  0.00     0.035 C 
BRANCH  23  24
HETATM   24  C18 UNL     1       0.672  -0.831  14.540  1.00  0.00     0.036 C 
BRANCH  24  25
HETATM   25  C19 UNL     1       1.752  -1.830  14.898  1.00  0.00     0.141 C 
BRANCH  25  26
HETATM   26  O3  UNL     1       2.018  -2.557  13.727  1.00  0.00    -0.393 OA
ATOM     27  H3  UNL     1       2.914  -2.352  13.486  1.00  0.00     0.210 HD
ENDBRANCH  25  26
BRANCH  25  28
HETATM   28  C20 UNL     1       3.042  -1.141  15.273  1.00  0.00     0.195 C 
BRANCH  28  29
HETATM   29  O4  UNL     1       3.477  -1.532  16.544  1.00  0.00    -0.398 OA
ATOM     30  H4  UNL     1       4.315  -1.139  16.758  1.00  0.00     0.209 HD
ENDBRANCH  28  29
ENDBRANCH  25  28
ENDBRANCH  24  25
ENDBRANCH  23  24
ENDBRANCH  20  23
ENDBRANCH  19  20
TORSDOF 8
ENDMDL
