MODEL 1
REMARK VINA RESULT: -7.827272325      0.000      0.000
REMARK  7 active torsions:
REMARK  status: ('A' for Active; 'I' for Inactive)
REMARK    1  A    between atoms: C2_2  and  C3_3 
REMARK    2  A    between atoms: C3_3  and  C4_4 
REMARK       I    between atoms: C4_4  and  N1_6 
REMARK    3  A    between atoms: C7_9  and  C8_10 
REMARK    4  A    between atoms: C7_9  and  C12_14 
REMARK    5  A    between atoms: C8_10  and  C9_11 
REMARK    6  A    between atoms: N3_20  and  C15_21 
REMARK    7  A    between atoms: C15_21  and  C16_22 
ROOT
HETATM    1  C4  UNL     1     -21.498  -6.751  15.796  1.00  0.00     0.219 C 
HETATM    2  O1  UNL     1     -22.760  -6.603  15.599  1.00  0.00    -0.273 OA
HETATM    3  N1  UNL     1     -20.603  -6.223  14.848  1.00  0.00    -0.350 N 
HETATM    4  C5  UNL     1     -19.191  -6.237  14.969  1.00  0.00     0.127 C 
HETATM    5  C6  UNL     1     -18.489  -4.981  14.462  1.00  0.00     0.039 C 
HETATM    6  C7  UNL     1     -18.917  -4.667  13.035  1.00  0.00     0.043 C 
HETATM    7  C20 UNL     1     -20.409  -4.504  13.128  1.00  0.00     0.064 C 
HETATM    8  C21 UNL     1     -21.090  -4.008  11.877  1.00  0.00     0.035 C 
HETATM    9 CL1  UNL     1     -20.631  -3.184  14.361  1.00  0.00    -0.117 Cl
HETATM   10  C22 UNL     1     -21.162  -5.675  13.597  1.00  0.00     0.152 C 
ENDROOT
BRANCH   6  11
HETATM   11  C8  UNL     1     -18.325  -3.356  12.639  1.00  0.00     0.023 C 
BRANCH  11  12
HETATM   12  C9  UNL     1     -17.380  -2.647  13.507  1.00  0.00    -0.021 C 
HETATM   13  C10 UNL     1     -15.980  -2.842  12.811  1.00  0.00     0.009 C 
HETATM   14  C11 UNL     1     -17.480  -1.124  13.559  1.00  0.00     0.009 C 
ENDBRANCH  11  12
ENDBRANCH   6  11
BRANCH   6  15
HETATM   15  C12 UNL     1     -18.474  -5.807  12.217  1.00  0.00     0.094 A 
HETATM   16  N2  UNL     1     -17.198  -6.298  12.193  1.00  0.00    -0.338 N 
HETATM   17  C13 UNL     1     -17.122  -7.335  11.376  1.00  0.00     0.147 A 
ATOM     18  H2  UNL     1     -16.417  -5.919  12.728  1.00  0.00     0.167 HD
HETATM   19  C14 UNL     1     -16.105  -8.212  10.977  1.00  0.00     0.282 A 
HETATM   20  C19 UNL     1     -18.379  -7.539  10.845  1.00  0.00     0.143 A 
HETATM   21  O2  UNL     1     -14.983  -7.988  11.474  1.00  0.00    -0.265 OA
HETATM   22  N3  UNL     1     -16.375  -9.205  10.118  1.00  0.00    -0.264 N 
HETATM   23  C18 UNL     1     -17.607  -9.388   9.615  1.00  0.00     0.331 A 
HETATM   24  O3  UNL     1     -17.849 -10.335   8.795  1.00  0.00    -0.246 OA
HETATM   25  N4  UNL     1     -18.605  -8.560   9.974  1.00  0.00    -0.292 N 
ATOM     26  H4  UNL     1     -19.540  -8.700   9.589  1.00  0.00     0.172 HD
HETATM   27  N5  UNL     1     -19.169  -6.592  11.379  1.00  0.00    -0.329 N 
ATOM     28  H5  UNL     1     -20.162  -6.484  11.174  1.00  0.00     0.168 HD
BRANCH  22  29
HETATM   29  C15 UNL     1     -15.299 -10.068   9.710  1.00  0.00     0.137 C 
BRANCH  29  30
HETATM   30  C16 UNL     1     -14.953 -11.104  10.766  1.00  0.00     0.016 C 
HETATM   31  C17 UNL     1     -15.605 -12.400  10.349  1.00  0.00     0.006 C 
ENDBRANCH  29  30
ENDBRANCH  22  29
ENDBRANCH   6  15
BRANCH   1  32
HETATM   32  C3  UNL     1     -21.084  -7.470  16.993  1.00  0.00     0.103 C 
BRANCH  32  33
HETATM   33  C2  UNL     1     -21.231  -8.983  16.803  1.00  0.00     0.005 C 
HETATM   34  C1  UNL     1     -19.952  -9.622  16.349  1.00  0.00     0.005 C 
ENDBRANCH  32  33
ENDBRANCH   1  32
TORSDOF 7
ENDMDL
MODEL 2
REMARK VINA RESULT: -7.821781269      0.653      1.060
REMARK  7 active torsions:
REMARK  status: ('A' for Active; 'I' for Inactive)
REMARK    1  A    between atoms: C2_2  and  C3_3 
REMARK    2  A    between atoms: C3_3  and  C4_4 
REMARK       I    between atoms: C4_4  and  N1_6 
REMARK    3  A    between atoms: C7_9  and  C8_10 
REMARK    4  A    between atoms: C7_9  and  C12_14 
REMARK    5  A    between atoms: C8_10  and  C9_11 
REMARK    6  A    between atoms: N3_20  and  C15_21 
REMARK    7  A    between atoms: C15_21  and  C16_22 
ROOT
HETATM    1  C4  UNL     1     -21.760  -6.604  15.429  1.00  0.00     0.219 C 
HETATM    2  O1  UNL     1     -22.990  -6.388  15.123  1.00  0.00    -0.273 OA
HETATM    3  N1  UNL     1     -20.758  -6.149  14.552  1.00  0.00    -0.350 N 
HETATM    4  C5  UNL     1     -19.365  -6.242  14.792  1.00  0.00     0.127 C 
HETATM    5  C6  UNL     1     -18.549  -5.040  14.327  1.00  0.00     0.039 C 
HETATM    6  C7  UNL     1     -18.837  -4.732  12.863  1.00  0.00     0.043 C 
HETATM    7  C20 UNL     1     -20.319  -4.481  12.826  1.00  0.00     0.064 C 
HETATM    8  C21 UNL     1     -20.862  -3.973  11.515  1.00  0.00     0.035 C 
HETATM    9 CL1  UNL     1     -20.565  -3.124  14.014  1.00  0.00    -0.117 Cl
HETATM   10  C22 UNL     1     -21.178  -5.596  13.249  1.00  0.00     0.152 C 
ENDROOT
BRANCH   6  11
HETATM   11  C8  UNL     1     -18.137  -3.467  12.498  1.00  0.00     0.023 C 
BRANCH  11  12
HETATM   12  C9  UNL     1     -17.228  -2.795  13.431  1.00  0.00    -0.021 C 
HETATM   13  C10 UNL     1     -15.812  -2.898  12.750  1.00  0.00     0.009 C 
HETATM   14  C11 UNL     1     -17.376  -1.282  13.590  1.00  0.00     0.009 C 
ENDBRANCH  11  12
ENDBRANCH   6  11
BRANCH   6  15
HETATM   15  C12 UNL     1     -18.396  -5.913  12.105  1.00  0.00     0.094 A 
HETATM   16  N2  UNL     1     -17.131  -6.432  12.139  1.00  0.00    -0.338 N 
HETATM   17  C13 UNL     1     -17.054  -7.502  11.365  1.00  0.00     0.147 A 
ATOM     18  H2  UNL     1     -16.358  -6.048  12.682  1.00  0.00     0.167 HD
HETATM   19  C14 UNL     1     -16.046  -8.416  11.032  1.00  0.00     0.282 A 
HETATM   20  C19 UNL     1     -18.300  -7.700  10.805  1.00  0.00     0.143 A 
HETATM   21  O2  UNL     1     -14.935  -8.196  11.554  1.00  0.00    -0.265 OA
HETATM   22  N3  UNL     1     -16.313  -9.436  10.205  1.00  0.00    -0.264 N 
HETATM   23  C18 UNL     1     -17.533  -9.613   9.672  1.00  0.00     0.331 A 
HETATM   24  O3  UNL     1     -17.772 -10.586   8.883  1.00  0.00    -0.246 OA
HETATM   25  N4  UNL     1     -18.522  -8.750   9.968  1.00  0.00    -0.292 N 
ATOM     26  H4  UNL     1     -19.448  -8.885   9.561  1.00  0.00     0.172 HD
HETATM   27  N5  UNL     1     -19.083  -6.715  11.277  1.00  0.00    -0.329 N 
ATOM     28  H5  UNL     1     -20.067  -6.594  11.038  1.00  0.00     0.168 HD
BRANCH  22  29
HETATM   29  C15 UNL     1     -15.245 -10.337   9.865  1.00  0.00     0.137 C 
BRANCH  29  30
HETATM   30  C16 UNL     1     -14.965 -11.349  10.963  1.00  0.00     0.016 C 
HETATM   31  C17 UNL     1     -15.603 -12.651  10.542  1.00  0.00     0.006 C 
ENDBRANCH  29  30
ENDBRANCH  22  29
ENDBRANCH   6  15
BRANCH   1  32
HETATM   32  C3  UNL     1     -21.491  -7.320  16.668  1.00  0.00     0.103 C 
BRANCH  32  33
HETATM   33  C2  UNL     1     -21.853  -6.466  17.887  1.00  0.00     0.005 C 
HETATM   34  C1  UNL     1     -21.245  -5.096  17.816  1.00  0.00     0.005 C 
ENDBRANCH  32  33
ENDBRANCH   1  32
TORSDOF 7
ENDMDL
MODEL 3
REMARK VINA RESULT: -7.510502904      1.332      1.678
REMARK  7 active torsions:
REMARK  status: ('A' for Active; 'I' for Inactive)
REMARK    1  A    between atoms: C2_2  and  C3_3 
REMARK    2  A    between atoms: C3_3  and  C4_4 
REMARK       I    between atoms: C4_4  and  N1_6 
REMARK    3  A    between atoms: C7_9  and  C8_10 
REMARK    4  A    between atoms: C7_9  and  C12_14 
REMARK    5  A    between atoms: C8_10  and  C9_11 
REMARK    6  A    between atoms: N3_20  and  C15_21 
REMARK    7  A    between atoms: C15_21  and  C16_22 
ROOT
HETATM    1  C4  UNL     1     -21.616  -7.880  16.438  1.00  0.00     0.219 C 
HETATM    2  O1  UNL     1     -22.893  -7.769  16.338  1.00  0.00    -0.273 OA
HETATM    3  N1  UNL     1     -20.804  -7.082  15.611  1.00  0.00    -0.350 N 
HETATM    4  C5  UNL     1     -19.389  -7.037  15.663  1.00  0.00     0.127 C 
HETATM    5  C6  UNL     1     -18.780  -5.654  15.452  1.00  0.00     0.039 C 
HETATM    6  C7  UNL     1     -19.306  -5.028  14.166  1.00  0.00     0.043 C 
HETATM    7  C20 UNL     1     -20.796  -4.987  14.362  1.00  0.00     0.064 C 
HETATM    8  C21 UNL     1     -21.572  -4.243  13.305  1.00  0.00     0.035 C 
HETATM    9 CL1  UNL     1     -21.012  -4.024  15.892  1.00  0.00    -0.117 Cl
HETATM   10  C22 UNL     1     -21.462  -6.281  14.560  1.00  0.00     0.152 C 
ENDROOT
BRANCH   6  11
HETATM   11  C8  UNL     1     -18.804  -3.626  14.082  1.00  0.00     0.023 C 
BRANCH  11  12
HETATM   12  C9  UNL     1     -17.692  -3.156  14.914  1.00  0.00    -0.021 C 
HETATM   13  C10 UNL     1     -16.720  -2.433  13.906  1.00  0.00     0.009 C 
HETATM   14  C11 UNL     1     -17.983  -2.034  15.909  1.00  0.00     0.009 C 
ENDBRANCH  11  12
ENDBRANCH   6  11
BRANCH   6  15
HETATM   15  C12 UNL     1     -18.854  -5.904  13.074  1.00  0.00     0.094 A 
HETATM   16  N2  UNL     1     -17.546  -6.110  12.732  1.00  0.00    -0.338 N 
HETATM   17  C13 UNL     1     -17.466  -6.963  11.723  1.00  0.00     0.147 A 
ATOM     18  H2  UNL     1     -16.748  -5.671  13.188  1.00  0.00     0.167 HD
HETATM   19  C14 UNL     1     -16.420  -7.535  10.988  1.00  0.00     0.282 A 
HETATM   20  C19 UNL     1     -18.753  -7.332  11.388  1.00  0.00     0.143 A 
HETATM   21  O2  UNL     1     -15.275  -7.168  11.318  1.00  0.00    -0.265 OA
HETATM   22  N3  UNL     1     -16.690  -8.408  10.008  1.00  0.00    -0.264 N 
HETATM   23  C18 UNL     1     -17.950  -8.757   9.699  1.00  0.00     0.331 A 
HETATM   24  O3  UNL     1     -18.192  -9.587   8.762  1.00  0.00    -0.246 OA
HETATM   25  N4  UNL     1     -18.977  -8.222  10.383  1.00  0.00    -0.292 N 
ATOM     26  H4  UNL     1     -19.934  -8.487  10.146  1.00  0.00     0.172 HD
HETATM   27  N5  UNL     1     -19.564  -6.667  12.229  1.00  0.00    -0.329 N 
ATOM     28  H5  UNL     1     -20.582  -6.734  12.225  1.00  0.00     0.168 HD
BRANCH  22  29
HETATM   29  C15 UNL     1     -15.591  -8.953   9.257  1.00  0.00     0.137 C 
BRANCH  29  30
HETATM   30  C16 UNL     1     -15.407  -8.264   7.915  1.00  0.00     0.016 C 
HETATM   31  C17 UNL     1     -14.903  -9.305   6.945  1.00  0.00     0.006 C 
ENDBRANCH  29  30
ENDBRANCH  22  29
ENDBRANCH   6  15
BRANCH   1  32
HETATM   32  C3  UNL     1     -21.097  -8.843  17.399  1.00  0.00     0.103 C 
BRANCH  32  33
HETATM   33  C2  UNL     1     -20.720 -10.159  16.712  1.00  0.00     0.005 C 
HETATM   34  C1  UNL     1     -21.896 -11.080  16.573  1.00  0.00     0.005 C 
ENDBRANCH  32  33
ENDBRANCH   1  32
TORSDOF 7
ENDMDL
MODEL 4
REMARK VINA RESULT: -7.408267622      1.247      1.776
REMARK  7 active torsions:
REMARK  status: ('A' for Active; 'I' for Inactive)
REMARK    1  A    between atoms: C2_2  and  C3_3 
REMARK    2  A    between atoms: C3_3  and  C4_4 
REMARK       I    between atoms: C4_4  and  N1_6 
REMARK    3  A    between atoms: C7_9  and  C8_10 
REMARK    4  A    between atoms: C7_9  and  C12_14 
REMARK    5  A    between atoms: C8_10  and  C9_11 
REMARK    6  A    between atoms: N3_20  and  C15_21 
REMARK    7  A    between atoms: C15_21  and  C16_22 
ROOT
HETATM    1  C4  UNL     1     -21.605  -6.721  15.544  1.00  0.00     0.219 C 
HETATM    2  O1  UNL     1     -22.833  -6.645  15.171  1.00  0.00    -0.273 OA
HETATM    3  N1  UNL     1     -20.606  -6.253  14.671  1.00  0.00    -0.350 N 
HETATM    4  C5  UNL     1     -19.224  -6.197  14.975  1.00  0.00     0.127 C 
HETATM    5  C6  UNL     1     -18.495  -4.969  14.438  1.00  0.00     0.039 C 
HETATM    6  C7  UNL     1     -18.738  -4.814  12.942  1.00  0.00     0.043 C 
HETATM    7  C20 UNL     1     -20.233  -4.704  12.824  1.00  0.00     0.064 C 
HETATM    8  C21 UNL     1     -20.755  -4.360  11.452  1.00  0.00     0.035 C 
HETATM    9 CL1  UNL     1     -20.654  -3.279  13.876  1.00  0.00    -0.117 Cl
HETATM   10  C22 UNL     1     -21.010  -5.852  13.308  1.00  0.00     0.152 C 
ENDROOT
BRANCH   6  11
HETATM   11  C8  UNL     1     -18.135  -3.525  12.494  1.00  0.00     0.023 C 
BRANCH  11  12
HETATM   12  C9  UNL     1     -17.271  -2.734  13.376  1.00  0.00    -0.021 C 
HETATM   13  C10 UNL     1     -15.822  -2.931  12.791  1.00  0.00     0.009 C 
HETATM   14  C11 UNL     1     -17.413  -1.214  13.320  1.00  0.00     0.009 C 
ENDBRANCH  11  12
ENDBRANCH   6  11
BRANCH   6  15
HETATM   15  C12 UNL     1     -18.159  -6.010  12.310  1.00  0.00     0.094 A 
HETATM   16  N2  UNL     1     -18.214  -6.286  10.971  1.00  0.00    -0.338 N 
HETATM   17  C13 UNL     1     -17.588  -7.423  10.713  1.00  0.00     0.147 A 
ATOM     18  H2  UNL     1     -18.671  -5.701  10.273  1.00  0.00     0.167 HD
HETATM   19  C14 UNL     1     -17.324  -8.170   9.558  1.00  0.00     0.282 A 
HETATM   20  C19 UNL     1     -17.105  -7.912  11.910  1.00  0.00     0.143 A 
HETATM   21  O2  UNL     1     -17.784  -7.696   8.501  1.00  0.00    -0.265 OA
HETATM   22  N3  UNL     1     -16.621  -9.308   9.643  1.00  0.00    -0.264 N 
HETATM   23  C18 UNL     1     -16.157  -9.766  10.817  1.00  0.00     0.331 A 
HETATM   24  O3  UNL     1     -15.493 -10.853  10.884  1.00  0.00    -0.246 OA
HETATM   25  N4  UNL     1     -16.398  -9.074  11.946  1.00  0.00    -0.292 N 
ATOM     26  H4  UNL     1     -16.046  -9.425  12.837  1.00  0.00     0.172 HD
HETATM   27  N5  UNL     1     -17.474  -7.028  12.852  1.00  0.00    -0.329 N 
ATOM     28  H5  UNL     1     -17.261  -7.119  13.846  1.00  0.00     0.168 HD
BRANCH  22  29
HETATM   29  C15 UNL     1     -16.394 -10.062   8.440  1.00  0.00     0.137 C 
BRANCH  29  30
HETATM   30  C16 UNL     1     -15.138  -9.622   7.706  1.00  0.00     0.016 C 
HETATM   31  C17 UNL     1     -15.556  -9.210   6.315  1.00  0.00     0.006 C 
ENDBRANCH  29  30
ENDBRANCH  22  29
ENDBRANCH   6  15
BRANCH   1  32
HETATM   32  C3  UNL     1     -21.334  -7.302  16.851  1.00  0.00     0.103 C 
BRANCH  32  33
HETATM   33  C2  UNL     1     -21.572  -8.816  16.840  1.00  0.00     0.005 C 
HETATM   34  C1  UNL     1     -20.402  -9.567  16.279  1.00  0.00     0.005 C 
ENDBRANCH  32  33
ENDBRANCH   1  32
TORSDOF 7
ENDMDL
MODEL 5
REMARK VINA RESULT: -7.343771729      1.405      1.673
REMARK  7 active torsions:
REMARK  status: ('A' for Active; 'I' for Inactive)
REMARK    1  A    between atoms: C2_2  and  C3_3 
REMARK    2  A    between atoms: C3_3  and  C4_4 
REMARK       I    between atoms: C4_4  and  N1_6 
REMARK    3  A    between atoms: C7_9  and  C8_10 
REMARK    4  A    between atoms: C7_9  and  C12_14 
REMARK    5  A    between atoms: C8_10  and  C9_11 
REMARK    6  A    between atoms: N3_20  and  C15_21 
REMARK    7  A    between atoms: C15_21  and  C16_22 
ROOT
HETATM    1  C4  UNL     1     -22.596  -5.818  14.916  1.00  0.00     0.219 C 
HETATM    2  O1  UNL     1     -23.676  -5.347  14.403  1.00  0.00    -0.273 OA
HETATM    3  N1  UNL     1     -21.366  -5.481  14.322  1.00  0.00    -0.350 N 
HETATM    4  C5  UNL     1     -20.093  -5.856  14.819  1.00  0.00     0.127 C 
HETATM    5  C6  UNL     1     -19.009  -4.792  14.685  1.00  0.00     0.039 C 
HETATM    6  C7  UNL     1     -18.916  -4.302  13.245  1.00  0.00     0.043 C 
HETATM    7  C20 UNL     1     -20.292  -3.775  12.949  1.00  0.00     0.064 C 
HETATM    8  C21 UNL     1     -20.445  -3.055  11.632  1.00  0.00     0.035 C 
HETATM    9 CL1  UNL     1     -20.565  -2.510  14.229  1.00  0.00    -0.117 Cl
HETATM   10  C22 UNL     1     -21.393  -4.741  13.044  1.00  0.00     0.152 C 
ENDROOT
BRANCH   6  11
HETATM   11  C8  UNL     1     -17.955  -3.163  13.193  1.00  0.00     0.023 C 
BRANCH  11  12
HETATM   12  C9  UNL     1     -16.644  -3.233  13.847  1.00  0.00    -0.021 C 
HETATM   13  C10 UNL     1     -15.630  -2.716  12.757  1.00  0.00     0.009 C 
HETATM   14  C11 UNL     1     -16.377  -2.258  14.992  1.00  0.00     0.009 C 
ENDBRANCH  11  12
ENDBRANCH   6  11
BRANCH   6  15
HETATM   15  C12 UNL     1     -18.520  -5.470  12.443  1.00  0.00     0.094 A 
HETATM   16  N2  UNL     1     -17.640  -6.434  12.853  1.00  0.00    -0.338 N 
HETATM   17  C13 UNL     1     -17.507  -7.359  11.918  1.00  0.00     0.147 A 
ATOM     18  H2  UNL     1     -17.157  -6.438  13.751  1.00  0.00     0.167 HD
HETATM   19  C14 UNL     1     -16.774  -8.547  11.794  1.00  0.00     0.282 A 
HETATM   20  C19 UNL     1     -18.319  -7.002  10.861  1.00  0.00     0.143 A 
HETATM   21  O2  UNL     1     -16.048  -8.828  12.768  1.00  0.00    -0.265 OA
HETATM   22  N3  UNL     1     -16.883  -9.289  10.683  1.00  0.00    -0.264 N 
HETATM   23  C18 UNL     1     -17.681  -8.924   9.666  1.00  0.00     0.331 A 
HETATM   24  O3  UNL     1     -17.773  -9.638   8.613  1.00  0.00    -0.246 OA
HETATM   25  N4  UNL     1     -18.395  -7.787   9.752  1.00  0.00    -0.292 N 
ATOM     26  H4  UNL     1     -19.000  -7.511   8.978  1.00  0.00     0.172 HD
HETATM   27  N5  UNL     1     -18.914  -5.851  11.218  1.00  0.00    -0.329 N 
ATOM     28  H5  UNL     1     -19.575  -5.337  10.637  1.00  0.00     0.168 HD
BRANCH  22  29
HETATM   29  C15 UNL     1     -16.093 -10.486  10.581  1.00  0.00     0.137 C 
BRANCH  29  30
HETATM   30  C16 UNL     1     -14.719 -10.227   9.988  1.00  0.00     0.016 C 
HETATM   31  C17 UNL     1     -13.718 -10.351  11.111  1.00  0.00     0.006 C 
ENDBRANCH  29  30
ENDBRANCH  22  29
ENDBRANCH   6  15
BRANCH   1  32
HETATM   32  C3  UNL     1     -22.725  -6.683  16.080  1.00  0.00     0.103 C 
BRANCH  32  33
HETATM   33  C2  UNL     1     -23.348  -5.929  17.259  1.00  0.00     0.005 C 
HETATM   34  C1  UNL     1     -22.338  -5.101  17.997  1.00  0.00     0.005 C 
ENDBRANCH  32  33
ENDBRANCH   1  32
TORSDOF 7
ENDMDL
