MODEL 1
REMARK VINA RESULT: -8.130618023      0.000      0.000
REMARK  17 active torsions:
REMARK  status: ('A' for Active; 'I' for Inactive)
REMARK    1  A    between atoms: C2_2  and  C4_4 
REMARK    2  A    between atoms: C4_4  and  C5_5 
REMARK    3  A    between atoms: C5_5  and  C6_6 
REMARK    4  A    between atoms: C6_6  and  C7_7 
REMARK    5  A    between atoms: C7_7  and  C9_9 
REMARK    6  A    between atoms: C9_9  and  C10_10 
REMARK    7  A    between atoms: C10_10  and  C11_11 
REMARK    8  A    between atoms: C12_12  and  C14_14 
REMARK    9  A    between atoms: C15_15  and  C16_16 
REMARK   10  A    between atoms: C22_23  and  O2_24 
REMARK   11  A    between atoms: C24_28  and  O4_29 
REMARK   12  A    between atoms: C25_31  and  O5_32 
REMARK   13  A    between atoms: S1_35  and  C26_36 
REMARK   14  A    between atoms: C26_36  and  C27_37 
REMARK   15  A    between atoms: C27_37  and  O7_38 
REMARK   16  A    between atoms: C29_41  and  O8_42 
REMARK   17  A    between atoms: C30_44  and  O9_45 
ROOT
HETATM    1  C16 UNL     1      21.881  13.827  22.858  1.00  0.00     0.092 C 
HETATM    2  C17 UNL     1      21.550  14.198  21.474  1.00  0.00     0.136 C 
HETATM    3  O1  UNL     1      22.294  14.631  20.635  1.00  0.00    -0.297 OA
HETATM    4  C18 UNL     1      20.068  13.935  21.281  1.00  0.00     0.089 C 
HETATM    5  C19 UNL     1      19.603  14.437  22.642  1.00  0.00     0.038 C 
HETATM    6  C20 UNL     1      18.184  14.200  22.921  1.00  0.00    -0.052 C 
HETATM    7  C21 UNL     1      17.464  13.848  21.874  1.00  0.00     0.017 C 
HETATM    8  C22 UNL     1      17.323  14.255  24.136  1.00  0.00     0.187 C 
HETATM    9  C23 UNL     1      17.855  15.155  25.224  1.00  0.00     0.235 C 
HETATM   10  O3  UNL     1      18.834  15.967  24.713  1.00  0.00    -0.336 OA
HETATM   11  C24 UNL     1      20.106  15.679  25.126  1.00  0.00     0.323 C 
HETATM   12  C25 UNL     1      20.563  14.280  24.962  1.00  0.00     0.233 C 
HETATM   13  O6  UNL     1      19.908  13.382  25.814  1.00  0.00    -0.284 OA
HETATM   14  S1  UNL     1      18.618  14.169  26.504  1.00  0.00    -0.047 SA
HETATM   15  C31 UNL     1      20.524  13.728  23.569  1.00  0.00     0.040 C 
HETATM   16  C32 UNL     1      20.161  12.272  23.624  1.00  0.00     0.023 C 
ENDROOT
BRANCH   1  17
HETATM   17  C15 UNL     1      22.555  12.511  22.900  1.00  0.00    -0.013 C 
HETATM   18  C14 UNL     1      23.825  12.394  22.641  1.00  0.00     0.003 C 
BRANCH  18  19
HETATM   19  C12 UNL     1      24.532  11.103  22.672  1.00  0.00    -0.066 C 
HETATM   20  C11 UNL     1      23.902  10.043  23.135  1.00  0.00    -0.020 C 
HETATM   21  C13 UNL     1      25.930  10.927  22.217  1.00  0.00     0.048 C 
BRANCH  20  22
HETATM   22  C10 UNL     1      24.529   8.714  23.215  1.00  0.00     0.028 C 
BRANCH  22  23
HETATM   23  C9  UNL     1      23.942   7.768  22.182  1.00  0.00     0.008 C 
BRANCH  23  24
HETATM   24  C7  UNL     1      24.907   6.729  21.706  1.00  0.00    -0.018 C 
HETATM   25  C8  UNL     1      24.696   6.351  20.254  1.00  0.00     0.010 C 
BRANCH  24  26
HETATM   26  C6  UNL     1      25.005   5.548  22.614  1.00  0.00     0.004 C 
BRANCH  26  27
HETATM   27  C5  UNL     1      26.262   5.489  23.407  1.00  0.00     0.005 C 
BRANCH  27  28
HETATM   28  C4  UNL     1      26.129   6.055  24.785  1.00  0.00     0.033 C 
BRANCH  28  29
HETATM   29  C2  UNL     1      25.714   4.996  25.752  1.00  0.00    -0.093 C 
HETATM   30  C1  UNL     1      26.274   3.806  25.796  1.00  0.00     0.014 C 
HETATM   31  C3  UNL     1      24.618   5.327  26.703  1.00  0.00     0.042 C 
ENDBRANCH  28  29
ENDBRANCH  27  28
ENDBRANCH  26  27
ENDBRANCH  24  26
ENDBRANCH  23  24
ENDBRANCH  22  23
ENDBRANCH  20  22
ENDBRANCH  18  19
ENDBRANCH   1  17
BRANCH  12  32
HETATM   32  O5  UNL     1      21.918  14.240  25.370  1.00  0.00    -0.360 OA
ATOM     33  H5  UNL     1      21.922  14.263  26.320  1.00  0.00     0.213 HD
ENDBRANCH  12  32
BRANCH  11  34
HETATM   34  O4  UNL     1      21.004  16.535  24.501  1.00  0.00    -0.366 OA
ATOM     35  H4  UNL     1      21.771  16.046  24.224  1.00  0.00     0.212 HD
ENDBRANCH  11  34
BRANCH   8  36
HETATM   36  O2  UNL     1      16.076  14.765  23.698  1.00  0.00    -0.388 OA
ATOM     37  H2  UNL     1      15.695  15.196  24.454  1.00  0.00     0.210 HD
ENDBRANCH   8  36
BRANCH  14  38
HETATM   38  C26 UNL     1      17.397  13.052  27.151  1.00  0.00     0.163 C 
BRANCH  38  39
HETATM   39  C27 UNL     1      16.547  13.696  28.202  1.00  0.00     0.177 C 
HETATM   40  C28 UNL     1      15.673  12.713  28.929  1.00  0.00     0.106 C 
HETATM   41  C29 UNL     1      16.615  12.178  29.981  1.00  0.00     0.178 C 
HETATM   42  C30 UNL     1      17.768  13.131  29.926  1.00  0.00     0.289 C 
HETATM   43  O10 UNL     1      17.318  14.213  29.198  1.00  0.00    -0.322 OA
BRANCH  39  44
HETATM   44  O7  UNL     1      15.740  14.655  27.581  1.00  0.00    -0.364 OA
ATOM     45  H7  UNL     1      15.209  15.072  28.249  1.00  0.00     0.213 HD
ENDBRANCH  39  44
BRANCH  41  46
HETATM   46  O8  UNL     1      17.003  10.871  29.665  1.00  0.00    -0.390 OA
ATOM     47  H8  UNL     1      17.939  10.767  29.786  1.00  0.00     0.210 HD
ENDBRANCH  41  46
BRANCH  42  48
HETATM   48  O9  UNL     1      18.103  13.614  31.203  1.00  0.00    -0.368 OA
ATOM     49  H9  UNL     1      17.343  13.954  31.660  1.00  0.00     0.212 HD
ENDBRANCH  42  48
ENDBRANCH  38  39
ENDBRANCH  14  38
TORSDOF 17
ENDMDL
MODEL 2
REMARK VINA RESULT: -7.681354493      6.660     12.363
REMARK  17 active torsions:
REMARK  status: ('A' for Active; 'I' for Inactive)
REMARK    1  A    between atoms: C2_2  and  C4_4 
REMARK    2  A    between atoms: C4_4  and  C5_5 
REMARK    3  A    between atoms: C5_5  and  C6_6 
REMARK    4  A    between atoms: C6_6  and  C7_7 
REMARK    5  A    between atoms: C7_7  and  C9_9 
REMARK    6  A    between atoms: C9_9  and  C10_10 
REMARK    7  A    between atoms: C10_10  and  C11_11 
REMARK    8  A    between atoms: C12_12  and  C14_14 
REMARK    9  A    between atoms: C15_15  and  C16_16 
REMARK   10  A    between atoms: C22_23  and  O2_24 
REMARK   11  A    between atoms: C24_28  and  O4_29 
REMARK   12  A    between atoms: C25_31  and  O5_32 
REMARK   13  A    between atoms: S1_35  and  C26_36 
REMARK   14  A    between atoms: C26_36  and  C27_37 
REMARK   15  A    between atoms: C27_37  and  O7_38 
REMARK   16  A    between atoms: C29_41  and  O8_42 
REMARK   17  A    between atoms: C30_44  and  O9_45 
ROOT
HETATM    1  C16 UNL     1      24.451   7.697  22.683  1.00  0.00     0.092 C 
HETATM    2  C17 UNL     1      23.120   7.380  22.142  1.00  0.00     0.136 C 
HETATM    3  O1  UNL     1      22.057   7.786  22.529  1.00  0.00    -0.297 OA
HETATM    4  C18 UNL     1      23.324   6.423  20.982  1.00  0.00     0.089 C 
HETATM    5  C19 UNL     1      24.428   5.584  21.614  1.00  0.00     0.038 C 
HETATM    6  C20 UNL     1      25.034   4.603  20.710  1.00  0.00    -0.052 C 
HETATM    7  C21 UNL     1      24.367   4.394  19.591  1.00  0.00     0.017 C 
HETATM    8  C22 UNL     1      26.258   3.755  20.739  1.00  0.00     0.187 C 
HETATM    9  C23 UNL     1      26.774   3.471  22.128  1.00  0.00     0.235 C 
HETATM   10  O3  UNL     1      25.810   3.783  23.051  1.00  0.00    -0.336 OA
HETATM   11  C24 UNL     1      26.064   4.893  23.808  1.00  0.00     0.323 C 
HETATM   12  C25 UNL     1      26.396   6.139  23.079  1.00  0.00     0.233 C 
HETATM   13  O6  UNL     1      27.642   6.089  22.440  1.00  0.00    -0.284 OA
HETATM   14  S1  UNL     1      28.180   4.518  22.475  1.00  0.00    -0.047 SA
HETATM   15  C31 UNL     1      25.376   6.624  22.093  1.00  0.00     0.040 C 
HETATM   16  C32 UNL     1      26.078   7.245  20.920  1.00  0.00     0.023 C 
ENDROOT
BRANCH   1  17
HETATM   17  C15 UNL     1      24.894   9.033  22.229  1.00  0.00    -0.013 C 
HETATM   18  C14 UNL     1      24.550  10.112  22.869  1.00  0.00     0.003 C 
BRANCH  18  19
HETATM   19  C12 UNL     1      24.971  11.460  22.450  1.00  0.00    -0.066 C 
HETATM   20  C11 UNL     1      24.623  12.493  23.189  1.00  0.00    -0.020 C 
HETATM   21  C13 UNL     1      25.764  11.723  21.228  1.00  0.00     0.048 C 
BRANCH  20  22
HETATM   22  C10 UNL     1      24.988  13.878  22.846  1.00  0.00     0.028 C 
BRANCH  22  23
HETATM   23  C9  UNL     1      23.753  14.747  22.691  1.00  0.00     0.008 C 
BRANCH  23  24
HETATM   24  C7  UNL     1      22.966  14.453  21.452  1.00  0.00    -0.018 C 
HETATM   25  C8  UNL     1      23.621  14.990  20.197  1.00  0.00     0.010 C 
BRANCH  24  26
HETATM   26  C6  UNL     1      21.523  14.816  21.566  1.00  0.00     0.004 C 
BRANCH  26  27
HETATM   27  C5  UNL     1      20.586  13.687  21.315  1.00  0.00     0.005 C 
BRANCH  27  28
HETATM   28  C4  UNL     1      21.113  12.361  21.765  1.00  0.00     0.033 C 
BRANCH  28  29
HETATM   29  C2  UNL     1      20.552  11.996  23.099  1.00  0.00    -0.093 C 
HETATM   30  C1  UNL     1      21.203  11.258  23.973  1.00  0.00     0.014 C 
HETATM   31  C3  UNL     1      19.195  12.506  23.436  1.00  0.00     0.042 C 
ENDBRANCH  28  29
ENDBRANCH  27  28
ENDBRANCH  26  27
ENDBRANCH  24  26
ENDBRANCH  23  24
ENDBRANCH  22  23
ENDBRANCH  20  22
ENDBRANCH  18  19
ENDBRANCH   1  17
BRANCH  12  32
HETATM   32  O5  UNL     1      26.531   7.161  24.050  1.00  0.00    -0.360 OA
ATOM     33  H5  UNL     1      27.382   7.046  24.456  1.00  0.00     0.213 HD
ENDBRANCH  12  32
BRANCH  11  34
HETATM   34  O4  UNL     1      24.995   5.130  24.662  1.00  0.00    -0.366 OA
ATOM     35  H4  UNL     1      24.780   6.056  24.656  1.00  0.00     0.212 HD
ENDBRANCH  11  34
BRANCH   8  36
HETATM   36  O2  UNL     1      25.889   2.527  20.135  1.00  0.00    -0.388 OA
ATOM     37  H2  UNL     1      26.232   2.562  19.250  1.00  0.00     0.210 HD
ENDBRANCH   8  36
BRANCH  14  38
HETATM   38  C26 UNL     1      29.433   4.193  21.259  1.00  0.00     0.163 C 
BRANCH  38  39
HETATM   39  C27 UNL     1      30.437   3.192  21.741  1.00  0.00     0.177 C 
HETATM   40  C28 UNL     1      30.790   2.170  20.697  1.00  0.00     0.106 C 
HETATM   41  C29 UNL     1      31.851   2.891  19.901  1.00  0.00     0.178 C 
HETATM   42  C30 UNL     1      32.188   4.067  20.764  1.00  0.00     0.289 C 
HETATM   43  O10 UNL     1      31.633   3.791  21.996  1.00  0.00    -0.322 OA
BRANCH  39  44
HETATM   44  O7  UNL     1      29.901   2.542  22.857  1.00  0.00    -0.364 OA
ATOM     45  H7  UNL     1      29.888   1.609  22.677  1.00  0.00     0.213 HD
ENDBRANCH  39  44
BRANCH  41  46
HETATM   46  O8  UNL     1      31.342   3.284  18.658  1.00  0.00    -0.390 OA
ATOM     47  H8  UNL     1      32.051   3.466  18.054  1.00  0.00     0.210 HD
ENDBRANCH  41  46
BRANCH  42  48
HETATM   48  O9  UNL     1      33.574   4.186  20.961  1.00  0.00    -0.368 OA
ATOM     49  H9  UNL     1      33.878   3.623  21.664  1.00  0.00     0.212 HD
ENDBRANCH  42  48
ENDBRANCH  38  39
ENDBRANCH  14  38
TORSDOF 17
ENDMDL
MODEL 3
REMARK VINA RESULT: -7.651103461      6.385     11.985
REMARK  17 active torsions:
REMARK  status: ('A' for Active; 'I' for Inactive)
REMARK    1  A    between atoms: C2_2  and  C4_4 
REMARK    2  A    between atoms: C4_4  and  C5_5 
REMARK    3  A    between atoms: C5_5  and  C6_6 
REMARK    4  A    between atoms: C6_6  and  C7_7 
REMARK    5  A    between atoms: C7_7  and  C9_9 
REMARK    6  A    between atoms: C9_9  and  C10_10 
REMARK    7  A    between atoms: C10_10  and  C11_11 
REMARK    8  A    between atoms: C12_12  and  C14_14 
REMARK    9  A    between atoms: C15_15  and  C16_16 
REMARK   10  A    between atoms: C22_23  and  O2_24 
REMARK   11  A    between atoms: C24_28  and  O4_29 
REMARK   12  A    between atoms: C25_31  and  O5_32 
REMARK   13  A    between atoms: S1_35  and  C26_36 
REMARK   14  A    between atoms: C26_36  and  C27_37 
REMARK   15  A    between atoms: C27_37  and  O7_38 
REMARK   16  A    between atoms: C29_41  and  O8_42 
REMARK   17  A    between atoms: C30_44  and  O9_45 
ROOT
HETATM    1  C16 UNL     1      24.196   8.243  22.792  1.00  0.00     0.092 C 
HETATM    2  C17 UNL     1      22.776   8.017  22.483  1.00  0.00     0.136 C 
HETATM    3  O1  UNL     1      21.821   8.479  23.048  1.00  0.00    -0.297 OA
HETATM    4  C18 UNL     1      22.721   7.074  21.295  1.00  0.00     0.089 C 
HETATM    5  C19 UNL     1      23.861   6.158  21.721  1.00  0.00     0.038 C 
HETATM    6  C20 UNL     1      24.242   5.160  20.718  1.00  0.00    -0.052 C 
HETATM    7  C21 UNL     1      23.384   5.015  19.727  1.00  0.00     0.017 C 
HETATM    8  C22 UNL     1      25.398   4.240  20.529  1.00  0.00     0.187 C 
HETATM    9  C23 UNL     1      26.123   3.897  21.807  1.00  0.00     0.235 C 
HETATM   10  O3  UNL     1      25.350   4.248  22.884  1.00  0.00    -0.336 OA
HETATM   11  C24 UNL     1      25.798   5.325  23.598  1.00  0.00     0.323 C 
HETATM   12  C25 UNL     1      26.079   6.564  22.835  1.00  0.00     0.233 C 
HETATM   13  O6  UNL     1      27.193   6.452  21.994  1.00  0.00    -0.284 OA
HETATM   14  S1  UNL     1      27.630   4.851  21.921  1.00  0.00    -0.047 SA
HETATM   15  C31 UNL     1      24.939   7.128  22.042  1.00  0.00     0.040 C 
HETATM   16  C32 UNL     1      25.470   7.730  20.773  1.00  0.00     0.023 C 
ENDROOT
BRANCH   1  17
HETATM   17  C15 UNL     1      24.639   9.559  22.282  1.00  0.00    -0.013 C 
HETATM   18  C14 UNL     1      24.323  10.662  22.896  1.00  0.00     0.003 C 
BRANCH  18  19
HETATM   19  C12 UNL     1      24.745  11.991  22.422  1.00  0.00    -0.066 C 
HETATM   20  C11 UNL     1      24.474  13.046  23.162  1.00  0.00    -0.020 C 
HETATM   21  C13 UNL     1      25.456  12.212  21.142  1.00  0.00     0.048 C 
BRANCH  20  22
HETATM   22  C10 UNL     1      24.846  14.414  22.767  1.00  0.00     0.028 C 
BRANCH  22  23
HETATM   23  C9  UNL     1      23.614  15.262  22.502  1.00  0.00     0.008 C 
BRANCH  23  24
HETATM   24  C7  UNL     1      23.331  15.467  21.047  1.00  0.00    -0.018 C 
HETATM   25  C8  UNL     1      23.116  16.923  20.688  1.00  0.00     0.010 C 
BRANCH  24  26
HETATM   26  C6  UNL     1      22.266  14.566  20.516  1.00  0.00     0.004 C 
BRANCH  26  27
HETATM   27  C5  UNL     1      21.235  14.181  21.518  1.00  0.00     0.005 C 
BRANCH  27  28
HETATM   28  C4  UNL     1      21.054  12.703  21.653  1.00  0.00     0.033 C 
BRANCH  28  29
HETATM   29  C2  UNL     1      20.372  12.371  22.939  1.00  0.00    -0.093 C 
HETATM   30  C1  UNL     1      21.004  11.858  23.974  1.00  0.00     0.014 C 
HETATM   31  C3  UNL     1      18.913  12.646  23.033  1.00  0.00     0.042 C 
ENDBRANCH  28  29
ENDBRANCH  27  28
ENDBRANCH  26  27
ENDBRANCH  24  26
ENDBRANCH  23  24
ENDBRANCH  22  23
ENDBRANCH  20  22
ENDBRANCH  18  19
ENDBRANCH   1  17
BRANCH  12  32
HETATM   32  O5  UNL     1      26.440   7.555  23.779  1.00  0.00    -0.360 OA
ATOM     33  H5  UNL     1      26.811   8.280  23.291  1.00  0.00     0.213 HD
ENDBRANCH  12  32
BRANCH  11  34
HETATM   34  O4  UNL     1      24.906   5.608  24.624  1.00  0.00    -0.366 OA
ATOM     35  H4  UNL     1      24.234   6.202  24.309  1.00  0.00     0.212 HD
ENDBRANCH  11  34
BRANCH   8  36
HETATM   36  O2  UNL     1      24.856   3.050  19.985  1.00  0.00    -0.388 OA
ATOM     37  H2  UNL     1      25.157   3.017  19.085  1.00  0.00     0.210 HD
ENDBRANCH   8  36
BRANCH  14  38
HETATM   38  C26 UNL     1      28.636   4.477  20.506  1.00  0.00     0.163 C 
BRANCH  38  39
HETATM   39  C27 UNL     1      30.007   4.018  20.897  1.00  0.00     0.177 C 
HETATM   40  C28 UNL     1      29.989   3.017  22.019  1.00  0.00     0.106 C 
HETATM   41  C29 UNL     1      29.739   1.725  21.278  1.00  0.00     0.178 C 
HETATM   42  C30 UNL     1      29.965   2.100  19.847  1.00  0.00     0.289 C 
HETATM   43  O10 UNL     1      30.595   3.327  19.882  1.00  0.00    -0.322 OA
BRANCH  39  44
HETATM   44  O7  UNL     1      30.744   5.139  21.295  1.00  0.00    -0.364 OA
ATOM     45  H7  UNL     1      31.623   5.053  20.946  1.00  0.00     0.213 HD
ENDBRANCH  39  44
BRANCH  41  46
HETATM   46  O8  UNL     1      28.430   1.283  21.502  1.00  0.00    -0.390 OA
ATOM     47  H8  UNL     1      28.102   0.825  20.737  1.00  0.00     0.210 HD
ENDBRANCH  41  46
BRANCH  42  48
HETATM   48  O9  UNL     1      30.847   1.211  19.210  1.00  0.00    -0.368 OA
ATOM     49  H9  UNL     1      30.438   0.370  19.042  1.00  0.00     0.212 HD
ENDBRANCH  42  48
ENDBRANCH  38  39
ENDBRANCH  14  38
TORSDOF 17
ENDMDL
MODEL 4
REMARK VINA RESULT: -7.578259666      5.976     10.927
REMARK  17 active torsions:
REMARK  status: ('A' for Active; 'I' for Inactive)
REMARK    1  A    between atoms: C2_2  and  C4_4 
REMARK    2  A    between atoms: C4_4  and  C5_5 
REMARK    3  A    between atoms: C5_5  and  C6_6 
REMARK    4  A    between atoms: C6_6  and  C7_7 
REMARK    5  A    between atoms: C7_7  and  C9_9 
REMARK    6  A    between atoms: C9_9  and  C10_10 
REMARK    7  A    between atoms: C10_10  and  C11_11 
REMARK    8  A    between atoms: C12_12  and  C14_14 
REMARK    9  A    between atoms: C15_15  and  C16_16 
REMARK   10  A    between atoms: C22_23  and  O2_24 
REMARK   11  A    between atoms: C24_28  and  O4_29 
REMARK   12  A    between atoms: C25_31  and  O5_32 
REMARK   13  A    between atoms: S1_35  and  C26_36 
REMARK   14  A    between atoms: C26_36  and  C27_37 
REMARK   15  A    between atoms: C27_37  and  O7_38 
REMARK   16  A    between atoms: C29_41  and  O8_42 
REMARK   17  A    between atoms: C30_44  and  O9_45 
ROOT
HETATM    1  C16 UNL     1      26.406   9.029  21.252  1.00  0.00     0.092 C 
HETATM    2  C17 UNL     1      27.387   8.966  22.347  1.00  0.00     0.136 C 
HETATM    3  O1  UNL     1      28.281   9.736  22.574  1.00  0.00    -0.297 OA
HETATM    4  C18 UNL     1      27.070   7.725  23.161  1.00  0.00     0.089 C 
HETATM    5  C19 UNL     1      26.738   6.805  21.993  1.00  0.00     0.038 C 
HETATM    6  C20 UNL     1      26.210   5.496  22.386  1.00  0.00    -0.052 C 
HETATM    7  C21 UNL     1      26.354   5.201  23.664  1.00  0.00     0.017 C 
HETATM    8  C22 UNL     1      25.523   4.379  21.680  1.00  0.00     0.187 C 
HETATM    9  C23 UNL     1      25.800   4.329  20.197  1.00  0.00     0.235 C 
HETATM   10  O3  UNL     1      26.878   5.123  19.903  1.00  0.00    -0.336 OA
HETATM   11  C24 UNL     1      26.588   6.275  19.225  1.00  0.00     0.323 C 
HETATM   12  C25 UNL     1      25.543   7.149  19.807  1.00  0.00     0.233 C 
HETATM   13  O6  UNL     1      24.259   6.593  19.741  1.00  0.00    -0.284 OA
HETATM   14  S1  UNL     1      24.407   4.998  19.301  1.00  0.00    -0.047 SA
HETATM   15  C31 UNL     1      25.783   7.627  21.208  1.00  0.00     0.040 C 
HETATM   16  C32 UNL     1      24.470   7.706  21.933  1.00  0.00     0.023 C 
ENDROOT
BRANCH   1  17
HETATM   17  C15 UNL     1      25.355  10.026  21.550  1.00  0.00    -0.013 C 
HETATM   18  C14 UNL     1      25.560  10.992  22.398  1.00  0.00     0.003 C 
BRANCH  18  19
HETATM   19  C12 UNL     1      24.541  12.004  22.720  1.00  0.00    -0.066 C 
HETATM   20  C11 UNL     1      23.272  11.717  22.512  1.00  0.00    -0.020 C 
HETATM   21  C13 UNL     1      24.864  13.343  23.263  1.00  0.00     0.048 C 
BRANCH  20  22
HETATM   22  C10 UNL     1      22.183  12.668  22.794  1.00  0.00     0.028 C 
BRANCH  22  23
HETATM   23  C9  UNL     1      20.963  12.371  21.941  1.00  0.00     0.008 C 
BRANCH  23  24
HETATM   24  C7  UNL     1      19.958  13.479  21.930  1.00  0.00    -0.018 C 
HETATM   25  C8  UNL     1      20.452  14.729  22.629  1.00  0.00     0.010 C 
BRANCH  24  26
HETATM   26  C6  UNL     1      18.599  13.052  22.375  1.00  0.00     0.004 C 
BRANCH  26  27
HETATM   27  C5  UNL     1      18.174  13.627  23.680  1.00  0.00     0.005 C 
BRANCH  27  28
HETATM   28  C4  UNL     1      17.936  12.598  24.739  1.00  0.00     0.033 C 
BRANCH  28  29
HETATM   29  C2  UNL     1      19.231  12.068  25.260  1.00  0.00    -0.093 C 
HETATM   30  C1  UNL     1      20.121  12.822  25.871  1.00  0.00     0.014 C 
HETATM   31  C3  UNL     1      19.505  10.617  25.072  1.00  0.00     0.042 C 
ENDBRANCH  28  29
ENDBRANCH  27  28
ENDBRANCH  26  27
ENDBRANCH  24  26
ENDBRANCH  23  24
ENDBRANCH  22  23
ENDBRANCH  20  22
ENDBRANCH  18  19
ENDBRANCH   1  17
BRANCH  12  32
HETATM   32  O5  UNL     1      25.476   8.307  18.995  1.00  0.00    -0.360 OA
ATOM     33  H5  UNL     1      26.370   8.595  18.849  1.00  0.00     0.213 HD
ENDBRANCH  12  32
BRANCH  11  34
HETATM   34  O4  UNL     1      27.751   7.010  19.034  1.00  0.00    -0.366 OA
ATOM     35  H4  UNL     1      27.588   7.708  18.411  1.00  0.00     0.212 HD
ENDBRANCH  11  34
BRANCH   8  36
HETATM   36  O2  UNL     1      26.018   3.190  22.270  1.00  0.00    -0.388 OA
ATOM     37  H2  UNL     1      25.357   2.919  22.896  1.00  0.00     0.210 HD
ENDBRANCH   8  36
BRANCH  14  38
HETATM   38  C26 UNL     1      22.968   4.038  19.705  1.00  0.00     0.163 C 
BRANCH  38  39
HETATM   39  C27 UNL     1      21.716   4.859  19.667  1.00  0.00     0.177 C 
HETATM   40  C28 UNL     1      21.482   5.504  18.329  1.00  0.00     0.106 C 
HETATM   41  C29 UNL     1      20.808   4.392  17.562  1.00  0.00     0.178 C 
HETATM   42  C30 UNL     1      20.462   3.399  18.628  1.00  0.00     0.289 C 
HETATM   43  O10 UNL     1      20.616   4.071  19.822  1.00  0.00    -0.322 OA
BRANCH  39  44
HETATM   44  O7  UNL     1      21.819   5.854  20.644  1.00  0.00    -0.364 OA
ATOM     45  H7  UNL     1      21.031   6.384  20.610  1.00  0.00     0.213 HD
ENDBRANCH  39  44
BRANCH  41  46
HETATM   46  O8  UNL     1      21.687   3.855  16.614  1.00  0.00    -0.390 OA
ATOM     47  H8  UNL     1      21.271   3.821  15.761  1.00  0.00     0.210 HD
ENDBRANCH  41  46
BRANCH  42  48
HETATM   48  O9  UNL     1      19.115   3.007  18.554  1.00  0.00    -0.368 OA
ATOM     49  H9  UNL     1      18.890   2.683  17.690  1.00  0.00     0.212 HD
ENDBRANCH  42  48
ENDBRANCH  38  39
ENDBRANCH  14  38
TORSDOF 17
ENDMDL
MODEL 5
REMARK VINA RESULT: -7.559866128      6.348     12.162
REMARK  17 active torsions:
REMARK  status: ('A' for Active; 'I' for Inactive)
REMARK    1  A    between atoms: C2_2  and  C4_4 
REMARK    2  A    between atoms: C4_4  and  C5_5 
REMARK    3  A    between atoms: C5_5  and  C6_6 
REMARK    4  A    between atoms: C6_6  and  C7_7 
REMARK    5  A    between atoms: C7_7  and  C9_9 
REMARK    6  A    between atoms: C9_9  and  C10_10 
REMARK    7  A    between atoms: C10_10  and  C11_11 
REMARK    8  A    between atoms: C12_12  and  C14_14 
REMARK    9  A    between atoms: C15_15  and  C16_16 
REMARK   10  A    between atoms: C22_23  and  O2_24 
REMARK   11  A    between atoms: C24_28  and  O4_29 
REMARK   12  A    between atoms: C25_31  and  O5_32 
REMARK   13  A    between atoms: S1_35  and  C26_36 
REMARK   14  A    between atoms: C26_36  and  C27_37 
REMARK   15  A    between atoms: C27_37  and  O7_38 
REMARK   16  A    between atoms: C29_41  and  O8_42 
REMARK   17  A    between atoms: C30_44  and  O9_45 
ROOT
HETATM    1  C16 UNL     1      24.317   8.225  22.701  1.00  0.00     0.092 C 
HETATM    2  C17 UNL     1      22.876   8.033  22.479  1.00  0.00     0.136 C 
HETATM    3  O1  UNL     1      21.969   8.485  23.125  1.00  0.00    -0.297 OA
HETATM    4  C18 UNL     1      22.725   7.140  21.262  1.00  0.00     0.089 C 
HETATM    5  C19 UNL     1      23.876   6.191  21.573  1.00  0.00     0.038 C 
HETATM    6  C20 UNL     1      24.172   5.229  20.508  1.00  0.00    -0.052 C 
HETATM    7  C21 UNL     1      23.247   5.137  19.572  1.00  0.00     0.017 C 
HETATM    8  C22 UNL     1      25.297   4.301  20.206  1.00  0.00     0.187 C 
HETATM    9  C23 UNL     1      26.099   3.896  21.418  1.00  0.00     0.235 C 
HETATM   10  O3  UNL     1      25.406   4.214  22.557  1.00  0.00    -0.336 OA
HETATM   11  C24 UNL     1      25.918   5.255  23.281  1.00  0.00     0.323 C 
HETATM   12  C25 UNL     1      26.170   6.519  22.552  1.00  0.00     0.233 C 
HETATM   13  O6  UNL     1      27.223   6.425  21.633  1.00  0.00    -0.284 OA
HETATM   14  S1  UNL     1      27.626   4.822  21.468  1.00  0.00    -0.047 SA
HETATM   15  C31 UNL     1      24.989   7.132  21.860  1.00  0.00     0.040 C 
HETATM   16  C32 UNL     1      25.445   7.777  20.583  1.00  0.00     0.023 C 
ENDROOT
BRANCH   1  17
HETATM   17  C15 UNL     1      24.748   9.555  22.215  1.00  0.00    -0.013 C 
HETATM   18  C14 UNL     1      24.418  10.644  22.847  1.00  0.00     0.003 C 
BRANCH  18  19
HETATM   19  C12 UNL     1      24.828  11.985  22.396  1.00  0.00    -0.066 C 
HETATM   20  C11 UNL     1      24.584  13.019  23.175  1.00  0.00    -0.020 C 
HETATM   21  C13 UNL     1      25.496  12.242  21.101  1.00  0.00     0.048 C 
BRANCH  20  22
HETATM   22  C10 UNL     1      24.946  14.397  22.807  1.00  0.00     0.028 C 
BRANCH  22  23
HETATM   23  C9  UNL     1      23.710  15.230  22.518  1.00  0.00     0.008 C 
BRANCH  23  24
HETATM   24  C7  UNL     1      23.452  15.431  21.058  1.00  0.00    -0.018 C 
HETATM   25  C8  UNL     1      23.185  16.879  20.702  1.00  0.00     0.010 C 
BRANCH  24  26
HETATM   26  C6  UNL     1      22.438  14.490  20.498  1.00  0.00     0.004 C 
BRANCH  26  27
HETATM   27  C5  UNL     1      21.283  14.229  21.399  1.00  0.00     0.005 C 
BRANCH  27  28
HETATM   28  C4  UNL     1      21.157  12.796  21.811  1.00  0.00     0.033 C 
BRANCH  28  29
HETATM   29  C2  UNL     1      20.905  12.690  23.279  1.00  0.00    -0.093 C 
HETATM   30  C1  UNL     1      20.844  11.539  23.914  1.00  0.00     0.014 C 
HETATM   31  C3  UNL     1      20.722  13.957  24.037  1.00  0.00     0.042 C 
ENDBRANCH  28  29
ENDBRANCH  27  28
ENDBRANCH  26  27
ENDBRANCH  24  26
ENDBRANCH  23  24
ENDBRANCH  22  23
ENDBRANCH  20  22
ENDBRANCH  18  19
ENDBRANCH   1  17
BRANCH  12  32
HETATM   32  O5  UNL     1      26.609   7.466  23.508  1.00  0.00    -0.360 OA
ATOM     33  H5  UNL     1      26.880   8.239  23.027  1.00  0.00     0.213 HD
ENDBRANCH  12  32
BRANCH  11  34
HETATM   34  O4  UNL     1      25.101   5.508  24.376  1.00  0.00    -0.366 OA
ATOM     35  H4  UNL     1      24.314   5.957  24.089  1.00  0.00     0.212 HD
ENDBRANCH  11  34
BRANCH   8  36
HETATM   36  O2  UNL     1      24.699   3.142  19.653  1.00  0.00    -0.388 OA
ATOM     37  H2  UNL     1      24.281   2.695  20.380  1.00  0.00     0.210 HD
ENDBRANCH   8  36
BRANCH  14  38
HETATM   38  C26 UNL     1      28.530   4.492  19.975  1.00  0.00     0.163 C 
BRANCH  38  39
HETATM   39  C27 UNL     1      30.011   4.501  20.201  1.00  0.00     0.177 C 
HETATM   40  C28 UNL     1      30.578   3.125  20.413  1.00  0.00     0.106 C 
HETATM   41  C29 UNL     1      30.770   2.646  18.995  1.00  0.00     0.178 C 
HETATM   42  C30 UNL     1      30.600   3.893  18.184  1.00  0.00     0.289 C 
HETATM   43  O10 UNL     1      30.667   4.933  19.089  1.00  0.00    -0.322 OA
BRANCH  39  44
HETATM   44  O7  UNL     1      30.273   5.284  21.330  1.00  0.00    -0.364 OA
ATOM     45  H7  UNL     1      30.233   4.722  22.095  1.00  0.00     0.213 HD
ENDBRANCH  39  44
BRANCH  41  46
HETATM   46  O8  UNL     1      29.809   1.680  18.674  1.00  0.00    -0.390 OA
ATOM     47  H8  UNL     1      30.228   0.899  18.333  1.00  0.00     0.210 HD
ENDBRANCH  41  46
BRANCH  42  48
HETATM   48  O9  UNL     1      31.661   4.074  17.281  1.00  0.00    -0.368 OA
ATOM     49  H9  UNL     1      31.380   4.533  16.497  1.00  0.00     0.212 HD
ENDBRANCH  42  48
ENDBRANCH  38  39
ENDBRANCH  14  38
TORSDOF 17
ENDMDL
