MODEL 1
REMARK VINA RESULT: -8.716158599      0.000      0.000
REMARK  8 active torsions:
REMARK  status: ('A' for Active; 'I' for Inactive)
REMARK    1  A    between atoms: C2_2  and  C3_3 
REMARK    2  A    between atoms: C2_2  and  C10_14 
REMARK    3  A    between atoms: C3_3  and  N1_4 
REMARK    4  A    between atoms: N1_4  and  C4_6 
REMARK    5  A    between atoms: C10_14  and  N2_15 
REMARK    6  A    between atoms: C10_14  and  C11_19 
REMARK       I    between atoms: C11_19  and  N3_21 
REMARK    7  A    between atoms: N3_21  and  N4_23 
REMARK       I    between atoms: N4_23  and  C12_25 
REMARK    8  A    between atoms: N6_27  and  N7_29 
ROOT
HETATM    1  C10 UNL     1      31.273 -12.623  25.315  1.00  0.00     0.281 C 
ENDROOT
BRANCH   1   2
HETATM    2  C2  UNL     1      31.906 -11.268  25.194  1.00  0.00     0.039 C 
HETATM    3  C1  UNL     1      31.525 -10.488  23.993  1.00  0.00     0.014 C 
BRANCH   2   4
HETATM    4  C3  UNL     1      31.603 -10.483  26.438  1.00  0.00     0.126 C 
BRANCH   4   5
HETATM    5  N1  UNL     1      32.674 -10.471  27.398  1.00  0.00    -0.389 N 
ATOM      6  H1  UNL     1      33.415 -11.171  27.355  1.00  0.00     0.159 HD
BRANCH   5   7
HETATM    7  C4  UNL     1      32.688  -9.480  28.401  1.00  0.00     0.029 A 
HETATM    8  C5  UNL     1      33.710  -9.351  29.316  1.00  0.00     0.031 A 
HETATM    9  C6  UNL     1      33.763  -8.376  30.276  1.00  0.00     0.028 A 
HETATM   10  C7  UNL     1      32.766  -7.451  30.372  1.00  0.00     0.055 A 
HETATM   11 CL1  UNL     1      32.807  -6.190  31.589  1.00  0.00    -0.083 Cl
HETATM   12  C8  UNL     1      31.720  -7.549  29.470  1.00  0.00     0.058 A 
HETATM   13 CL2  UNL     1      30.461  -6.337  29.628  1.00  0.00    -0.082 Cl
HETATM   14  C9  UNL     1      31.665  -8.531  28.502  1.00  0.00     0.054 A 
ENDBRANCH   5   7
ENDBRANCH   4   5
ENDBRANCH   2   4
ENDBRANCH   1   2
BRANCH   1  15
HETATM   15  N2  UNL     1      29.937 -12.569  25.818  1.00  0.00    -0.066 N 
ATOM     16  H23 UNL     1      29.641 -11.604  25.961  1.00  0.00     0.275 HD
ATOM     17  H22 UNL     1      29.266 -12.844  25.102  1.00  0.00     0.275 HD
ATOM     18  H21 UNL     1      29.811 -13.119  26.668  1.00  0.00     0.275 HD
ENDBRANCH   1  15
BRANCH   1  19
HETATM   19  C11 UNL     1      31.484 -13.474  24.136  1.00  0.00     0.267 C 
HETATM   20  O1  UNL     1      30.578 -14.122  23.572  1.00  0.00    -0.269 OA
HETATM   21  N3  UNL     1      32.781 -13.584  23.586  1.00  0.00    -0.266 N 
ATOM     22  H3  UNL     1      33.526 -13.055  24.039  1.00  0.00     0.190 HD
BRANCH  21  23
HETATM   23  N4  UNL     1      33.129 -14.354  22.476  1.00  0.00    -0.270 N 
HETATM   24  C12 UNL     1      34.202 -14.038  21.623  1.00  0.00     0.221 C 
HETATM   25  N5  UNL     1      34.145 -12.808  20.902  1.00  0.00    -0.061 NA
HETATM   26  N6  UNL     1      35.202 -14.799  21.459  1.00  0.00    -0.279 N 
ATOM     27  H6  UNL     1      35.920 -14.462  20.818  1.00  0.00     0.189 HD
ATOM     28  H4  UNL     1      32.579 -15.188  22.272  1.00  0.00     0.189 HD
BRANCH  26  29
HETATM   29  N7  UNL     1      35.437 -16.028  22.042  1.00  0.00    -0.343 N 
ATOM     30  H72 UNL     1      35.018 -16.153  22.964  1.00  0.00     0.176 HD
ATOM     31  H71 UNL     1      35.971 -16.810  21.663  1.00  0.00     0.176 HD
ENDBRANCH  26  29
ENDBRANCH  21  23
ENDBRANCH   1  19
TORSDOF 8
ENDMDL
MODEL 2
REMARK VINA RESULT: -8.559175028      1.180      1.494
REMARK  8 active torsions:
REMARK  status: ('A' for Active; 'I' for Inactive)
REMARK    1  A    between atoms: C2_2  and  C3_3 
REMARK    2  A    between atoms: C2_2  and  C10_14 
REMARK    3  A    between atoms: C3_3  and  N1_4 
REMARK    4  A    between atoms: N1_4  and  C4_6 
REMARK    5  A    between atoms: C10_14  and  N2_15 
REMARK    6  A    between atoms: C10_14  and  C11_19 
REMARK       I    between atoms: C11_19  and  N3_21 
REMARK    7  A    between atoms: N3_21  and  N4_23 
REMARK       I    between atoms: N4_23  and  C12_25 
REMARK    8  A    between atoms: N6_27  and  N7_29 
ROOT
HETATM    1  C10 UNL     1      31.835 -13.220  24.713  1.00  0.00     0.281 C 
ENDROOT
BRANCH   1   2
HETATM    2  C2  UNL     1      32.505 -11.881  24.625  1.00  0.00     0.039 C 
HETATM    3  C1  UNL     1      31.753 -10.834  23.893  1.00  0.00     0.014 C 
BRANCH   2   4
HETATM    4  C3  UNL     1      32.824 -11.411  26.016  1.00  0.00     0.126 C 
BRANCH   4   5
HETATM    5  N1  UNL     1      31.827 -10.544  26.584  1.00  0.00    -0.389 N 
ATOM      6  H1  UNL     1      30.881 -10.526  26.202  1.00  0.00     0.159 HD
BRANCH   5   7
HETATM    7  C4  UNL     1      32.171  -9.721  27.675  1.00  0.00     0.029 A 
HETATM    8  C5  UNL     1      33.283  -9.939  28.460  1.00  0.00     0.031 A 
HETATM    9  C6  UNL     1      33.656  -9.134  29.503  1.00  0.00     0.028 A 
HETATM   10  C7  UNL     1      32.915  -8.035  29.823  1.00  0.00     0.055 A 
HETATM   11 CL1  UNL     1      33.370  -6.985  31.151  1.00  0.00    -0.083 Cl
HETATM   12  C8  UNL     1      31.789  -7.784  29.057  1.00  0.00     0.058 A 
HETATM   13 CL2  UNL     1      30.868  -6.359  29.503  1.00  0.00    -0.082 Cl
HETATM   14  C9  UNL     1      31.411  -8.594  28.007  1.00  0.00     0.054 A 
ENDBRANCH   5   7
ENDBRANCH   4   5
ENDBRANCH   2   4
ENDBRANCH   1   2
BRANCH   1  15
HETATM   15  N2  UNL     1      30.498 -13.140  25.209  1.00  0.00    -0.066 N 
ATOM     16  H23 UNL     1      29.924 -13.893  24.831  1.00  0.00     0.275 HD
ATOM     17  H22 UNL     1      30.461 -13.384  26.199  1.00  0.00     0.275 HD
ATOM     18  H21 UNL     1      30.067 -12.232  25.040  1.00  0.00     0.275 HD
ENDBRANCH   1  15
BRANCH   1  19
HETATM   19  C11 UNL     1      32.030 -14.050  23.516  1.00  0.00     0.267 C 
HETATM   20  O1  UNL     1      31.188 -14.867  23.089  1.00  0.00    -0.269 OA
HETATM   21  N3  UNL     1      33.235 -13.938  22.786  1.00  0.00    -0.266 N 
ATOM     22  H3  UNL     1      33.927 -13.271  23.127  1.00  0.00     0.190 HD
BRANCH  21  23
HETATM   23  N4  UNL     1      33.559 -14.662  21.638  1.00  0.00    -0.270 N 
HETATM   24  C12 UNL     1      34.374 -15.809  21.653  1.00  0.00     0.221 C 
HETATM   25  N5  UNL     1      35.725 -15.665  22.088  1.00  0.00    -0.061 NA
HETATM   26  N6  UNL     1      33.967 -16.951  21.286  1.00  0.00    -0.279 N 
ATOM     27  H6  UNL     1      34.647 -17.709  21.343  1.00  0.00     0.189 HD
ATOM     28  H4  UNL     1      33.186 -14.345  20.743  1.00  0.00     0.189 HD
BRANCH  26  29
HETATM   29  N7  UNL     1      32.714 -17.294  20.817  1.00  0.00    -0.343 N 
ATOM     30  H72 UNL     1      32.466 -16.887  19.915  1.00  0.00     0.176 HD
ATOM     31  H71 UNL     1      32.022 -17.898  21.262  1.00  0.00     0.176 HD
ENDBRANCH  26  29
ENDBRANCH  21  23
ENDBRANCH   1  19
TORSDOF 8
ENDMDL
MODEL 3
REMARK VINA RESULT: -8.477727415      1.800      2.492
REMARK  8 active torsions:
REMARK  status: ('A' for Active; 'I' for Inactive)
REMARK    1  A    between atoms: C2_2  and  C3_3 
REMARK    2  A    between atoms: C2_2  and  C10_14 
REMARK    3  A    between atoms: C3_3  and  N1_4 
REMARK    4  A    between atoms: N1_4  and  C4_6 
REMARK    5  A    between atoms: C10_14  and  N2_15 
REMARK    6  A    between atoms: C10_14  and  C11_19 
REMARK       I    between atoms: C11_19  and  N3_21 
REMARK    7  A    between atoms: N3_21  and  N4_23 
REMARK       I    between atoms: N4_23  and  C12_25 
REMARK    8  A    between atoms: N6_27  and  N7_29 
ROOT
HETATM    1  C10 UNL     1      33.121 -10.499  25.225  1.00  0.00     0.281 C 
ENDROOT
BRANCH   1   2
HETATM    2  C2  UNL     1      34.431 -10.125  25.854  1.00  0.00     0.039 C 
HETATM    3  C1  UNL     1      34.773  -8.683  25.813  1.00  0.00     0.014 C 
BRANCH   2   4
HETATM    4  C3  UNL     1      34.442 -10.619  27.272  1.00  0.00     0.126 C 
BRANCH   4   5
HETATM    5  N1  UNL     1      33.184 -10.466  27.955  1.00  0.00    -0.389 N 
ATOM      6  H1  UNL     1      32.429 -11.135  27.801  1.00  0.00     0.159 HD
BRANCH   5   7
HETATM    7  C4  UNL     1      33.008  -9.381  28.837  1.00  0.00     0.029 A 
HETATM    8  C5  UNL     1      33.946  -9.017  29.779  1.00  0.00     0.031 A 
HETATM    9  C6  UNL     1      33.812  -7.948  30.623  1.00  0.00     0.028 A 
HETATM   10  C7  UNL     1      32.699  -7.163  30.566  1.00  0.00     0.055 A 
HETATM   11 CL1  UNL     1      32.500  -5.785  31.633  1.00  0.00    -0.083 Cl
HETATM   12  C8  UNL     1      31.732  -7.498  29.634  1.00  0.00     0.058 A 
HETATM   13 CL2  UNL     1      30.318  -6.460  29.594  1.00  0.00    -0.082 Cl
HETATM   14  C9  UNL     1      31.865  -8.576  28.782  1.00  0.00     0.054 A 
ENDBRANCH   5   7
ENDBRANCH   4   5
ENDBRANCH   2   4
ENDBRANCH   1   2
BRANCH   1  15
HETATM   15  N2  UNL     1      32.553  -9.439  24.455  1.00  0.00    -0.066 N 
ATOM     16  H23 UNL     1      33.194  -8.648  24.393  1.00  0.00     0.275 HD
ATOM     17  H22 UNL     1      32.504  -9.690  23.468  1.00  0.00     0.275 HD
ATOM     18  H21 UNL     1      31.640  -9.142  24.802  1.00  0.00     0.275 HD
ENDBRANCH   1  15
BRANCH   1  19
HETATM   19  C11 UNL     1      33.135 -11.822  24.588  1.00  0.00     0.267 C 
HETATM   20  O1  UNL     1      33.733 -12.077  23.522  1.00  0.00    -0.269 OA
HETATM   21  N3  UNL     1      32.439 -12.890  25.197  1.00  0.00    -0.266 N 
ATOM     22  H3  UNL     1      31.951 -12.691  26.071  1.00  0.00     0.190 HD
BRANCH  21  23
HETATM   23  N4  UNL     1      32.362 -14.194  24.707  1.00  0.00    -0.270 N 
HETATM   24  C12 UNL     1      31.736 -14.526  23.491  1.00  0.00     0.221 C 
HETATM   25  N5  UNL     1      30.338 -14.268  23.364  1.00  0.00    -0.061 NA
HETATM   26  N6  UNL     1      32.353 -15.052  22.518  1.00  0.00    -0.279 N 
ATOM     27  H6  UNL     1      31.795 -15.245  21.686  1.00  0.00     0.189 HD
ATOM     28  H4  UNL     1      32.779 -14.945  25.257  1.00  0.00     0.189 HD
BRANCH  26  29
HETATM   29  N7  UNL     1      33.688 -15.397  22.447  1.00  0.00    -0.343 N 
ATOM     30  H72 UNL     1      34.333 -14.608  22.395  1.00  0.00     0.176 HD
ATOM     31  H71 UNL     1      34.094 -16.333  22.440  1.00  0.00     0.176 HD
ENDBRANCH  26  29
ENDBRANCH  21  23
ENDBRANCH   1  19
TORSDOF 8
ENDMDL
MODEL 4
REMARK VINA RESULT: -8.429110964      2.220      3.557
REMARK  8 active torsions:
REMARK  status: ('A' for Active; 'I' for Inactive)
REMARK    1  A    between atoms: C2_2  and  C3_3 
REMARK    2  A    between atoms: C2_2  and  C10_14 
REMARK    3  A    between atoms: C3_3  and  N1_4 
REMARK    4  A    between atoms: N1_4  and  C4_6 
REMARK    5  A    between atoms: C10_14  and  N2_15 
REMARK    6  A    between atoms: C10_14  and  C11_19 
REMARK       I    between atoms: C11_19  and  N3_21 
REMARK    7  A    between atoms: N3_21  and  N4_23 
REMARK       I    between atoms: N4_23  and  C12_25 
REMARK    8  A    between atoms: N6_27  and  N7_29 
ROOT
HETATM    1  C10 UNL     1      35.458 -10.810  24.638  1.00  0.00     0.281 C 
ENDROOT
BRANCH   1   2
HETATM    2  C2  UNL     1      35.499 -10.064  25.939  1.00  0.00     0.039 C 
HETATM    3  C1  UNL     1      35.212  -8.612  25.855  1.00  0.00     0.014 C 
BRANCH   2   4
HETATM    4  C3  UNL     1      34.553 -10.723  26.902  1.00  0.00     0.126 C 
BRANCH   4   5
HETATM    5  N1  UNL     1      33.264 -10.088  26.982  1.00  0.00    -0.389 N 
ATOM      6  H1  UNL     1      32.562 -10.252  26.261  1.00  0.00     0.159 HD
BRANCH   5   7
HETATM    7  C4  UNL     1      32.984  -9.237  28.071  1.00  0.00     0.029 A 
HETATM    8  C5  UNL     1      33.808  -9.124  29.169  1.00  0.00     0.031 A 
HETATM    9  C6  UNL     1      33.575  -8.280  30.221  1.00  0.00     0.028 A 
HETATM   10  C7  UNL     1      32.471  -7.479  30.228  1.00  0.00     0.055 A 
HETATM   11 CL1  UNL     1      32.147  -6.386  31.560  1.00  0.00    -0.083 Cl
HETATM   12  C8  UNL     1      31.617  -7.566  29.142  1.00  0.00     0.058 A 
HETATM   13 CL2  UNL     1      30.212  -6.516  29.192  1.00  0.00    -0.082 Cl
HETATM   14  C9  UNL     1      31.851  -8.416  28.081  1.00  0.00     0.054 A 
ENDBRANCH   5   7
ENDBRANCH   4   5
ENDBRANCH   2   4
ENDBRANCH   1   2
BRANCH   1  15
HETATM   15  N2  UNL     1      36.408 -11.875  24.579  1.00  0.00    -0.066 N 
ATOM     16  H23 UNL     1      37.345 -11.519  24.397  1.00  0.00     0.275 HD
ATOM     17  H22 UNL     1      36.561 -12.279  25.503  1.00  0.00     0.275 HD
ATOM     18  H21 UNL     1      36.153 -12.596  23.903  1.00  0.00     0.275 HD
ENDBRANCH   1  15
BRANCH   1  19
HETATM   19  C11 UNL     1      34.096 -11.135  24.194  1.00  0.00     0.267 C 
HETATM   20  O1  UNL     1      33.206 -10.284  23.992  1.00  0.00    -0.269 OA
HETATM   21  N3  UNL     1      33.745 -12.486  23.975  1.00  0.00    -0.266 N 
ATOM     22  H3  UNL     1      34.467 -13.188  24.135  1.00  0.00     0.190 HD
BRANCH  21  23
HETATM   23  N4  UNL     1      32.494 -12.942  23.558  1.00  0.00    -0.270 N 
HETATM   24  C12 UNL     1      31.622 -13.671  24.387  1.00  0.00     0.221 C 
HETATM   25  N5  UNL     1      32.059 -14.942  24.867  1.00  0.00    -0.061 NA
HETATM   26  N6  UNL     1      30.470 -13.257  24.713  1.00  0.00    -0.279 N 
ATOM     27  H6  UNL     1      29.929 -13.870  25.322  1.00  0.00     0.189 HD
ATOM     28  H4  UNL     1      32.196 -12.738  22.604  1.00  0.00     0.189 HD
BRANCH  26  29
HETATM   29  N7  UNL     1      29.858 -12.075  24.342  1.00  0.00    -0.343 N 
ATOM     30  H72 UNL     1      30.326 -11.565  23.593  1.00  0.00     0.176 HD
ATOM     31  H71 UNL     1      29.007 -11.664  24.726  1.00  0.00     0.176 HD
ENDBRANCH  26  29
ENDBRANCH  21  23
ENDBRANCH   1  19
TORSDOF 8
ENDMDL
MODEL 5
REMARK VINA RESULT: -8.399467603      1.644      1.914
REMARK  8 active torsions:
REMARK  status: ('A' for Active; 'I' for Inactive)
REMARK    1  A    between atoms: C2_2  and  C3_3 
REMARK    2  A    between atoms: C2_2  and  C10_14 
REMARK    3  A    between atoms: C3_3  and  N1_4 
REMARK    4  A    between atoms: N1_4  and  C4_6 
REMARK    5  A    between atoms: C10_14  and  N2_15 
REMARK    6  A    between atoms: C10_14  and  C11_19 
REMARK       I    between atoms: C11_19  and  N3_21 
REMARK    7  A    between atoms: N3_21  and  N4_23 
REMARK       I    between atoms: N4_23  and  C12_25 
REMARK    8  A    between atoms: N6_27  and  N7_29 
ROOT
HETATM    1  C10 UNL     1      32.577 -12.277  24.096  1.00  0.00     0.281 C 
ENDROOT
BRANCH   1   2
HETATM    2  C2  UNL     1      33.114 -10.917  24.430  1.00  0.00     0.039 C 
HETATM    3  C1  UNL     1      32.156  -9.796  24.285  1.00  0.00     0.014 C 
BRANCH   2   4
HETATM    4  C3  UNL     1      33.666 -10.948  25.827  1.00  0.00     0.126 C 
BRANCH   4   5
HETATM    5  N1  UNL     1      32.659 -10.941  26.854  1.00  0.00    -0.389 N 
ATOM      6  H1  UNL     1      31.902 -11.625  26.840  1.00  0.00     0.159 HD
BRANCH   5   7
HETATM    7  C4  UNL     1      32.730  -9.978  27.881  1.00  0.00     0.029 A 
HETATM    8  C5  UNL     1      33.762  -9.926  28.793  1.00  0.00     0.031 A 
HETATM    9  C6  UNL     1      33.870  -8.980  29.777  1.00  0.00     0.028 A 
HETATM   10  C7  UNL     1      32.924  -8.008  29.902  1.00  0.00     0.055 A 
HETATM   11 CL1  UNL     1      33.037  -6.782  31.151  1.00  0.00    -0.083 Cl
HETATM   12  C8  UNL     1      31.870  -8.028  29.005  1.00  0.00     0.058 A 
HETATM   13 CL2  UNL     1      30.677  -6.756  29.203  1.00  0.00    -0.082 Cl
HETATM   14  C9  UNL     1      31.758  -8.980  28.013  1.00  0.00     0.054 A 
ENDBRANCH   5   7
ENDBRANCH   4   5
ENDBRANCH   2   4
ENDBRANCH   1   2
BRANCH   1  15
HETATM   15  N2  UNL     1      31.157 -12.361  24.229  1.00  0.00    -0.066 N 
ATOM     16  H23 UNL     1      30.803 -11.618  24.830  1.00  0.00     0.275 HD
ATOM     17  H22 UNL     1      30.694 -12.105  23.357  1.00  0.00     0.275 HD
ATOM     18  H21 UNL     1      30.843 -13.275  24.555  1.00  0.00     0.275 HD
ENDBRANCH   1  15
BRANCH   1  19
HETATM   19  C11 UNL     1      33.143 -12.843  22.864  1.00  0.00     0.267 C 
HETATM   20  O1  UNL     1      33.696 -12.165  21.974  1.00  0.00    -0.269 OA
HETATM   21  N3  UNL     1      33.071 -14.238  22.647  1.00  0.00    -0.266 N 
ATOM     22  H3  UNL     1      32.624 -14.800  23.371  1.00  0.00     0.190 HD
BRANCH  21  23
HETATM   23  N4  UNL     1      33.561 -14.912  21.527  1.00  0.00    -0.270 N 
HETATM   24  C12 UNL     1      34.354 -16.071  21.610  1.00  0.00     0.221 C 
HETATM   25  N5  UNL     1      35.624 -15.970  22.253  1.00  0.00    -0.061 NA
HETATM   26  N6  UNL     1      33.997 -17.187  21.129  1.00  0.00    -0.279 N 
ATOM     27  H6  UNL     1      34.654 -17.958  21.252  1.00  0.00     0.189 HD
ATOM     28  H4  UNL     1      33.332 -14.546  20.604  1.00  0.00     0.189 HD
BRANCH  26  29
HETATM   29  N7  UNL     1      32.828 -17.488  20.458  1.00  0.00    -0.343 N 
ATOM     30  H72 UNL     1      31.975 -17.169  20.918  1.00  0.00     0.176 HD
ATOM     31  H71 UNL     1      32.723 -17.982  19.573  1.00  0.00     0.176 HD
ENDBRANCH  26  29
ENDBRANCH  21  23
ENDBRANCH   1  19
TORSDOF 8
ENDMDL
