MODEL 1
REMARK VINA RESULT: -6.292176745      0.000      0.000
REMARK  8 active torsions:
REMARK  status: ('A' for Active; 'I' for Inactive)
REMARK    1  A    between atoms: N1_3  and  C3_5 
REMARK    2  A    between atoms: C3_5  and  C4_9 
REMARK    3  A    between atoms: C6_11  and  N3_12 
REMARK    4  A    between atoms: C6_11  and  C7_16 
REMARK    5  A    between atoms: C7_16  and  C8_18 
REMARK    6  A    between atoms: C10_22  and  C12_25 
REMARK    7  A    between atoms: C12_25  and  C13_26 
REMARK    8  A    between atoms: C13_26  and  C14_27 
ROOT
HETATM    1  C1  UNL     1      31.131 -13.847  24.594  1.00  0.00     0.037 C 
HETATM    2  C2  UNL     1      30.932 -12.660  24.677  1.00  0.00     0.000 C 
HETATM    3  N1  UNL     1      30.718 -11.258  24.758  1.00  0.00    -0.305 N 
ATOM      4  H1  UNL     1      29.763 -10.911  24.847  1.00  0.00     0.177 HD
ENDROOT
BRANCH   3   5
HETATM    5  C3  UNL     1      31.782 -10.323  24.722  1.00  0.00     0.088 C 
HETATM    6  N2  UNL     1      32.305 -10.103  23.566  1.00  0.00    -0.388 N 
ATOM      7  H22 UNL     1      31.967 -10.579  22.730  1.00  0.00     0.157 HD
ATOM      8  H21 UNL     1      33.071  -9.430  23.540  1.00  0.00     0.157 HD
BRANCH   5   9
HETATM    9  C4  UNL     1      32.256  -9.653  25.898  1.00  0.00     0.078 C 
HETATM   10  C5  UNL     1      31.250  -9.731  27.021  1.00  0.00     0.056 C 
HETATM   11  C6  UNL     1      32.055  -9.379  28.266  1.00  0.00     0.166 C 
HETATM   12  C9  UNL     1      33.365 -10.018  27.979  1.00  0.00     0.067 C 
HETATM   13  C10 UNL     1      33.577 -10.109  26.491  1.00  0.00     0.062 C 
HETATM   14  C11 UNL     1      34.575  -9.101  26.137  1.00  0.00     0.070 C 
HETATM   15  N4  UNL     1      35.341  -8.248  25.847  1.00  0.00    -0.196 NA
BRANCH  11  16
HETATM   16  N3  UNL     1      31.369 -10.011  29.384  1.00  0.00    -0.067 N 
ATOM     17  H33 UNL     1      30.868  -9.351  29.979  1.00  0.00     0.275 HD
ATOM     18  H32 UNL     1      30.560 -10.565  29.103  1.00  0.00     0.275 HD
ATOM     19  H31 UNL     1      32.077 -10.551  29.883  1.00  0.00     0.275 HD
ENDBRANCH  11  16
BRANCH  11  20
HETATM   20  C7  UNL     1      32.041  -7.894  28.368  1.00  0.00     0.306 C 
HETATM   21  F1  UNL     1      30.782  -7.482  27.912  1.00  0.00    -0.235 F 
BRANCH  20  22
HETATM   22  C8  UNL     1      32.260  -7.336  29.702  1.00  0.00     0.211 C 
HETATM   23  O1  UNL     1      31.531  -6.354  30.063  1.00  0.00    -0.646 OA
HETATM   24  O2  UNL     1      33.200  -7.780  30.623  1.00  0.00    -0.646 OA
ENDBRANCH  20  22
ENDBRANCH  11  20
BRANCH  13  25
HETATM   25  C12 UNL     1      33.962 -11.461  26.125  1.00  0.00     0.032 C 
BRANCH  25  26
HETATM   26  C13 UNL     1      35.268 -11.622  25.446  1.00  0.00     0.074 C 
BRANCH  26  27
HETATM   27  C14 UNL     1      35.339 -11.734  23.997  1.00  0.00     0.086 C 
HETATM   28  N5  UNL     1      36.320 -11.308  23.259  1.00  0.00    -0.391 N 
ATOM     29  H52 UNL     1      37.078 -10.833  23.749  1.00  0.00     0.157 HD
ATOM     30  H51 UNL     1      36.369 -11.387  22.243  1.00  0.00     0.157 HD
HETATM   31  N6  UNL     1      34.271 -12.403  23.307  1.00  0.00    -0.088 NA
ENDBRANCH  26  27
ENDBRANCH  25  26
ENDBRANCH  13  25
ENDBRANCH   5   9
ENDBRANCH   3   5
TORSDOF 8
ENDMDL
MODEL 2
REMARK VINA RESULT: -6.240755552      2.244      4.244
REMARK  8 active torsions:
REMARK  status: ('A' for Active; 'I' for Inactive)
REMARK    1  A    between atoms: N1_3  and  C3_5 
REMARK    2  A    between atoms: C3_5  and  C4_9 
REMARK    3  A    between atoms: C6_11  and  N3_12 
REMARK    4  A    between atoms: C6_11  and  C7_16 
REMARK    5  A    between atoms: C7_16  and  C8_18 
REMARK    6  A    between atoms: C10_22  and  C12_25 
REMARK    7  A    between atoms: C12_25  and  C13_26 
REMARK    8  A    between atoms: C13_26  and  C14_27 
ROOT
HETATM    1  C1  UNL     1      37.729 -12.751  21.485  1.00  0.00     0.037 C 
HETATM    2  C2  UNL     1      37.081 -12.093  22.259  1.00  0.00     0.000 C 
HETATM    3  N1  UNL     1      36.331 -11.326  23.191  1.00  0.00    -0.305 N 
ATOM      4  H1  UNL     1      35.939 -10.434  22.891  1.00  0.00     0.177 HD
ENDROOT
BRANCH   3   5
HETATM    5  C3  UNL     1      36.108 -11.754  24.524  1.00  0.00     0.088 C 
HETATM    6  N2  UNL     1      36.967 -12.584  25.005  1.00  0.00    -0.388 N 
ATOM      7  H22 UNL     1      37.760 -12.909  24.452  1.00  0.00     0.157 HD
ATOM      8  H21 UNL     1      36.807 -12.892  25.964  1.00  0.00     0.157 HD
BRANCH   5   9
HETATM    9  C4  UNL     1      34.993 -11.296  25.301  1.00  0.00     0.078 C 
HETATM   10  C5  UNL     1      35.198  -9.879  25.778  1.00  0.00     0.056 C 
HETATM   11  C6  UNL     1      33.804  -9.418  26.186  1.00  0.00     0.166 C 
HETATM   12  C9  UNL     1      32.950 -10.071  25.161  1.00  0.00     0.067 C 
HETATM   13  C10 UNL     1      33.619 -11.323  24.657  1.00  0.00     0.062 C 
HETATM   14  C11 UNL     1      32.899 -12.457  25.234  1.00  0.00     0.070 C 
HETATM   15  N4  UNL     1      32.348 -13.369  25.746  1.00  0.00    -0.196 NA
BRANCH  11  16
HETATM   16  N3  UNL     1      33.803  -7.968  26.058  1.00  0.00    -0.067 N 
ATOM     17  H33 UNL     1      34.679  -7.534  26.348  1.00  0.00     0.275 HD
ATOM     18  H32 UNL     1      33.818  -7.646  25.090  1.00  0.00     0.275 HD
ATOM     19  H31 UNL     1      32.992  -7.637  26.583  1.00  0.00     0.275 HD
ENDBRANCH  11  16
BRANCH  11  20
HETATM   20  C7  UNL     1      33.614  -9.856  27.596  1.00  0.00     0.306 C 
HETATM   21  F1  UNL     1      34.843  -9.653  28.238  1.00  0.00    -0.235 F 
BRANCH  20  22
HETATM   22  C8  UNL     1      32.572  -9.163  28.352  1.00  0.00     0.211 C 
HETATM   23  O1  UNL     1      32.721  -9.062  29.614  1.00  0.00    -0.646 OA
HETATM   24  O2  UNL     1      31.420  -8.600  27.819  1.00  0.00    -0.646 OA
ENDBRANCH  20  22
ENDBRANCH  11  20
BRANCH  13  25
HETATM   25  C12 UNL     1      33.639 -11.326  23.204  1.00  0.00     0.032 C 
BRANCH  25  26
HETATM   26  C13 UNL     1      33.065 -12.514  22.532  1.00  0.00     0.074 C 
BRANCH  26  27
HETATM   27  C14 UNL     1      33.893 -13.355  21.682  1.00  0.00     0.086 C 
HETATM   28  N5  UNL     1      34.339 -14.534  21.999  1.00  0.00    -0.391 N 
ATOM     29  H52 UNL     1      34.102 -14.868  22.933  1.00  0.00     0.157 HD
ATOM     30  H51 UNL     1      34.919 -15.124  21.402  1.00  0.00     0.157 HD
HETATM   31  N6  UNL     1      34.226 -12.885  20.366  1.00  0.00    -0.088 NA
ENDBRANCH  26  27
ENDBRANCH  25  26
ENDBRANCH  13  25
ENDBRANCH   5   9
ENDBRANCH   3   5
TORSDOF 8
ENDMDL
MODEL 3
REMARK VINA RESULT: -5.918305964      3.604      5.567
REMARK  8 active torsions:
REMARK  status: ('A' for Active; 'I' for Inactive)
REMARK    1  A    between atoms: N1_3  and  C3_5 
REMARK    2  A    between atoms: C3_5  and  C4_9 
REMARK    3  A    between atoms: C6_11  and  N3_12 
REMARK    4  A    between atoms: C6_11  and  C7_16 
REMARK    5  A    between atoms: C7_16  and  C8_18 
REMARK    6  A    between atoms: C10_22  and  C12_25 
REMARK    7  A    between atoms: C12_25  and  C13_26 
REMARK    8  A    between atoms: C13_26  and  C14_27 
ROOT
HETATM    1  C1  UNL     1      31.332  -6.794  29.557  1.00  0.00     0.037 C 
HETATM    2  C2  UNL     1      31.332  -7.652  28.709  1.00  0.00     0.000 C 
HETATM    3  N1  UNL     1      31.337  -8.681  27.729  1.00  0.00    -0.305 N 
ATOM      4  H1  UNL     1      30.708  -8.601  26.930  1.00  0.00     0.177 HD
ENDROOT
BRANCH   3   5
HETATM    5  C3  UNL     1      32.183  -9.814  27.819  1.00  0.00     0.088 C 
HETATM    6  N2  UNL     1      32.890  -9.910  28.891  1.00  0.00    -0.388 N 
ATOM      7  H22 UNL     1      32.839  -9.206  29.627  1.00  0.00     0.157 HD
ATOM      8  H21 UNL     1      33.499 -10.725  28.956  1.00  0.00     0.157 HD
BRANCH   5   9
HETATM    9  C4  UNL     1      32.255 -10.803  26.783  1.00  0.00     0.078 C 
HETATM   10  C5  UNL     1      30.913 -11.010  26.124  1.00  0.00     0.056 C 
HETATM   11  C6  UNL     1      31.246 -11.726  24.821  1.00  0.00     0.166 C 
HETATM   12  C9  UNL     1      32.523 -11.077  24.428  1.00  0.00     0.067 C 
HETATM   13  C10 UNL     1      33.243 -10.577  25.653  1.00  0.00     0.062 C 
HETATM   14  C11 UNL     1      34.371 -11.478  25.886  1.00  0.00     0.070 C 
HETATM   15  N4  UNL     1      35.248 -12.240  26.102  1.00  0.00    -0.196 NA
BRANCH  11  16
HETATM   16  N3  UNL     1      30.165 -11.411  23.898  1.00  0.00    -0.067 N 
ATOM     17  H33 UNL     1      29.463 -10.785  24.293  1.00  0.00     0.275 HD
ATOM     18  H32 UNL     1      30.452 -10.806  23.128  1.00  0.00     0.275 HD
ATOM     19  H31 UNL     1      29.784 -12.307  23.590  1.00  0.00     0.275 HD
ENDBRANCH  11  16
BRANCH  11  20
HETATM   20  C7  UNL     1      31.303 -13.178  25.142  1.00  0.00     0.306 C 
HETATM   21  F1  UNL     1      30.132 -13.466  25.857  1.00  0.00    -0.235 F 
BRANCH  20  22
HETATM   22  C8  UNL     1      31.391 -14.089  24.002  1.00  0.00     0.211 C 
HETATM   23  O1  UNL     1      30.340 -14.273  23.304  1.00  0.00    -0.646 OA
HETATM   24  O2  UNL     1      32.526 -14.784  23.604  1.00  0.00    -0.646 OA
ENDBRANCH  20  22
ENDBRANCH  11  20
BRANCH  13  25
HETATM   25  C12 UNL     1      33.635  -9.191  25.469  1.00  0.00     0.032 C 
BRANCH  25  26
HETATM   26  C13 UNL     1      35.080  -8.927  25.274  1.00  0.00     0.074 C 
BRANCH  26  27
HETATM   27  C14 UNL     1      35.943  -8.657  26.413  1.00  0.00     0.086 C 
HETATM   28  N5  UNL     1      37.156  -8.195  26.343  1.00  0.00    -0.391 N 
ATOM     29  H52 UNL     1      37.524  -8.041  25.404  1.00  0.00     0.157 HD
ATOM     30  H51 UNL     1      37.761  -8.006  27.142  1.00  0.00     0.157 HD
HETATM   31  N6  UNL     1      35.424  -8.873  27.735  1.00  0.00    -0.088 NA
ENDBRANCH  26  27
ENDBRANCH  25  26
ENDBRANCH  13  25
ENDBRANCH   5   9
ENDBRANCH   3   5
TORSDOF 8
ENDMDL
MODEL 4
REMARK VINA RESULT: -5.773782704      7.359     10.142
REMARK  8 active torsions:
REMARK  status: ('A' for Active; 'I' for Inactive)
REMARK    1  A    between atoms: N1_3  and  C3_5 
REMARK    2  A    between atoms: C3_5  and  C4_9 
REMARK    3  A    between atoms: C6_11  and  N3_12 
REMARK    4  A    between atoms: C6_11  and  C7_16 
REMARK    5  A    between atoms: C7_16  and  C8_18 
REMARK    6  A    between atoms: C10_22  and  C12_25 
REMARK    7  A    between atoms: C12_25  and  C13_26 
REMARK    8  A    between atoms: C13_26  and  C14_27 
ROOT
HETATM    1  C1  UNL     1      35.990 -11.315  23.793  1.00  0.00     0.037 C 
HETATM    2  C2  UNL     1      36.269 -12.307  23.167  1.00  0.00     0.000 C 
HETATM    3  N1  UNL     1      36.598 -13.463  22.409  1.00  0.00    -0.305 N 
ATOM      4  H1  UNL     1      37.202 -14.170  22.828  1.00  0.00     0.177 HD
ENDROOT
BRANCH   3   5
HETATM    5  C3  UNL     1      36.118 -13.670  21.092  1.00  0.00     0.088 C 
HETATM    6  N2  UNL     1      36.054 -12.627  20.340  1.00  0.00    -0.388 N 
ATOM      7  H22 UNL     1      36.335 -11.707  20.681  1.00  0.00     0.157 HD
ATOM      8  H21 UNL     1      35.709 -12.775  19.392  1.00  0.00     0.157 HD
BRANCH   5   9
HETATM    9  C4  UNL     1      35.723 -14.963  20.613  1.00  0.00     0.078 C 
HETATM   10  C5  UNL     1      36.469 -16.066  21.323  1.00  0.00     0.056 C 
HETATM   11  C6  UNL     1      35.652 -17.318  21.029  1.00  0.00     0.166 C 
HETATM   12  C9  UNL     1      34.262 -16.795  21.062  1.00  0.00     0.067 C 
HETATM   13  C10 UNL     1      34.254 -15.333  20.697  1.00  0.00     0.062 C 
HETATM   14  C11 UNL     1      33.710 -15.232  19.343  1.00  0.00     0.070 C 
HETATM   15  N4  UNL     1      33.321 -15.160  18.230  1.00  0.00    -0.196 NA
BRANCH  11  16
HETATM   16  N3  UNL     1      35.917 -18.242  22.122  1.00  0.00    -0.067 N 
ATOM     17  H33 UNL     1      36.171 -19.179  21.809  1.00  0.00     0.275 HD
ATOM     18  H32 UNL     1      36.781 -18.039  22.624  1.00  0.00     0.275 HD
ATOM     19  H31 UNL     1      35.088 -18.223  22.717  1.00  0.00     0.275 HD
ENDBRANCH  11  16
BRANCH  11  20
HETATM   20  C7  UNL     1      36.141 -17.840  19.724  1.00  0.00     0.306 C 
HETATM   21  F1  UNL     1      37.502 -17.513  19.657  1.00  0.00    -0.235 F 
BRANCH  20  22
HETATM   22  C8  UNL     1      35.995 -19.278  19.508  1.00  0.00     0.211 C 
HETATM   23  O1  UNL     1      36.940 -19.890  18.910  1.00  0.00    -0.646 OA
HETATM   24  O2  UNL     1      34.908 -20.051  19.896  1.00  0.00    -0.646 OA
ENDBRANCH  20  22
ENDBRANCH  11  20
BRANCH  13  25
HETATM   25  C12 UNL     1      33.502 -14.578  21.684  1.00  0.00     0.032 C 
BRANCH  25  26
HETATM   26  C13 UNL     1      32.549 -15.341  22.523  1.00  0.00     0.074 C 
BRANCH  26  27
HETATM   27  C14 UNL     1      31.801 -14.680  23.581  1.00  0.00     0.086 C 
HETATM   28  N5  UNL     1      32.264 -14.394  24.761  1.00  0.00    -0.391 N 
ATOM     29  H52 UNL     1      33.221 -14.690  24.952  1.00  0.00     0.157 HD
ATOM     30  H51 UNL     1      31.739 -13.931  25.503  1.00  0.00     0.157 HD
HETATM   31  N6  UNL     1      30.453 -14.263  23.311  1.00  0.00    -0.088 NA
ENDBRANCH  26  27
ENDBRANCH  25  26
ENDBRANCH  13  25
ENDBRANCH   5   9
ENDBRANCH   3   5
TORSDOF 8
ENDMDL
MODEL 5
REMARK VINA RESULT: -5.455436672      5.758      8.431
REMARK  8 active torsions:
REMARK  status: ('A' for Active; 'I' for Inactive)
REMARK    1  A    between atoms: N1_3  and  C3_5 
REMARK    2  A    between atoms: C3_5  and  C4_9 
REMARK    3  A    between atoms: C6_11  and  N3_12 
REMARK    4  A    between atoms: C6_11  and  C7_16 
REMARK    5  A    between atoms: C7_16  and  C8_18 
REMARK    6  A    between atoms: C10_22  and  C12_25 
REMARK    7  A    between atoms: C12_25  and  C13_26 
REMARK    8  A    between atoms: C13_26  and  C14_27 
ROOT
HETATM    1  C1  UNL     1      35.378 -10.435  24.972  1.00  0.00     0.037 C 
HETATM    2  C2  UNL     1      36.131 -11.354  24.766  1.00  0.00     0.000 C 
HETATM    3  N1  UNL     1      37.023 -12.428  24.501  1.00  0.00    -0.305 N 
ATOM      4  H1  UNL     1      37.561 -12.822  25.273  1.00  0.00     0.177 HD
ENDROOT
BRANCH   3   5
HETATM    5  C3  UNL     1      37.195 -12.971  23.203  1.00  0.00     0.088 C 
HETATM    6  N2  UNL     1      38.043 -13.933  23.097  1.00  0.00    -0.388 N 
ATOM      7  H22 UNL     1      38.559 -14.279  23.907  1.00  0.00     0.157 HD
ATOM      8  H21 UNL     1      38.167 -14.324  22.163  1.00  0.00     0.157 HD
BRANCH   5   9
HETATM    9  C4  UNL     1      36.469 -12.484  22.065  1.00  0.00     0.078 C 
HETATM   10  C5  UNL     1      37.378 -12.279  20.878  1.00  0.00     0.056 C 
HETATM   11  C6  UNL     1      36.426 -12.193  19.691  1.00  0.00     0.166 C 
HETATM   12  C9  UNL     1      35.383 -13.184  20.060  1.00  0.00     0.067 C 
HETATM   13  C10 UNL     1      35.304 -13.314  21.558  1.00  0.00     0.062 C 
HETATM   14  C11 UNL     1      34.080 -12.636  21.985  1.00  0.00     0.070 C 
HETATM   15  N4  UNL     1      33.119 -12.041  22.330  1.00  0.00    -0.196 NA
BRANCH  11  16
HETATM   16  N3  UNL     1      37.192 -12.612  18.526  1.00  0.00    -0.067 N 
ATOM     17  H33 UNL     1      36.613 -12.968  17.765  1.00  0.00     0.275 HD
ATOM     18  H32 UNL     1      37.608 -11.835  18.013  1.00  0.00     0.275 HD
ATOM     19  H31 UNL     1      37.878 -13.288  18.864  1.00  0.00     0.275 HD
ENDBRANCH  11  16
BRANCH  11  20
HETATM   20  C7  UNL     1      35.999 -10.771  19.598  1.00  0.00     0.306 C 
HETATM   21  F1  UNL     1      37.132 -10.002  19.896  1.00  0.00    -0.235 F 
BRANCH  20  22
HETATM   22  C8  UNL     1      35.468 -10.339  18.307  1.00  0.00     0.211 C 
HETATM   23  O1  UNL     1      36.255  -9.724  17.515  1.00  0.00    -0.646 OA
HETATM   24  O2  UNL     1      34.169 -10.536  17.856  1.00  0.00    -0.646 OA
ENDBRANCH  20  22
ENDBRANCH  11  20
BRANCH  13  25
HETATM   25  C12 UNL     1      35.355 -14.715  21.939  1.00  0.00     0.032 C 
BRANCH  25  26
HETATM   26  C13 UNL     1      34.787 -15.688  20.978  1.00  0.00     0.074 C 
BRANCH  26  27
HETATM   27  C14 UNL     1      33.481 -16.284  21.214  1.00  0.00     0.086 C 
HETATM   28  N5  UNL     1      32.976 -17.274  20.541  1.00  0.00    -0.391 N 
ATOM     29  H52 UNL     1      33.543 -17.630  19.771  1.00  0.00     0.157 HD
ATOM     30  H51 UNL     1      32.061 -17.692  20.707  1.00  0.00     0.157 HD
HETATM   31  N6  UNL     1      32.683 -15.783  22.299  1.00  0.00    -0.088 NA
ENDBRANCH  26  27
ENDBRANCH  25  26
ENDBRANCH  13  25
ENDBRANCH   5   9
ENDBRANCH   3   5
TORSDOF 8
ENDMDL
