MODEL 1
REMARK VINA RESULT: -5.360905545      0.000      0.000
REMARK  6 active torsions:
REMARK  status: ('A' for Active; 'I' for Inactive)
REMARK       I    between atoms: N1_2  and  C2_4 
REMARK    1  A    between atoms: C2_4  and  C3_6 
REMARK    2  A    between atoms: C3_6  and  N2_7 
REMARK    3  A    between atoms: N2_7  and  C4_9 
REMARK    4  A    between atoms: C5_12  and  N4_13 
REMARK    5  A    between atoms: N6_19  and  C7_21 
REMARK    6  A    between atoms: C7_21  and  C8_22 
ROOT
HETATM    1  C4  UNL     1      -8.605  15.006  20.025  1.00  0.00     0.707 A 
HETATM    2  N3  UNL     1      -9.548  14.051  19.924  1.00  0.00    -0.022 N 
ATOM      3  H3  UNL     1     -10.045  13.917  19.044  1.00  0.00     0.203 HD
HETATM    4  C5  UNL     1      -9.835  13.276  20.980  1.00  0.00     0.705 A 
HETATM    5  N5  UNL     1      -9.164  13.465  22.147  1.00  0.00    -0.022 N 
ATOM      6  H5  UNL     1      -9.381  12.877  22.951  1.00  0.00     0.203 HD
HETATM    7  C6  UNL     1      -8.225  14.411  22.258  1.00  0.00     0.707 A 
HETATM    8  N6  UNL     1      -7.576  14.622  23.339  1.00  0.00    -0.219 N 
ATOM      9  H6  UNL     1      -6.868  15.356  23.369  1.00  0.00     0.178 HD
HETATM   10  N8  UNL     1      -7.942  15.195  21.172  1.00  0.00    -0.021 N 
ATOM     11  H8  UNL     1      -7.229  15.921  21.237  1.00  0.00     0.203 HD
ENDROOT
BRANCH   8  12
HETATM   12  C7  UNL     1      -7.834  13.835  24.507  1.00  0.00     0.195 C 
BRANCH  12  13
HETATM   13  C8  UNL     1      -6.649  13.682  25.390  1.00  0.00     0.027 A 
HETATM   14  C9  UNL     1      -5.744  14.708  25.530  1.00  0.00     0.027 A 
HETATM   15  C10 UNL     1      -4.615  14.597  26.350  1.00  0.00     0.003 A 
HETATM   16  C11 UNL     1      -4.464  13.397  27.010  1.00  0.00     0.017 A 
HETATM   17  C12 UNL     1      -5.367  12.376  26.868  1.00  0.00     0.088 A 
HETATM   18  N7  UNL     1      -6.434  12.531  26.068  1.00  0.00    -0.368 N 
ATOM     19  H7  UNL     1      -7.098  11.763  25.970  1.00  0.00     0.165 HD
ENDBRANCH  12  13
ENDBRANCH   8  12
BRANCH   4  20
HETATM   20  N4  UNL     1     -10.744  12.337  20.924  1.00  0.00    -0.234 N 
ATOM     21  H42 UNL     1     -10.445  11.377  20.754  1.00  0.00     0.174 HD
ATOM     22  H41 UNL     1     -11.736  12.537  21.045  1.00  0.00     0.174 HD
ENDBRANCH   4  20
BRANCH   1  23
HETATM   23  N2  UNL     1      -8.398  15.699  18.963  1.00  0.00    -0.216 N 
ATOM     24  H2  UNL     1      -9.074  15.589  18.207  1.00  0.00     0.178 HD
BRANCH  23  25
HETATM   25  C3  UNL     1      -7.326  16.606  18.730  1.00  0.00     0.240 C 
BRANCH  25  26
HETATM   26  C2  UNL     1      -6.043  15.887  18.789  1.00  0.00     0.235 C 
HETATM   27  N1  UNL     1      -5.710  14.976  17.765  1.00  0.00    -0.364 N 
HETATM   28  C1  UNL     1      -4.436  14.246  17.802  1.00  0.00     0.149 C 
ATOM     29  H1  UNL     1      -6.359  14.823  16.994  1.00  0.00     0.161 HD
HETATM   30  O1  UNL     1      -5.250  16.074  19.734  1.00  0.00    -0.272 OA
ENDBRANCH  25  26
ENDBRANCH  23  25
ENDBRANCH   1  23
TORSDOF 6
ENDMDL
MODEL 2
REMARK VINA RESULT: -5.356677883      4.047      5.396
REMARK  6 active torsions:
REMARK  status: ('A' for Active; 'I' for Inactive)
REMARK       I    between atoms: N1_2  and  C2_4 
REMARK    1  A    between atoms: C2_4  and  C3_6 
REMARK    2  A    between atoms: C3_6  and  N2_7 
REMARK    3  A    between atoms: N2_7  and  C4_9 
REMARK    4  A    between atoms: C5_12  and  N4_13 
REMARK    5  A    between atoms: N6_19  and  C7_21 
REMARK    6  A    between atoms: C7_21  and  C8_22 
ROOT
HETATM    1  C4  UNL     1      -9.427  14.187  20.513  1.00  0.00     0.707 A 
HETATM    2  N3  UNL     1      -9.982  15.367  20.841  1.00  0.00    -0.022 N 
ATOM      3  H3  UNL     1      -9.577  16.236  20.493  1.00  0.00     0.203 HD
HETATM    4  C5  UNL     1     -11.068  15.404  21.626  1.00  0.00     0.705 A 
HETATM    5  N5  UNL     1     -11.599  14.239  22.083  1.00  0.00    -0.022 N 
ATOM      6  H5  UNL     1     -12.426  14.264  22.681  1.00  0.00     0.203 HD
HETATM    7  C6  UNL     1     -11.056  13.060  21.762  1.00  0.00     0.707 A 
HETATM    8  N6  UNL     1     -11.523  11.944  22.174  1.00  0.00    -0.219 N 
ATOM      9  H6  UNL     1     -11.070  11.072  21.899  1.00  0.00     0.178 HD
HETATM   10  N8  UNL     1      -9.947  13.038  20.960  1.00  0.00    -0.021 N 
ATOM     11  H8  UNL     1      -9.518  12.148  20.704  1.00  0.00     0.203 HD
ENDROOT
BRANCH   8  12
HETATM   12  C7  UNL     1     -12.678  11.908  23.021  1.00  0.00     0.195 C 
BRANCH  12  13
HETATM   13  C8  UNL     1     -12.906  10.583  23.654  1.00  0.00     0.027 A 
HETATM   14  C9  UNL     1     -13.556   9.583  22.968  1.00  0.00     0.027 A 
HETATM   15  C10 UNL     1     -13.789   8.325  23.535  1.00  0.00     0.003 A 
HETATM   16  C11 UNL     1     -13.330   8.146  24.821  1.00  0.00     0.017 A 
HETATM   17  C12 UNL     1     -12.683   9.145  25.502  1.00  0.00     0.088 A 
HETATM   18  N7  UNL     1     -12.483  10.336  24.915  1.00  0.00    -0.368 N 
ATOM     19  H7  UNL     1     -12.002  11.071  25.433  1.00  0.00     0.165 HD
ENDBRANCH  12  13
ENDBRANCH   8  12
BRANCH   4  20
HETATM   20  N4  UNL     1     -11.639  16.530  21.970  1.00  0.00    -0.234 N 
ATOM     21  H42 UNL     1     -11.569  17.326  21.337  1.00  0.00     0.174 HD
ATOM     22  H41 UNL     1     -12.148  16.633  22.848  1.00  0.00     0.174 HD
ENDBRANCH   4  20
BRANCH   1  23
HETATM   23  N2  UNL     1      -8.389  14.250  19.757  1.00  0.00    -0.216 N 
ATOM     24  H2  UNL     1      -7.920  13.368  19.552  1.00  0.00     0.178 HD
BRANCH  23  25
HETATM   25  C3  UNL     1      -7.826  15.421  19.175  1.00  0.00     0.240 C 
BRANCH  25  26
HETATM   26  C2  UNL     1      -6.363  15.285  19.100  1.00  0.00     0.235 C 
HETATM   27  N1  UNL     1      -5.773  14.761  17.931  1.00  0.00    -0.364 N 
HETATM   28  C1  UNL     1      -4.314  14.616  17.833  1.00  0.00     0.149 C 
ATOM     29  H1  UNL     1      -6.364  14.480  17.149  1.00  0.00     0.161 HD
HETATM   30  O1  UNL     1      -5.641  15.628  20.058  1.00  0.00    -0.272 OA
ENDBRANCH  25  26
ENDBRANCH  23  25
ENDBRANCH   1  23
TORSDOF 6
ENDMDL
MODEL 3
REMARK VINA RESULT: -5.245469665      4.138      5.637
REMARK  6 active torsions:
REMARK  status: ('A' for Active; 'I' for Inactive)
REMARK       I    between atoms: N1_2  and  C2_4 
REMARK    1  A    between atoms: C2_4  and  C3_6 
REMARK    2  A    between atoms: C3_6  and  N2_7 
REMARK    3  A    between atoms: N2_7  and  C4_9 
REMARK    4  A    between atoms: C5_12  and  N4_13 
REMARK    5  A    between atoms: N6_19  and  C7_21 
REMARK    6  A    between atoms: C7_21  and  C8_22 
ROOT
HETATM    1  C4  UNL     1      -9.408  14.037  20.311  1.00  0.00     0.707 A 
HETATM    2  N3  UNL     1      -9.926  15.239  20.621  1.00  0.00    -0.022 N 
ATOM      3  H3  UNL     1      -9.517  16.087  20.228  1.00  0.00     0.203 HD
HETATM    4  C5  UNL     1     -10.978  15.324  21.446  1.00  0.00     0.705 A 
HETATM    5  N5  UNL     1     -11.514  14.186  21.963  1.00  0.00    -0.022 N 
ATOM      6  H5  UNL     1     -12.315  14.249  22.591  1.00  0.00     0.203 HD
HETATM    7  C6  UNL     1     -11.007  12.986  21.660  1.00  0.00     0.707 A 
HETATM    8  N6  UNL     1     -11.480  11.895  22.128  1.00  0.00    -0.219 N 
ATOM      9  H6  UNL     1     -11.056  11.005  21.864  1.00  0.00     0.178 HD
HETATM   10  N8  UNL     1      -9.932  12.914  20.817  1.00  0.00    -0.021 N 
ATOM     11  H8  UNL     1      -9.532  12.008  20.574  1.00  0.00     0.203 HD
ENDROOT
BRANCH   8  12
HETATM   12  C7  UNL     1     -12.601  11.911  23.020  1.00  0.00     0.195 C 
BRANCH  12  13
HETATM   13  C8  UNL     1     -12.875  10.592  23.648  1.00  0.00     0.027 A 
HETATM   14  C9  UNL     1     -13.543   9.612  22.950  1.00  0.00     0.027 A 
HETATM   15  C10 UNL     1     -13.821   8.360  23.511  1.00  0.00     0.003 A 
HETATM   16  C11 UNL     1     -13.387   8.168  24.805  1.00  0.00     0.017 A 
HETATM   17  C12 UNL     1     -12.723   9.147  25.497  1.00  0.00     0.088 A 
HETATM   18  N7  UNL     1     -12.480  10.332  24.915  1.00  0.00    -0.368 N 
ATOM     19  H7  UNL     1     -11.986  11.053  25.441  1.00  0.00     0.165 HD
ENDBRANCH  12  13
ENDBRANCH   8  12
BRANCH   4  20
HETATM   20  N4  UNL     1     -11.513  16.473  21.774  1.00  0.00    -0.234 N 
ATOM     21  H42 UNL     1     -11.343  17.280  21.174  1.00  0.00     0.174 HD
ATOM     22  H41 UNL     1     -12.089  16.583  22.608  1.00  0.00     0.174 HD
ENDBRANCH   4  20
BRANCH   1  23
HETATM   23  N2  UNL     1      -8.400  14.053  19.513  1.00  0.00    -0.216 N 
ATOM     24  H2  UNL     1      -8.530  13.609  18.604  1.00  0.00     0.178 HD
BRANCH  23  25
HETATM   25  C3  UNL     1      -7.121  14.625  19.763  1.00  0.00     0.240 C 
BRANCH  25  26
HETATM   26  C2  UNL     1      -7.189  16.087  19.605  1.00  0.00     0.235 C 
HETATM   27  N1  UNL     1      -7.180  16.910  20.750  1.00  0.00    -0.364 N 
HETATM   28  C1  UNL     1      -7.247  18.372  20.617  1.00  0.00     0.149 C 
ATOM     29  H1  UNL     1      -7.126  16.488  21.676  1.00  0.00     0.161 HD
HETATM   30  O1  UNL     1      -7.256  16.602  18.471  1.00  0.00    -0.272 OA
ENDBRANCH  25  26
ENDBRANCH  23  25
ENDBRANCH   1  23
TORSDOF 6
ENDMDL
MODEL 4
REMARK VINA RESULT: -5.216014332      4.513      7.084
REMARK  6 active torsions:
REMARK  status: ('A' for Active; 'I' for Inactive)
REMARK       I    between atoms: N1_2  and  C2_4 
REMARK    1  A    between atoms: C2_4  and  C3_6 
REMARK    2  A    between atoms: C3_6  and  N2_7 
REMARK    3  A    between atoms: N2_7  and  C4_9 
REMARK    4  A    between atoms: C5_12  and  N4_13 
REMARK    5  A    between atoms: N6_19  and  C7_21 
REMARK    6  A    between atoms: C7_21  and  C8_22 
ROOT
HETATM    1  C4  UNL     1     -11.105  12.483  21.888  1.00  0.00     0.707 A 
HETATM    2  N3  UNL     1     -10.400  11.707  21.044  1.00  0.00    -0.022 N 
ATOM      3  H3  UNL     1     -10.387  10.696  21.172  1.00  0.00     0.203 HD
HETATM    4  C5  UNL     1      -9.714  12.263  20.036  1.00  0.00     0.705 A 
HETATM    5  N5  UNL     1      -9.739  13.613  19.877  1.00  0.00    -0.022 N 
ATOM      6  H5  UNL     1      -9.218  14.038  19.110  1.00  0.00     0.203 HD
HETATM    7  C6  UNL     1     -10.437  14.393  20.709  1.00  0.00     0.707 A 
HETATM    8  N6  UNL     1     -10.483  15.665  20.595  1.00  0.00    -0.219 N 
ATOM      9  H6  UNL     1     -11.032  16.214  21.258  1.00  0.00     0.178 HD
HETATM   10  N8  UNL     1     -11.133  13.812  21.735  1.00  0.00    -0.021 N 
ATOM     11  H8  UNL     1     -11.671  14.390  22.380  1.00  0.00     0.203 HD
ENDROOT
BRANCH   8  12
HETATM   12  C7  UNL     1      -9.770  16.326  19.544  1.00  0.00     0.195 C 
BRANCH  12  13
HETATM   13  C8  UNL     1      -8.295  16.177  19.646  1.00  0.00     0.027 A 
HETATM   14  C9  UNL     1      -7.639  16.491  20.814  1.00  0.00     0.027 A 
HETATM   15  C10 UNL     1      -6.251  16.365  20.945  1.00  0.00     0.003 A 
HETATM   16  C11 UNL     1      -5.579  15.908  19.833  1.00  0.00     0.017 A 
HETATM   17  C12 UNL     1      -6.235  15.596  18.670  1.00  0.00     0.088 A 
HETATM   18  N7  UNL     1      -7.568  15.734  18.594  1.00  0.00    -0.368 N 
ATOM     19  H7  UNL     1      -8.044  15.500  17.723  1.00  0.00     0.165 HD
ENDBRANCH  12  13
ENDBRANCH   8  12
BRANCH   4  20
HETATM   20  N4  UNL     1      -9.016  11.546  19.193  1.00  0.00    -0.234 N 
ATOM     21  H42 UNL     1      -9.417  10.677  18.841  1.00  0.00     0.174 HD
ATOM     22  H41 UNL     1      -8.088  11.829  18.880  1.00  0.00     0.174 HD
ENDBRANCH   4  20
BRANCH   1  23
HETATM   23  N2  UNL     1     -11.731  11.862  22.824  1.00  0.00    -0.216 N 
ATOM     24  H2  UNL     1     -11.267  11.818  23.732  1.00  0.00     0.178 HD
BRANCH  23  25
HETATM   25  C3  UNL     1     -13.003  11.231  22.729  1.00  0.00     0.240 C 
BRANCH  25  26
HETATM   26  C2  UNL     1     -13.045  10.058  23.617  1.00  0.00     0.235 C 
HETATM   27  N1  UNL     1     -12.524  10.157  24.923  1.00  0.00    -0.364 N 
HETATM   28  C1  UNL     1     -12.554   9.000  25.828  1.00  0.00     0.149 C 
ATOM     29  H1  UNL     1     -12.123  11.039  25.242  1.00  0.00     0.161 HD
HETATM   30  O1  UNL     1     -13.534   8.979  23.225  1.00  0.00    -0.272 OA
ENDBRANCH  25  26
ENDBRANCH  23  25
ENDBRANCH   1  23
TORSDOF 6
ENDMDL
MODEL 5
REMARK VINA RESULT: -5.088454681      2.399      3.557
REMARK  6 active torsions:
REMARK  status: ('A' for Active; 'I' for Inactive)
REMARK       I    between atoms: N1_2  and  C2_4 
REMARK    1  A    between atoms: C2_4  and  C3_6 
REMARK    2  A    between atoms: C3_6  and  N2_7 
REMARK    3  A    between atoms: N2_7  and  C4_9 
REMARK    4  A    between atoms: C5_12  and  N4_13 
REMARK    5  A    between atoms: N6_19  and  C7_21 
REMARK    6  A    between atoms: C7_21  and  C8_22 
ROOT
HETATM    1  C4  UNL     1      -9.350  15.059  21.377  1.00  0.00     0.707 A 
HETATM    2  N3  UNL     1      -8.354  15.694  20.733  1.00  0.00    -0.022 N 
ATOM      3  H3  UNL     1      -8.526  16.120  19.823  1.00  0.00     0.203 HD
HETATM    4  C5  UNL     1      -7.135  15.766  21.286  1.00  0.00     0.705 A 
HETATM    5  N5  UNL     1      -6.920  15.193  22.500  1.00  0.00    -0.022 N 
ATOM      6  H5  UNL     1      -5.993  15.247  22.923  1.00  0.00     0.203 HD
HETATM    7  C6  UNL     1      -7.903  14.560  23.149  1.00  0.00     0.707 A 
HETATM    8  N6  UNL     1      -7.739  14.006  24.289  1.00  0.00    -0.219 N 
ATOM      9  H6  UNL     1      -8.524  13.537  24.742  1.00  0.00     0.178 HD
HETATM   10  N8  UNL     1      -9.142  14.494  22.572  1.00  0.00    -0.021 N 
ATOM     11  H8  UNL     1      -9.905  14.016  23.052  1.00  0.00     0.203 HD
ENDROOT
BRANCH   8  12
HETATM   12  C7  UNL     1      -6.462  14.040  24.937  1.00  0.00     0.195 C 
BRANCH  12  13
HETATM   13  C8  UNL     1      -6.346  13.079  26.064  1.00  0.00     0.027 A 
HETATM   14  C9  UNL     1      -5.174  12.976  26.777  1.00  0.00     0.027 A 
HETATM   15  C10 UNL     1      -5.028  12.080  27.842  1.00  0.00     0.003 A 
HETATM   16  C11 UNL     1      -6.129  11.306  28.135  1.00  0.00     0.017 A 
HETATM   17  C12 UNL     1      -7.295  11.410  27.422  1.00  0.00     0.088 A 
HETATM   18  N7  UNL     1      -7.386  12.285  26.408  1.00  0.00    -0.368 N 
ATOM     19  H7  UNL     1      -8.259  12.352  25.885  1.00  0.00     0.165 HD
ENDBRANCH  12  13
ENDBRANCH   8  12
BRANCH   4  20
HETATM   20  N4  UNL     1      -6.139  16.374  20.695  1.00  0.00    -0.234 N 
ATOM     21  H42 UNL     1      -5.970  16.187  19.706  1.00  0.00     0.174 HD
ATOM     22  H41 UNL     1      -5.530  17.023  21.191  1.00  0.00     0.174 HD
ENDBRANCH   4  20
BRANCH   1  23
HETATM   23  N2  UNL     1     -10.483  15.040  20.770  1.00  0.00    -0.216 N 
ATOM     24  H2  UNL     1     -11.137  15.789  21.000  1.00  0.00     0.178 HD
BRANCH  23  25
HETATM   25  C3  UNL     1     -10.923  14.085  19.810  1.00  0.00     0.240 C 
BRANCH  25  26
HETATM   26  C2  UNL     1     -10.339  12.769  20.113  1.00  0.00     0.235 C 
HETATM   27  N1  UNL     1      -9.427  12.188  19.207  1.00  0.00    -0.364 N 
HETATM   28  C1  UNL     1      -8.831  10.875  19.488  1.00  0.00     0.149 C 
ATOM     29  H1  UNL     1      -9.180  12.684  18.351  1.00  0.00     0.161 HD
HETATM   30  O1  UNL     1     -10.643  12.163  21.160  1.00  0.00    -0.272 OA
ENDBRANCH  25  26
ENDBRANCH  23  25
ENDBRANCH   1  23
TORSDOF 6
ENDMDL
