MODEL 1
REMARK VINA RESULT: -6.289333113      0.000      0.000
REMARK  6 active torsions:
REMARK  status: ('A' for Active; 'I' for Inactive)
REMARK    1  A    between atoms: N1_4  and  C4_5 
REMARK    2  A    between atoms: C4_5  and  C5_6 
REMARK    3  A    between atoms: C5_6  and  C6_7 
REMARK    4  A    between atoms: C6_7  and  N2_8 
REMARK    5  A    between atoms: N2_8  and  C7_10 
REMARK    6  A    between atoms: C7_10  and  C8_11 
ROOT
HETATM    1  N2  UNL     1     -20.177   2.999  -8.843  1.00  0.00    -0.421 N 
ATOM      2  H2  UNL     1     -19.505   2.328  -8.471  1.00  0.00     0.153 HD
ENDROOT
BRANCH   1   3
HETATM    3  C6  UNL     1     -20.872   3.902  -7.992  1.00  0.00     0.115 C 
BRANCH   3   4
HETATM    4  C5  UNL     1     -21.796   3.121  -7.040  1.00  0.00     0.039 C 
BRANCH   4   5
HETATM    5  C4  UNL     1     -23.229   3.199  -7.545  1.00  0.00     0.123 C 
BRANCH   5   6
HETATM    6  N1  UNL     1     -24.084   2.550  -6.613  1.00  0.00    -0.393 N 
HETATM    7  C3  UNL     1     -23.447   1.633  -5.744  1.00  0.00     0.122 C 
HETATM    8  C2  UNL     1     -24.304   0.999  -4.712  1.00  0.00     0.020 C 
HETATM    9  C1  UNL     1     -25.462   0.343  -5.421  1.00  0.00     0.007 C 
HETATM   10  C13 UNL     1     -26.228   1.400  -6.174  1.00  0.00     0.044 C 
HETATM   11  C12 UNL     1     -25.392   2.265  -7.043  1.00  0.00     0.058 C 
ENDBRANCH   5   6
ENDBRANCH   4   5
ENDBRANCH   3   4
ENDBRANCH   1   3
BRANCH   1  12
HETATM   12  C7  UNL     1     -20.457   3.072 -10.227  1.00  0.00     0.120 C 
BRANCH  12  13
HETATM   13  C8  UNL     1     -20.714   1.763 -10.899  1.00  0.00     0.030 C 
HETATM   14  C9  UNL     1     -21.825   1.017 -10.178  1.00  0.00     0.035 C 
HETATM   15  C10 UNL     1     -21.445  -0.420 -10.519  1.00  0.00     0.232 C 
HETATM   16  N3  UNL     1     -20.029  -0.423 -10.281  1.00  0.00    -0.075 N 
HETATM   17  C11 UNL     1     -19.528   0.833 -10.745  1.00  0.00     0.238 C 
ATOM     18  H32 UNL     1     -19.786  -0.618  -9.310  1.00  0.00     0.277 HD
ATOM     19  H31 UNL     1     -19.553  -1.224 -10.697  1.00  0.00     0.277 HD
ENDBRANCH  12  13
ENDBRANCH   1  12
TORSDOF 6
ENDMDL
MODEL 2
REMARK VINA RESULT: -6.187022071      0.605      1.318
REMARK  6 active torsions:
REMARK  status: ('A' for Active; 'I' for Inactive)
REMARK    1  A    between atoms: N1_4  and  C4_5 
REMARK    2  A    between atoms: C4_5  and  C5_6 
REMARK    3  A    between atoms: C5_6  and  C6_7 
REMARK    4  A    between atoms: C6_7  and  N2_8 
REMARK    5  A    between atoms: N2_8  and  C7_10 
REMARK    6  A    between atoms: C7_10  and  C8_11 
ROOT
HETATM    1  N2  UNL     1     -20.102   2.976  -8.882  1.00  0.00    -0.421 N 
ATOM      2  H2  UNL     1     -19.420   2.292  -8.553  1.00  0.00     0.153 HD
ENDROOT
BRANCH   1   3
HETATM    3  C6  UNL     1     -20.725   3.891  -7.990  1.00  0.00     0.115 C 
BRANCH   3   4
HETATM    4  C5  UNL     1     -21.760   3.155  -7.120  1.00  0.00     0.039 C 
BRANCH   4   5
HETATM    5  C4  UNL     1     -23.147   3.337  -7.718  1.00  0.00     0.123 C 
BRANCH   5   6
HETATM    6  N1  UNL     1     -23.982   2.271  -7.283  1.00  0.00    -0.393 N 
HETATM    7  C3  UNL     1     -25.136   2.047  -8.071  1.00  0.00     0.122 C 
HETATM    8  C2  UNL     1     -25.984   0.893  -7.683  1.00  0.00     0.020 C 
HETATM    9  C1  UNL     1     -26.357   1.068  -6.232  1.00  0.00     0.007 C 
HETATM   10  C13 UNL     1     -25.094   1.101  -5.411  1.00  0.00     0.044 C 
HETATM   11  C12 UNL     1     -24.068   2.058  -5.896  1.00  0.00     0.058 C 
ENDBRANCH   5   6
ENDBRANCH   4   5
ENDBRANCH   3   4
ENDBRANCH   1   3
BRANCH   1  12
HETATM   12  C7  UNL     1     -20.466   3.055 -10.246  1.00  0.00     0.120 C 
BRANCH  12  13
HETATM   13  C8  UNL     1     -20.766   1.750 -10.907  1.00  0.00     0.030 C 
HETATM   14  C9  UNL     1     -21.876   1.030 -10.158  1.00  0.00     0.035 C 
HETATM   15  C10 UNL     1     -21.535  -0.415 -10.502  1.00  0.00     0.232 C 
HETATM   16  N3  UNL     1     -20.114  -0.448 -10.296  1.00  0.00    -0.075 N 
HETATM   17  C11 UNL     1     -19.597   0.796 -10.777  1.00  0.00     0.238 C 
ATOM     18  H32 UNL     1     -19.853  -0.645  -9.330  1.00  0.00     0.277 HD
ATOM     19  H31 UNL     1     -19.666  -1.261 -10.719  1.00  0.00     0.277 HD
ENDBRANCH  12  13
ENDBRANCH   1  12
TORSDOF 6
ENDMDL
MODEL 3
REMARK VINA RESULT: -6.173068955      1.527      2.265
REMARK  6 active torsions:
REMARK  status: ('A' for Active; 'I' for Inactive)
REMARK    1  A    between atoms: N1_4  and  C4_5 
REMARK    2  A    between atoms: C4_5  and  C5_6 
REMARK    3  A    between atoms: C5_6  and  C6_7 
REMARK    4  A    between atoms: C6_7  and  N2_8 
REMARK    5  A    between atoms: N2_8  and  C7_10 
REMARK    6  A    between atoms: C7_10  and  C8_11 
ROOT
HETATM    1  N2  UNL     1     -21.297   2.710  -8.234  1.00  0.00    -0.421 N 
ATOM      2  H2  UNL     1     -20.285   2.756  -8.116  1.00  0.00     0.153 HD
ENDROOT
BRANCH   1   3
HETATM    3  C6  UNL     1     -22.184   3.104  -7.194  1.00  0.00     0.115 C 
BRANCH   3   4
HETATM    4  C5  UNL     1     -23.635   3.092  -7.707  1.00  0.00     0.039 C 
BRANCH   4   5
HETATM    5  C4  UNL     1     -24.569   2.687  -6.577  1.00  0.00     0.123 C 
BRANCH   5   6
HETATM    6  N1  UNL     1     -25.311   1.542  -6.978  1.00  0.00    -0.393 N 
HETATM    7  C3  UNL     1     -25.411   1.346  -8.376  1.00  0.00     0.122 C 
HETATM    8  C2  UNL     1     -26.116   0.118  -8.819  1.00  0.00     0.020 C 
HETATM    9  C1  UNL     1     -27.483   0.121  -8.184  1.00  0.00     0.007 C 
HETATM   10  C13 UNL     1     -27.319   0.129  -6.686  1.00  0.00     0.044 C 
HETATM   11  C12 UNL     1     -26.405   1.180  -6.172  1.00  0.00     0.058 C 
ENDBRANCH   5   6
ENDBRANCH   4   5
ENDBRANCH   3   4
ENDBRANCH   1   3
BRANCH   1  12
HETATM   12  C7  UNL     1     -21.879   2.254  -9.439  1.00  0.00     0.120 C 
BRANCH  12  13
HETATM   13  C8  UNL     1     -20.915   1.924 -10.532  1.00  0.00     0.030 C 
HETATM   14  C9  UNL     1     -20.755   0.416 -10.646  1.00  0.00     0.035 C 
HETATM   15  C10 UNL     1     -19.345   0.342 -11.222  1.00  0.00     0.232 C 
HETATM   16  N3  UNL     1     -18.634   1.283 -10.404  1.00  0.00    -0.075 N 
HETATM   17  C11 UNL     1     -19.517   2.386 -10.178  1.00  0.00     0.238 C 
ATOM     18  H32 UNL     1     -18.274   0.874  -9.542  1.00  0.00     0.277 HD
ATOM     19  H31 UNL     1     -17.736   1.561 -10.799  1.00  0.00     0.277 HD
ENDBRANCH  12  13
ENDBRANCH   1  12
TORSDOF 6
ENDMDL
MODEL 4
REMARK VINA RESULT: -6.125610969      1.178      2.060
REMARK  6 active torsions:
REMARK  status: ('A' for Active; 'I' for Inactive)
REMARK    1  A    between atoms: N1_4  and  C4_5 
REMARK    2  A    between atoms: C4_5  and  C5_6 
REMARK    3  A    between atoms: C5_6  and  C6_7 
REMARK    4  A    between atoms: C6_7  and  N2_8 
REMARK    5  A    between atoms: N2_8  and  C7_10 
REMARK    6  A    between atoms: C7_10  and  C8_11 
ROOT
HETATM    1  N2  UNL     1     -21.777   2.407  -8.529  1.00  0.00    -0.421 N 
ATOM      2  H2  UNL     1     -21.030   2.053  -7.932  1.00  0.00     0.153 HD
ENDROOT
BRANCH   1   3
HETATM    3  C6  UNL     1     -22.510   3.575  -8.185  1.00  0.00     0.115 C 
BRANCH   3   4
HETATM    4  C5  UNL     1     -23.826   3.185  -7.487  1.00  0.00     0.039 C 
BRANCH   4   5
HETATM    5  C4  UNL     1     -23.518   2.333  -6.265  1.00  0.00     0.123 C 
BRANCH   5   6
HETATM    6  N1  UNL     1     -24.505   1.315  -6.151  1.00  0.00    -0.393 N 
HETATM    7  C3  UNL     1     -25.725   1.578  -6.819  1.00  0.00     0.122 C 
HETATM    8  C2  UNL     1     -26.743   0.499  -6.779  1.00  0.00     0.020 C 
HETATM    9  C1  UNL     1     -26.992   0.160  -5.331  1.00  0.00     0.007 C 
HETATM   10  C13 UNL     1     -25.698  -0.306  -4.715  1.00  0.00     0.044 C 
HETATM   11  C12 UNL     1     -24.546   0.603  -4.939  1.00  0.00     0.058 C 
ENDBRANCH   5   6
ENDBRANCH   4   5
ENDBRANCH   3   4
ENDBRANCH   1   3
BRANCH   1  12
HETATM   12  C7  UNL     1     -22.128   1.756  -9.734  1.00  0.00     0.120 C 
BRANCH  12  13
HETATM   13  C8  UNL     1     -21.024   1.608 -10.728  1.00  0.00     0.030 C 
HETATM   14  C9  UNL     1     -20.629   0.145 -10.854  1.00  0.00     0.035 C 
HETATM   15  C10 UNL     1     -19.175   0.298 -11.285  1.00  0.00     0.232 C 
HETATM   16  N3  UNL     1     -18.696   1.305 -10.380  1.00  0.00    -0.075 N 
HETATM   17  C11 UNL     1     -19.751   2.258 -10.225  1.00  0.00     0.238 C 
ATOM     18  H32 UNL     1     -18.365   0.924  -9.494  1.00  0.00     0.277 HD
ATOM     19  H31 UNL     1     -17.815   1.725 -10.677  1.00  0.00     0.277 HD
ENDBRANCH  12  13
ENDBRANCH   1  12
TORSDOF 6
ENDMDL
MODEL 5
REMARK VINA RESULT: -6.112985428      0.958      1.096
REMARK  6 active torsions:
REMARK  status: ('A' for Active; 'I' for Inactive)
REMARK    1  A    between atoms: N1_4  and  C4_5 
REMARK    2  A    between atoms: C4_5  and  C5_6 
REMARK    3  A    between atoms: C5_6  and  C6_7 
REMARK    4  A    between atoms: C6_7  and  N2_8 
REMARK    5  A    between atoms: N2_8  and  C7_10 
REMARK    6  A    between atoms: C7_10  and  C8_11 
ROOT
HETATM    1  N2  UNL     1     -21.765   3.165  -9.578  1.00  0.00    -0.421 N 
ATOM      2  H2  UNL     1     -22.670   2.693  -9.559  1.00  0.00     0.153 HD
ENDROOT
BRANCH   1   3
HETATM    3  C6  UNL     1     -21.106   3.552  -8.380  1.00  0.00     0.115 C 
BRANCH   3   4
HETATM    4  C5  UNL     1     -21.980   3.205  -7.162  1.00  0.00     0.039 C 
BRANCH   4   5
HETATM    5  C4  UNL     1     -23.444   3.199  -7.573  1.00  0.00     0.123 C 
BRANCH   5   6
HETATM    6  N1  UNL     1     -24.199   2.500  -6.591  1.00  0.00    -0.393 N 
HETATM    7  C3  UNL     1     -23.446   1.665  -5.731  1.00  0.00     0.122 C 
HETATM    8  C2  UNL     1     -24.199   0.984  -4.649  1.00  0.00     0.020 C 
HETATM    9  C1  UNL     1     -25.322   0.211  -5.292  1.00  0.00     0.007 C 
HETATM   10  C13 UNL     1     -26.211   1.176  -6.033  1.00  0.00     0.044 C 
HETATM   11  C12 UNL     1     -25.493   2.089  -6.957  1.00  0.00     0.058 C 
ENDBRANCH   5   6
ENDBRANCH   4   5
ENDBRANCH   3   4
ENDBRANCH   1   3
BRANCH   1  12
HETATM   12  C7  UNL     1     -21.114   3.461 -10.798  1.00  0.00     0.120 C 
BRANCH  12  13
HETATM   13  C8  UNL     1     -20.369   2.327 -11.420  1.00  0.00     0.030 C 
HETATM   14  C9  UNL     1     -20.771   1.016 -10.761  1.00  0.00     0.035 C 
HETATM   15  C10 UNL     1     -19.502   0.204 -10.991  1.00  0.00     0.232 C 
HETATM   16  N3  UNL     1     -18.474   1.138 -10.627  1.00  0.00    -0.075 N 
HETATM   17  C11 UNL     1     -18.888   2.418 -11.112  1.00  0.00     0.238 C 
ATOM     18  H32 UNL     1     -18.263   1.135  -9.630  1.00  0.00     0.277 HD
ATOM     19  H31 UNL     1     -17.548   0.864 -10.956  1.00  0.00     0.277 HD
ENDBRANCH  12  13
ENDBRANCH   1  12
TORSDOF 6
ENDMDL
