MODEL 1
REMARK VINA RESULT: -7.426338415      0.000      0.000
REMARK  6 active torsions:
REMARK  status: ('A' for Active; 'I' for Inactive)
REMARK    1  A    between atoms: N1_2  and  C2_4 
REMARK    2  A    between atoms: C6_11  and  C7_12 
REMARK    3  A    between atoms: C7_12  and  N3_13 
REMARK    4  A    between atoms: N3_13  and  N4_15 
REMARK    5  A    between atoms: N4_15  and  C8_17 
REMARK    6  A    between atoms: C11_22  and  C12_23 
ROOT
HETATM    1  N4  UNL     1      -2.145   9.622  18.756  1.00  0.00    -0.286 N 
ATOM      2  H4  UNL     1      -2.814  10.391  18.722  1.00  0.00     0.188 HD
ENDROOT
BRANCH   1   3
HETATM    3  N3  UNL     1      -2.363   8.504  17.974  1.00  0.00    -0.309 N 
ATOM      4  H3  UNL     1      -2.072   8.545  16.997  1.00  0.00     0.186 HD
BRANCH   3   5
HETATM    5  C7  UNL     1      -2.909   7.416  18.392  1.00  0.00     0.124 C 
BRANCH   5   6
HETATM    6  C6  UNL     1      -2.058   6.288  18.732  1.00  0.00     0.051 C 
HETATM    7  C5  UNL     1      -1.764   6.109  20.061  1.00  0.00     0.257 C 
HETATM    8  N2  UNL     1      -1.088   5.101  20.661  1.00  0.00    -0.333 N 
HETATM    9  O1  UNL     1      -2.194   7.022  20.801  1.00  0.00    -0.267 OA
HETATM   10  C4  UNL     1      -0.665   3.935  20.143  1.00  0.00     0.093 C 
ATOM     11  H2  UNL     1      -0.867   5.248  21.646  1.00  0.00     0.168 HD
HETATM   12  C3  UNL     1      -0.627   3.542  18.803  1.00  0.00     0.046 C 
HETATM   13  C2  UNL     1      -1.038   4.236  17.676  1.00  0.00     0.029 C 
HETATM   14  C17 UNL     1      -1.614   5.489  17.700  1.00  0.00     0.047 C 
BRANCH  13  15
HETATM   15  N1  UNL     1      -0.850   3.636  16.589  1.00  0.00    -0.394 N 
HETATM   16  C1  UNL     1      -0.108   2.467  16.303  1.00  0.00     0.146 C 
ATOM     17  H1  UNL     1      -1.305   4.062  15.782  1.00  0.00     0.159 HD
ENDBRANCH  13  15
ENDBRANCH   5   6
ENDBRANCH   3   5
ENDBRANCH   1   3
BRANCH   1  18
HETATM   18  C8  UNL     1      -1.117   9.716  19.529  1.00  0.00     0.122 A 
HETATM   19  C9  UNL     1      -1.089  10.569  20.624  1.00  0.00     0.067 A 
HETATM   20  C10 UNL     1       0.014  10.663  21.442  1.00  0.00     0.093 A 
HETATM   21  N5  UNL     1       1.114   9.903  21.181  1.00  0.00    -0.351 N 
HETATM   22  C11 UNL     1       1.078   9.086  20.124  1.00  0.00     0.117 A 
ATOM     23  H5  UNL     1       1.941   9.956  21.775  1.00  0.00     0.166 HD
HETATM   24  N7  UNL     1      -0.015   8.990  19.309  1.00  0.00    -0.327 N 
ATOM     25  H7  UNL     1       0.009   8.350  18.515  1.00  0.00     0.169 HD
BRANCH  22  26
HETATM   26  C12 UNL     1       2.236   8.258  19.811  1.00  0.00     0.011 A 
HETATM   27  C13 UNL     1       2.561   7.978  18.483  1.00  0.00     0.032 A 
HETATM   28  C14 UNL     1       3.654   7.196  18.198  1.00  0.00     0.088 A 
HETATM   29  N6  UNL     1       4.434   6.683  19.163  1.00  0.00    -0.375 N 
HETATM   30  C15 UNL     1       4.141   6.938  20.448  1.00  0.00     0.088 A 
ATOM     31  H6  UNL     1       5.240   6.106  18.923  1.00  0.00     0.164 HD
HETATM   32  C16 UNL     1       3.037   7.729  20.784  1.00  0.00     0.032 A 
ENDBRANCH  22  26
ENDBRANCH   1  18
TORSDOF 6
ENDMDL
MODEL 2
REMARK VINA RESULT: -6.942775857      1.762      4.801
REMARK  6 active torsions:
REMARK  status: ('A' for Active; 'I' for Inactive)
REMARK    1  A    between atoms: N1_2  and  C2_4 
REMARK    2  A    between atoms: C6_11  and  C7_12 
REMARK    3  A    between atoms: C7_12  and  N3_13 
REMARK    4  A    between atoms: N3_13  and  N4_15 
REMARK    5  A    between atoms: N4_15  and  C8_17 
REMARK    6  A    between atoms: C11_22  and  C12_23 
ROOT
HETATM    1  N4  UNL     1      -2.122  10.459  18.746  1.00  0.00    -0.286 N 
ATOM      2  H4  UNL     1      -2.684  11.248  18.427  1.00  0.00     0.188 HD
ENDROOT
BRANCH   1   3
HETATM    3  N3  UNL     1      -0.766  10.636  18.946  1.00  0.00    -0.309 N 
ATOM      4  H3  UNL     1      -0.173  10.725  18.121  1.00  0.00     0.186 HD
BRANCH   3   5
HETATM    5  C7  UNL     1      -0.200  10.695  20.100  1.00  0.00     0.124 C 
BRANCH   5   6
HETATM    6  C6  UNL     1       0.775   9.680  20.459  1.00  0.00     0.051 C 
HETATM    7  C5  UNL     1       1.296   9.737  21.729  1.00  0.00     0.257 C 
HETATM    8  N2  UNL     1       2.133   8.876  22.352  1.00  0.00    -0.333 N 
HETATM    9  O1  UNL     1       0.927  10.740  22.380  1.00  0.00    -0.267 OA
HETATM   10  C4  UNL     1       2.550   7.660  21.957  1.00  0.00     0.093 C 
ATOM     11  H2  UNL     1       2.501   9.194  23.248  1.00  0.00     0.168 HD
HETATM   12  C3  UNL     1       2.397   7.052  20.708  1.00  0.00     0.046 C 
HETATM   13  C2  UNL     1       1.756   7.529  19.576  1.00  0.00     0.029 C 
HETATM   14  C17 UNL     1       1.102   8.741  19.504  1.00  0.00     0.047 C 
BRANCH  13  15
HETATM   15  N1  UNL     1       1.807   6.766  18.580  1.00  0.00    -0.394 N 
HETATM   16  C1  UNL     1       2.916   6.308  17.833  1.00  0.00     0.146 C 
ATOM     17  H1  UNL     1       0.903   6.422  18.259  1.00  0.00     0.159 HD
ENDBRANCH  13  15
ENDBRANCH   5   6
ENDBRANCH   3   5
ENDBRANCH   1   3
BRANCH   1  18
HETATM   18  C8  UNL     1      -2.694   9.322  18.955  1.00  0.00     0.122 A 
HETATM   19  C9  UNL     1      -4.016   9.222  19.366  1.00  0.00     0.067 A 
HETATM   20  C10 UNL     1      -4.616   8.004  19.586  1.00  0.00     0.093 A 
HETATM   21  N5  UNL     1      -3.905   6.857  19.399  1.00  0.00    -0.351 N 
HETATM   22  C11 UNL     1      -2.633   6.963  19.004  1.00  0.00     0.117 A 
ATOM     23  H5  UNL     1      -4.331   5.944  19.556  1.00  0.00     0.166 HD
HETATM   24  N7  UNL     1      -2.033   8.172  18.784  1.00  0.00    -0.327 N 
ATOM     25  H7  UNL     1      -1.058   8.197  18.483  1.00  0.00     0.169 HD
BRANCH  22  26
HETATM   26  C12 UNL     1      -1.839   5.760  18.795  1.00  0.00     0.011 A 
HETATM   27  C13 UNL     1      -1.168   5.165  19.865  1.00  0.00     0.032 A 
HETATM   28  C14 UNL     1      -0.421   4.031  19.657  1.00  0.00     0.088 A 
HETATM   29  N6  UNL     1      -0.310   3.464  18.445  1.00  0.00    -0.375 N 
HETATM   30  C15 UNL     1      -0.945   4.018  17.401  1.00  0.00     0.088 A 
ATOM     31  H6  UNL     1       0.252   2.621  18.319  1.00  0.00     0.164 HD
HETATM   32  C16 UNL     1      -1.716   5.173  17.566  1.00  0.00     0.032 A 
ENDBRANCH  22  26
ENDBRANCH   1  18
TORSDOF 6
ENDMDL
MODEL 3
REMARK VINA RESULT: -6.832555111      1.738      4.684
REMARK  6 active torsions:
REMARK  status: ('A' for Active; 'I' for Inactive)
REMARK    1  A    between atoms: N1_2  and  C2_4 
REMARK    2  A    between atoms: C6_11  and  C7_12 
REMARK    3  A    between atoms: C7_12  and  N3_13 
REMARK    4  A    between atoms: N3_13  and  N4_15 
REMARK    5  A    between atoms: N4_15  and  C8_17 
REMARK    6  A    between atoms: C11_22  and  C12_23 
ROOT
HETATM    1  N4  UNL     1      -2.256   6.196  18.676  1.00  0.00    -0.286 N 
ATOM      2  H4  UNL     1      -2.933   5.572  19.114  1.00  0.00     0.188 HD
ENDROOT
BRANCH   1   3
HETATM    3  N3  UNL     1      -1.132   5.658  18.079  1.00  0.00    -0.309 N 
ATOM      4  H3  UNL     1      -1.047   5.741  17.066  1.00  0.00     0.186 HD
BRANCH   3   5
HETATM    5  C7  UNL     1      -0.185   5.061  18.713  1.00  0.00     0.124 C 
BRANCH   5   6
HETATM    6  C6  UNL     1       0.866   5.857  19.322  1.00  0.00     0.051 C 
HETATM    7  C5  UNL     1       0.709   6.190  20.646  1.00  0.00     0.257 C 
HETATM    8  N2  UNL     1       1.564   6.830  21.476  1.00  0.00    -0.333 N 
HETATM    9  O1  UNL     1      -0.393   5.841  21.126  1.00  0.00    -0.267 OA
HETATM   10  C4  UNL     1       2.851   7.165  21.278  1.00  0.00     0.093 C 
ATOM     11  H2  UNL     1       1.179   7.094  22.382  1.00  0.00     0.168 HD
HETATM   12  C3  UNL     1       3.584   7.132  20.088  1.00  0.00     0.046 C 
HETATM   13  C2  UNL     1       3.186   6.719  18.827  1.00  0.00     0.029 C 
HETATM   14  C17 UNL     1       1.936   6.217  18.531  1.00  0.00     0.047 C 
BRANCH  13  15
HETATM   15  N1  UNL     1       4.061   6.833  17.934  1.00  0.00    -0.394 N 
HETATM   16  C1  UNL     1       5.464   6.669  17.999  1.00  0.00     0.146 C 
ATOM     17  H1  UNL     1       3.702   7.084  17.013  1.00  0.00     0.159 HD
ENDBRANCH  13  15
ENDBRANCH   5   6
ENDBRANCH   3   5
ENDBRANCH   1   3
BRANCH   1  18
HETATM   18  C8  UNL     1      -2.470   7.468  18.692  1.00  0.00     0.122 A 
HETATM   19  C9  UNL     1      -3.452   8.064  17.912  1.00  0.00     0.067 A 
HETATM   20  C10 UNL     1      -3.672   9.422  17.936  1.00  0.00     0.093 A 
HETATM   21  N5  UNL     1      -2.913  10.214  18.743  1.00  0.00    -0.351 N 
HETATM   22  C11 UNL     1      -1.970   9.632  19.489  1.00  0.00     0.117 A 
ATOM     23  H5  UNL     1      -3.060  11.222  18.776  1.00  0.00     0.166 HD
HETATM   24  N7  UNL     1      -1.748   8.283  19.469  1.00  0.00    -0.327 N 
ATOM     25  H7  UNL     1      -1.015   7.889  20.059  1.00  0.00     0.169 HD
BRANCH  22  26
HETATM   26  C12 UNL     1      -1.136  10.446  20.364  1.00  0.00     0.011 A 
HETATM   27  C13 UNL     1      -0.115   9.855  21.111  1.00  0.00     0.032 A 
HETATM   28  C14 UNL     1       0.665  10.631  21.934  1.00  0.00     0.088 A 
HETATM   29  N6  UNL     1       0.481  11.956  22.048  1.00  0.00    -0.375 N 
HETATM   30  C15 UNL     1      -0.494  12.546  21.341  1.00  0.00     0.088 A 
ATOM     31  H6  UNL     1       1.076  12.508  22.667  1.00  0.00     0.164 HD
HETATM   32  C16 UNL     1      -1.313  11.795  20.491  1.00  0.00     0.032 A 
ENDBRANCH  22  26
ENDBRANCH   1  18
TORSDOF 6
ENDMDL
MODEL 4
REMARK VINA RESULT: -6.762370964      2.136      6.410
REMARK  6 active torsions:
REMARK  status: ('A' for Active; 'I' for Inactive)
REMARK    1  A    between atoms: N1_2  and  C2_4 
REMARK    2  A    between atoms: C6_11  and  C7_12 
REMARK    3  A    between atoms: C7_12  and  N3_13 
REMARK    4  A    between atoms: N3_13  and  N4_15 
REMARK    5  A    between atoms: N4_15  and  C8_17 
REMARK    6  A    between atoms: C11_22  and  C12_23 
ROOT
HETATM    1  N4  UNL     1       1.995   5.668  18.127  1.00  0.00    -0.286 N 
ATOM      2  H4  UNL     1       2.657   5.016  18.545  1.00  0.00     0.188 HD
ENDROOT
BRANCH   1   3
HETATM    3  N3  UNL     1       2.465   6.844  17.572  1.00  0.00    -0.309 N 
ATOM      4  H3  UNL     1       2.375   6.962  16.563  1.00  0.00     0.186 HD
BRANCH   3   5
HETATM    5  C7  UNL     1       3.010   7.799  18.241  1.00  0.00     0.124 C 
BRANCH   5   6
HETATM    6  C6  UNL     1       2.525   8.086  19.580  1.00  0.00     0.051 C 
HETATM    7  C5  UNL     1       3.227   7.540  20.627  1.00  0.00     0.257 C 
HETATM    8  N2  UNL     1       3.060   7.721  21.958  1.00  0.00    -0.333 N 
HETATM    9  O1  UNL     1       4.147   6.770  20.271  1.00  0.00    -0.267 OA
HETATM   10  C4  UNL     1       2.273   8.599  22.604  1.00  0.00     0.093 C 
ATOM     11  H2  UNL     1       3.608   7.103  22.555  1.00  0.00     0.168 HD
HETATM   12  C3  UNL     1       1.266   9.413  22.080  1.00  0.00     0.046 C 
HETATM   13  C2  UNL     1       0.844   9.546  20.767  1.00  0.00     0.029 C 
HETATM   14  C17 UNL     1       1.403   8.878  19.698  1.00  0.00     0.047 C 
BRANCH  13  15
HETATM   15  N1  UNL     1      -0.114  10.340  20.599  1.00  0.00    -0.394 N 
HETATM   16  C1  UNL     1      -0.844  10.662  19.431  1.00  0.00     0.146 C 
ATOM     17  H1  UNL     1      -0.415  10.831  21.440  1.00  0.00     0.159 HD
ENDBRANCH  13  15
ENDBRANCH   5   6
ENDBRANCH   3   5
ENDBRANCH   1   3
BRANCH   1  18
HETATM   18  C8  UNL     1       0.738   5.377  18.127  1.00  0.00     0.122 A 
HETATM   19  C9  UNL     1       0.267   4.130  17.737  1.00  0.00     0.067 A 
HETATM   20  C10 UNL     1      -1.075   3.830  17.740  1.00  0.00     0.093 A 
HETATM   21  N5  UNL     1      -1.977   4.771  18.135  1.00  0.00    -0.351 N 
HETATM   22  C11 UNL     1      -1.514   5.968  18.508  1.00  0.00     0.117 A 
ATOM     23  H5  UNL     1      -2.976   4.569  18.146  1.00  0.00     0.166 HD
HETATM   24  N7  UNL     1      -0.181   6.271  18.506  1.00  0.00    -0.327 N 
ATOM     25  H7  UNL     1       0.120   7.201  18.800  1.00  0.00     0.169 HD
BRANCH  22  26
HETATM   26  C12 UNL     1      -2.447   7.003  18.936  1.00  0.00     0.011 A 
HETATM   27  C13 UNL     1      -2.571   7.322  20.289  1.00  0.00     0.032 A 
HETATM   28  C14 UNL     1      -3.453   8.298  20.682  1.00  0.00     0.088 A 
HETATM   29  N6  UNL     1      -4.214   8.968  19.801  1.00  0.00    -0.375 N 
HETATM   30  C15 UNL     1      -4.113   8.679  18.495  1.00  0.00     0.088 A 
ATOM     31  H6  UNL     1      -4.861   9.689  20.121  1.00  0.00     0.164 HD
HETATM   32  C16 UNL     1      -3.228   7.691  18.049  1.00  0.00     0.032 A 
ENDBRANCH  22  26
ENDBRANCH   1  18
TORSDOF 6
ENDMDL
MODEL 5
REMARK VINA RESULT: -6.735593975      2.157      5.314
REMARK  6 active torsions:
REMARK  status: ('A' for Active; 'I' for Inactive)
REMARK    1  A    between atoms: N1_2  and  C2_4 
REMARK    2  A    between atoms: C6_11  and  C7_12 
REMARK    3  A    between atoms: C7_12  and  N3_13 
REMARK    4  A    between atoms: N3_13  and  N4_15 
REMARK    5  A    between atoms: N4_15  and  C8_17 
REMARK    6  A    between atoms: C11_22  and  C12_23 
ROOT
HETATM    1  N4  UNL     1      -1.704   6.586  17.971  1.00  0.00    -0.286 N 
ATOM      2  H4  UNL     1      -1.293   6.909  17.096  1.00  0.00     0.188 HD
ENDROOT
BRANCH   1   3
HETATM    3  N3  UNL     1      -1.450   5.296  18.399  1.00  0.00    -0.309 N 
ATOM      4  H3  UNL     1      -2.248   4.674  18.529  1.00  0.00     0.186 HD
BRANCH   3   5
HETATM    5  C7  UNL     1      -0.278   4.827  18.645  1.00  0.00     0.124 C 
BRANCH   5   6
HETATM    6  C6  UNL     1       0.712   5.694  19.260  1.00  0.00     0.051 C 
HETATM    7  C5  UNL     1       0.508   6.038  20.575  1.00  0.00     0.257 C 
HETATM    8  N2  UNL     1       1.308   6.740  21.411  1.00  0.00    -0.333 N 
HETATM    9  O1  UNL     1      -0.580   5.632  21.039  1.00  0.00    -0.267 OA
HETATM   10  C4  UNL     1       2.576   7.148  21.232  1.00  0.00     0.093 C 
ATOM     11  H2  UNL     1       0.888   6.996  22.305  1.00  0.00     0.168 HD
HETATM   12  C3  UNL     1       3.334   7.139  20.058  1.00  0.00     0.046 C 
HETATM   13  C2  UNL     1       2.987   6.684  18.796  1.00  0.00     0.029 C 
HETATM   14  C17 UNL     1       1.775   6.104  18.484  1.00  0.00     0.047 C 
BRANCH  13  15
HETATM   15  N1  UNL     1       3.872   6.835  17.919  1.00  0.00    -0.394 N 
HETATM   16  C1  UNL     1       5.279   6.746  18.011  1.00  0.00     0.146 C 
ATOM     17  H1  UNL     1       3.517   7.057  16.988  1.00  0.00     0.159 HD
ENDBRANCH  13  15
ENDBRANCH   5   6
ENDBRANCH   3   5
ENDBRANCH   1   3
BRANCH   1  18
HETATM   18  C8  UNL     1      -2.448   7.390  18.652  1.00  0.00     0.122 A 
HETATM   19  C9  UNL     1      -3.549   6.948  19.374  1.00  0.00     0.067 A 
HETATM   20  C10 UNL     1      -4.337   7.813  20.096  1.00  0.00     0.093 A 
HETATM   21  N5  UNL     1      -4.040   9.143  20.111  1.00  0.00    -0.351 N 
HETATM   22  C11 UNL     1      -2.981   9.559  19.413  1.00  0.00     0.117 A 
ATOM     23  H5  UNL     1      -4.611   9.801  20.641  1.00  0.00     0.166 HD
HETATM   24  N7  UNL     1      -2.194   8.702  18.694  1.00  0.00    -0.327 N 
ATOM     25  H7  UNL     1      -1.396   9.072  18.177  1.00  0.00     0.169 HD
BRANCH  22  26
HETATM   26  C12 UNL     1      -2.631  10.974  19.403  1.00  0.00     0.011 A 
HETATM   27  C13 UNL     1      -1.331  11.379  19.709  1.00  0.00     0.032 A 
HETATM   28  C14 UNL     1      -1.012  12.715  19.697  1.00  0.00     0.088 A 
HETATM   29  N6  UNL     1      -1.917  13.661  19.399  1.00  0.00    -0.375 N 
HETATM   30  C15 UNL     1      -3.173  13.296  19.102  1.00  0.00     0.088 A 
ATOM     31  H6  UNL     1      -1.652  14.646  19.397  1.00  0.00     0.164 HD
HETATM   32  C16 UNL     1      -3.543  11.947  19.102  1.00  0.00     0.032 A 
ENDBRANCH  22  26
ENDBRANCH   1  18
TORSDOF 6
ENDMDL
