MODEL 1
REMARK VINA RESULT: -7.543407502      0.000      0.000
REMARK  23 active torsions:
REMARK  status: ('A' for Active; 'I' for Inactive)
REMARK    1  A    between atoms: O1_1  and  C1_3 
REMARK    2  A    between atoms: C1_3  and  C2_4 
REMARK    3  A    between atoms: C1_3  and  O3_8 
REMARK    4  A    between atoms: C2_4  and  C3_5 
REMARK    5  A    between atoms: C3_5  and  O2_6 
REMARK    6  A    between atoms: O3_8  and  C4_9 
REMARK    7  A    between atoms: C4_9  and  C5_10 
REMARK    8  A    between atoms: C6_11  and  N1_12 
REMARK    9  A    between atoms: N1_12  and  C7_14 
REMARK   10  A    between atoms: C7_14  and  O4_15 
REMARK   11  A    between atoms: N2_17  and  O5_19 
REMARK   12  A    between atoms: C8_22  and  C9_23 
REMARK   13  A    between atoms: C9_23  and  C10_25 
REMARK   14  A    between atoms: C11_27  and  O8_28 
REMARK   15  A    between atoms: O8_28  and  C12_29 
REMARK   16  A    between atoms: C18_35  and  O9_36 
REMARK   17  A    between atoms: C19_38  and  O10_39 
REMARK   18  A    between atoms: O10_39  and  C20_40 
REMARK   19  A    between atoms: C21_42  and  C22_43 
REMARK   20  A    between atoms: C22_43  and  O12_44 
REMARK   21  A    between atoms: C23_46  and  O13_47 
REMARK   22  A    between atoms: C24_49  and  O14_50 
REMARK   23  A    between atoms: C25_52  and  O15_53 
ROOT
HETATM    1  C10 UNL     1     111.248  43.456  91.515  1.00  0.00     0.166 A 
HETATM    2  O7  UNL     1     110.276  44.103  92.170  1.00  0.00    -0.279 OA
HETATM    3  C11 UNL     1     110.780  45.046  92.885  1.00  0.00     0.224 A 
HETATM    4  C18 UNL     1     112.154  45.054  92.724  1.00  0.00     0.161 A 
HETATM    5  C19 UNL     1     112.436  44.010  91.825  1.00  0.00     0.148 A 
ENDROOT
BRANCH   1   6
HETATM    6  C9  UNL     1     110.857  42.353  90.662  1.00  0.00     0.228 C 
HETATM    7  O6  UNL     1     109.659  42.069  90.391  1.00  0.00    -0.284 OA
BRANCH   6   8
HETATM    8  C8  UNL     1     111.897  41.454  90.064  1.00  0.00     0.093 A 
HETATM    9  S1  UNL     1     112.994  40.460  90.893  1.00  0.00    -0.065 SA
HETATM   10  C6  UNL     1     113.859  39.796  89.534  1.00  0.00     0.089 A 
HETATM   11  C5  UNL     1     113.234  40.399  88.489  1.00  0.00     0.034 A 
HETATM   12  C25 UNL     1     112.230  41.247  88.761  1.00  0.00     0.098 A 
BRANCH  10  13
HETATM   13  N1  UNL     1     114.949  38.900  89.712  1.00  0.00    -0.314 N 
ATOM     14  H1  UNL     1     114.916  38.131  89.044  1.00  0.00     0.170 HD
BRANCH  13  15
HETATM   15  C7  UNL     1     116.037  38.797  90.551  1.00  0.00     0.242 C 
HETATM   16  N2  UNL     1     117.166  39.302  90.685  1.00  0.00    -0.233 N 
ATOM     17  H2  UNL     1     117.405  40.009  89.989  1.00  0.00     0.198 HD
BRANCH  15  18
HETATM   18  O4  UNL     1     115.810  37.785  91.617  1.00  0.00    -0.331 OA
ATOM     19  H4  UNL     1     116.503  37.802  92.267  1.00  0.00     0.221 HD
ENDBRANCH  15  18
BRANCH  16  20
HETATM   20  O5  UNL     1     118.132  39.060  91.610  1.00  0.00    -0.287 OA
ATOM     21  H5  UNL     1     118.918  38.528  91.553  1.00  0.00     0.244 HD
ENDBRANCH  16  20
ENDBRANCH  13  15
ENDBRANCH  10  13
BRANCH  11  22
HETATM   22  C4  UNL     1     113.774  40.150  87.073  1.00  0.00     0.215 C 
BRANCH  22  23
HETATM   23  O3  UNL     1     115.053  40.641  87.035  1.00  0.00    -0.357 OA
BRANCH  23  24
HETATM   24  C1  UNL     1     116.205  40.235  86.546  1.00  0.00     0.259 C 
BRANCH  24  25
HETATM   25  O1  UNL     1     117.140  41.174  86.491  1.00  0.00    -0.371 OA
ATOM     26  H1  UNL     1     116.828  42.071  86.491  1.00  0.00     0.212 HD
ENDBRANCH  24  25
BRANCH  24  27
HETATM   27  C2  UNL     1     116.603  38.909  86.079  1.00  0.00     0.086 C 
BRANCH  27  28
HETATM   28  C3  UNL     1     117.414  38.208  87.171  1.00  0.00     0.169 C 
BRANCH  28  29
HETATM   29  O2  UNL     1     118.261  39.096  87.813  1.00  0.00    -0.401 OA
ATOM     30  H2  UNL     1     118.475  38.795  88.688  1.00  0.00     0.209 HD
ENDBRANCH  28  29
ENDBRANCH  27  28
ENDBRANCH  24  27
ENDBRANCH  23  24
ENDBRANCH  22  23
ENDBRANCH  11  22
BRANCH  12  31
HETATM   31  O15 UNL     1     111.458  41.968  87.776  1.00  0.00    -0.358 OA
ATOM     32  H15 UNL     1     110.594  42.335  87.918  1.00  0.00     0.217 HD
ENDBRANCH  12  31
ENDBRANCH   6   8
ENDBRANCH   1   6
BRANCH   5  33
HETATM   33  O10 UNL     1     113.684  43.716  91.428  1.00  0.00    -0.312 OA
BRANCH  33  34
HETATM   34  C20 UNL     1     114.852  44.442  91.327  1.00  0.00     0.298 C 
HETATM   35  O11 UNL     1     115.506  44.136  90.133  1.00  0.00    -0.348 OA
HETATM   36  C21 UNL     1     116.031  42.851  90.304  1.00  0.00     0.179 C 
HETATM   37  C23 UNL     1     116.150  42.586  91.787  1.00  0.00     0.182 C 
HETATM   38  C24 UNL     1     115.981  44.015  92.297  1.00  0.00     0.205 C 
BRANCH  36  39
HETATM   39  C22 UNL     1     117.446  42.860  89.777  1.00  0.00     0.198 C 
BRANCH  39  40
HETATM   40  O12 UNL     1     117.800  41.646  89.234  1.00  0.00    -0.398 OA
ATOM     41  H12 UNL     1     117.870  40.969  89.896  1.00  0.00     0.209 HD
ENDBRANCH  39  40
ENDBRANCH  36  39
BRANCH  37  42
HETATM   42  O13 UNL     1     117.427  42.140  92.139  1.00  0.00    -0.390 OA
ATOM     43  H13 UNL     1     117.496  41.957  93.068  1.00  0.00     0.210 HD
ENDBRANCH  37  42
BRANCH  38  44
HETATM   44  O14 UNL     1     115.744  44.216  93.596  1.00  0.00    -0.388 OA
ATOM     45  H14 UNL     1     115.158  43.596  94.013  1.00  0.00     0.210 HD
ENDBRANCH  38  44
ENDBRANCH  33  34
ENDBRANCH   5  33
BRANCH   3  46
HETATM   46  O8  UNL     1     110.132  45.963  93.715  1.00  0.00    -0.323 OA
BRANCH  46  47
HETATM   47  C12 UNL     1     109.201  45.722  94.704  1.00  0.00     0.131 C 
HETATM   48  C13 UNL     1     109.805  45.777  96.097  1.00  0.00     0.032 C 
HETATM   49  C14 UNL     1     108.770  45.351  97.090  1.00  0.00     0.002 C 
HETATM   50  C15 UNL     1     107.605  46.321  97.044  1.00  0.00     0.000 C 
HETATM   51  C16 UNL     1     107.849  47.410  96.020  1.00  0.00     0.002 C 
HETATM   52  C17 UNL     1     108.188  46.871  94.659  1.00  0.00     0.032 C 
ENDBRANCH  46  47
ENDBRANCH   3  46
BRANCH   4  53
HETATM   53  O9  UNL     1     113.039  45.918  93.342  1.00  0.00    -0.354 OA
ATOM     54  H9  UNL     1     113.544  46.600  92.914  1.00  0.00     0.218 HD
ENDBRANCH   4  53
TORSDOF 23
ENDMDL
MODEL 2
REMARK VINA RESULT: -7.536898729      4.659     10.433
REMARK  23 active torsions:
REMARK  status: ('A' for Active; 'I' for Inactive)
REMARK    1  A    between atoms: O1_1  and  C1_3 
REMARK    2  A    between atoms: C1_3  and  C2_4 
REMARK    3  A    between atoms: C1_3  and  O3_8 
REMARK    4  A    between atoms: C2_4  and  C3_5 
REMARK    5  A    between atoms: C3_5  and  O2_6 
REMARK    6  A    between atoms: O3_8  and  C4_9 
REMARK    7  A    between atoms: C4_9  and  C5_10 
REMARK    8  A    between atoms: C6_11  and  N1_12 
REMARK    9  A    between atoms: N1_12  and  C7_14 
REMARK   10  A    between atoms: C7_14  and  O4_15 
REMARK   11  A    between atoms: N2_17  and  O5_19 
REMARK   12  A    between atoms: C8_22  and  C9_23 
REMARK   13  A    between atoms: C9_23  and  C10_25 
REMARK   14  A    between atoms: C11_27  and  O8_28 
REMARK   15  A    between atoms: O8_28  and  C12_29 
REMARK   16  A    between atoms: C18_35  and  O9_36 
REMARK   17  A    between atoms: C19_38  and  O10_39 
REMARK   18  A    between atoms: O10_39  and  C20_40 
REMARK   19  A    between atoms: C21_42  and  C22_43 
REMARK   20  A    between atoms: C22_43  and  O12_44 
REMARK   21  A    between atoms: C23_46  and  O13_47 
REMARK   22  A    between atoms: C24_49  and  O14_50 
REMARK   23  A    between atoms: C25_52  and  O15_53 
ROOT
HETATM    1  C10 UNL     1     111.847  46.137  92.857  1.00  0.00     0.166 A 
HETATM    2  O7  UNL     1     113.113  46.181  93.293  1.00  0.00    -0.279 OA
HETATM    3  C11 UNL     1     113.782  45.199  92.799  1.00  0.00     0.224 A 
HETATM    4  C18 UNL     1     112.952  44.443  91.992  1.00  0.00     0.161 A 
HETATM    5  C19 UNL     1     111.696  45.075  92.043  1.00  0.00     0.148 A 
ENDROOT
BRANCH   1   6
HETATM    6  C9  UNL     1     110.946  47.170  93.322  1.00  0.00     0.228 C 
HETATM    7  O6  UNL     1     110.978  48.362  92.912  1.00  0.00    -0.284 OA
BRANCH   6   8
HETATM    8  C8  UNL     1     109.916  46.862  94.366  1.00  0.00     0.093 A 
HETATM    9  S1  UNL     1     109.936  45.584  95.482  1.00  0.00    -0.065 SA
HETATM   10  C6  UNL     1     108.419  45.883  96.286  1.00  0.00     0.089 A 
HETATM   11  C5  UNL     1     107.971  46.982  95.624  1.00  0.00     0.034 A 
HETATM   12  C25 UNL     1     108.737  47.483  94.643  1.00  0.00     0.098 A 
BRANCH  10  13
HETATM   13  N1  UNL     1     107.943  45.028  97.317  1.00  0.00    -0.314 N 
ATOM     14  H1  UNL     1     107.445  45.550  98.038  1.00  0.00     0.170 HD
BRANCH  13  15
HETATM   15  C7  UNL     1     107.976  43.680  97.599  1.00  0.00     0.242 C 
HETATM   16  N2  UNL     1     107.232  42.687  97.510  1.00  0.00    -0.233 N 
ATOM     17  H2  UNL     1     106.311  42.875  97.116  1.00  0.00     0.198 HD
BRANCH  15  18
HETATM   18  O4  UNL     1     109.282  43.278  98.187  1.00  0.00    -0.331 OA
ATOM     19  H4  UNL     1     109.216  43.152  99.127  1.00  0.00     0.221 HD
ENDBRANCH  15  18
BRANCH  16  20
HETATM   20  O5  UNL     1     107.454  41.391  97.854  1.00  0.00    -0.287 OA
ATOM     21  H5  UNL     1     107.039  40.853  98.519  1.00  0.00     0.244 HD
ENDBRANCH  16  20
ENDBRANCH  13  15
ENDBRANCH  10  13
BRANCH  11  22
HETATM   22  C4  UNL     1     106.577  47.527  95.974  1.00  0.00     0.215 C 
BRANCH  22  23
HETATM   23  O3  UNL     1     105.961  47.849  94.793  1.00  0.00    -0.357 OA
BRANCH  23  24
HETATM   24  C1  UNL     1     104.823  48.411  94.445  1.00  0.00     0.259 C 
BRANCH  24  25
HETATM   25  O1  UNL     1     104.759  49.714  94.683  1.00  0.00    -0.371 OA
ATOM     26  H1  UNL     1     105.265  50.026  95.425  1.00  0.00     0.212 HD
ENDBRANCH  24  25
BRANCH  24  27
HETATM   27  C2  UNL     1     103.643  47.816  93.822  1.00  0.00     0.086 C 
BRANCH  27  28
HETATM   28  C3  UNL     1     103.396  48.478  92.465  1.00  0.00     0.169 C 
BRANCH  28  29
HETATM   29  O2  UNL     1     102.642  49.632  92.600  1.00  0.00    -0.401 OA
ATOM     30  H2  UNL     1     102.949  50.313  92.015  1.00  0.00     0.209 HD
ENDBRANCH  28  29
ENDBRANCH  27  28
ENDBRANCH  24  27
ENDBRANCH  23  24
ENDBRANCH  22  23
ENDBRANCH  11  22
BRANCH  12  31
HETATM   31  O15 UNL     1     108.417  48.643  93.844  1.00  0.00    -0.358 OA
ATOM     32  H15 UNL     1     108.530  48.709  92.904  1.00  0.00     0.217 HD
ENDBRANCH  12  31
ENDBRANCH   6   8
ENDBRANCH   1   6
BRANCH   5  33
HETATM   33  O10 UNL     1     110.629  44.615  91.371  1.00  0.00    -0.312 OA
BRANCH  33  34
HETATM   34  C20 UNL     1     109.717  45.191  90.513  1.00  0.00     0.298 C 
HETATM   35  O11 UNL     1     108.860  46.037  91.219  1.00  0.00    -0.348 OA
HETATM   36  C21 UNL     1     108.012  45.198  91.949  1.00  0.00     0.179 C 
HETATM   37  C23 UNL     1     108.006  43.842  91.280  1.00  0.00     0.182 C 
HETATM   38  C24 UNL     1     108.641  44.231  89.948  1.00  0.00     0.205 C 
BRANCH  36  39
HETATM   39  C22 UNL     1     106.606  45.729  91.805  1.00  0.00     0.198 C 
BRANCH  39  40
HETATM   40  O12 UNL     1     106.571  47.104  91.831  1.00  0.00    -0.398 OA
ATOM     41  H12 UNL     1     106.598  47.477  90.958  1.00  0.00     0.209 HD
ENDBRANCH  39  40
ENDBRANCH  36  39
BRANCH  37  42
HETATM   42  O13 UNL     1     106.708  43.385  91.034  1.00  0.00    -0.390 OA
ATOM     43  H13 UNL     1     106.660  42.855  90.248  1.00  0.00     0.210 HD
ENDBRANCH  37  42
BRANCH  38  44
HETATM   44  O14 UNL     1     109.084  43.268  89.136  1.00  0.00    -0.388 OA
ATOM     45  H14 UNL     1     108.663  43.214  88.286  1.00  0.00     0.210 HD
ENDBRANCH  38  44
ENDBRANCH  33  34
ENDBRANCH   5  33
BRANCH   3  46
HETATM   46  O8  UNL     1     115.126  44.870  92.985  1.00  0.00    -0.323 OA
BRANCH  46  47
HETATM   47  C12 UNL     1     115.812  43.761  92.534  1.00  0.00     0.131 C 
HETATM   48  C13 UNL     1     117.276  44.055  92.256  1.00  0.00     0.032 C 
HETATM   49  C14 UNL     1     117.900  42.849  91.627  1.00  0.00     0.002 C 
HETATM   50  C15 UNL     1     117.829  41.686  92.599  1.00  0.00     0.000 C 
HETATM   51  C16 UNL     1     117.160  42.102  93.892  1.00  0.00     0.002 C 
HETATM   52  C17 UNL     1     115.816  42.740  93.678  1.00  0.00     0.032 C 
ENDBRANCH  46  47
ENDBRANCH   3  46
BRANCH   4  53
HETATM   53  O9  UNL     1     113.312  43.302  91.299  1.00  0.00    -0.354 OA
ATOM     54  H9  UNL     1     112.768  42.533  91.170  1.00  0.00     0.218 HD
ENDBRANCH   4  53
TORSDOF 23
ENDMDL
MODEL 3
REMARK VINA RESULT: -7.464393748      1.748      4.536
REMARK  23 active torsions:
REMARK  status: ('A' for Active; 'I' for Inactive)
REMARK    1  A    between atoms: O1_1  and  C1_3 
REMARK    2  A    between atoms: C1_3  and  C2_4 
REMARK    3  A    between atoms: C1_3  and  O3_8 
REMARK    4  A    between atoms: C2_4  and  C3_5 
REMARK    5  A    between atoms: C3_5  and  O2_6 
REMARK    6  A    between atoms: O3_8  and  C4_9 
REMARK    7  A    between atoms: C4_9  and  C5_10 
REMARK    8  A    between atoms: C6_11  and  N1_12 
REMARK    9  A    between atoms: N1_12  and  C7_14 
REMARK   10  A    between atoms: C7_14  and  O4_15 
REMARK   11  A    between atoms: N2_17  and  O5_19 
REMARK   12  A    between atoms: C8_22  and  C9_23 
REMARK   13  A    between atoms: C9_23  and  C10_25 
REMARK   14  A    between atoms: C11_27  and  O8_28 
REMARK   15  A    between atoms: O8_28  and  C12_29 
REMARK   16  A    between atoms: C18_35  and  O9_36 
REMARK   17  A    between atoms: C19_38  and  O10_39 
REMARK   18  A    between atoms: O10_39  and  C20_40 
REMARK   19  A    between atoms: C21_42  and  C22_43 
REMARK   20  A    between atoms: C22_43  and  O12_44 
REMARK   21  A    between atoms: C23_46  and  O13_47 
REMARK   22  A    between atoms: C24_49  and  O14_50 
REMARK   23  A    between atoms: C25_52  and  O15_53 
ROOT
HETATM    1  C10 UNL     1     113.391  43.918  92.033  1.00  0.00     0.166 A 
HETATM    2  O7  UNL     1     112.810  45.008  92.551  1.00  0.00    -0.279 OA
HETATM    3  C11 UNL     1     111.534  44.935  92.407  1.00  0.00     0.224 A 
HETATM    4  C18 UNL     1     111.215  43.754  91.763  1.00  0.00     0.161 A 
HETATM    5  C19 UNL     1     112.442  43.106  91.530  1.00  0.00     0.148 A 
ENDROOT
BRANCH   1   6
HETATM    6  C9  UNL     1     114.835  43.836  92.103  1.00  0.00     0.228 C 
HETATM    7  O6  UNL     1     115.529  44.443  92.962  1.00  0.00    -0.284 OA
BRANCH   6   8
HETATM    8  C8  UNL     1     115.595  43.015  91.106  1.00  0.00     0.093 A 
HETATM    9  S1  UNL     1     115.425  43.035  89.418  1.00  0.00    -0.065 SA
HETATM   10  C6  UNL     1     116.592  41.810  88.999  1.00  0.00     0.089 A 
HETATM   11  C5  UNL     1     117.057  41.445  90.223  1.00  0.00     0.034 A 
HETATM   12  C25 UNL     1     116.547  42.062  91.300  1.00  0.00     0.098 A 
BRANCH  10  13
HETATM   13  N1  UNL     1     116.804  41.415  87.650  1.00  0.00    -0.314 N 
ATOM     14  H1  UNL     1     117.566  41.938  87.220  1.00  0.00     0.170 HD
BRANCH  13  15
HETATM   15  C7  UNL     1     116.250  40.511  86.769  1.00  0.00     0.242 C 
HETATM   16  N2  UNL     1     115.346  40.471  85.916  1.00  0.00    -0.233 N 
ATOM     17  H2  UNL     1     114.832  41.343  85.793  1.00  0.00     0.198 HD
BRANCH  15  18
HETATM   18  O4  UNL     1     116.919  39.186  86.855  1.00  0.00    -0.331 OA
ATOM     19  H4  UNL     1     116.471  38.534  86.328  1.00  0.00     0.221 HD
ENDBRANCH  15  18
BRANCH  16  20
HETATM   20  O5  UNL     1     114.935  39.448  85.120  1.00  0.00    -0.287 OA
ATOM     21  H5  UNL     1     114.507  39.464  84.272  1.00  0.00     0.244 HD
ENDBRANCH  16  20
ENDBRANCH  13  15
ENDBRANCH  10  13
BRANCH  11  22
HETATM   22  C4  UNL     1     118.063  40.287  90.306  1.00  0.00     0.215 C 
BRANCH  22  23
HETATM   23  O3  UNL     1     117.429  39.166  89.837  1.00  0.00    -0.357 OA
BRANCH  23  24
HETATM   24  C1  UNL     1     116.429  38.411  90.239  1.00  0.00     0.259 C 
BRANCH  24  25
HETATM   25  O1  UNL     1     116.058  37.483  89.369  1.00  0.00    -0.371 OA
ATOM     26  H1  UNL     1     115.888  37.787  88.484  1.00  0.00     0.212 HD
ENDBRANCH  24  25
BRANCH  24  27
HETATM   27  C2  UNL     1     115.693  38.436  91.501  1.00  0.00     0.086 C 
BRANCH  27  28
HETATM   28  C3  UNL     1     116.583  37.894  92.620  1.00  0.00     0.169 C 
BRANCH  28  29
HETATM   29  O2  UNL     1     117.068  38.920  93.415  1.00  0.00    -0.401 OA
ATOM     30  H2  UNL     1     117.911  38.695  93.790  1.00  0.00     0.209 HD
ENDBRANCH  28  29
ENDBRANCH  27  28
ENDBRANCH  24  27
ENDBRANCH  23  24
ENDBRANCH  22  23
ENDBRANCH  11  22
BRANCH  12  31
HETATM   31  O15 UNL     1     116.928  41.801  92.668  1.00  0.00    -0.358 OA
ATOM     32  H15 UNL     1     117.790  41.956  93.036  1.00  0.00     0.217 HD
ENDBRANCH  12  31
ENDBRANCH   6   8
ENDBRANCH   1   6
BRANCH   5  33
HETATM   33  O10 UNL     1     112.524  41.915  90.917  1.00  0.00    -0.312 OA
BRANCH  33  34
HETATM   34  C20 UNL     1     111.606  41.086  90.309  1.00  0.00     0.298 C 
HETATM   35  O11 UNL     1     112.157  39.818  90.117  1.00  0.00    -0.348 OA
HETATM   36  C21 UNL     1     113.083  39.959  89.079  1.00  0.00     0.179 C 
HETATM   37  C23 UNL     1     112.716  41.192  88.285  1.00  0.00     0.182 C 
HETATM   38  C24 UNL     1     111.304  41.409  88.825  1.00  0.00     0.205 C 
BRANCH  36  39
HETATM   39  C22 UNL     1     112.895  38.796  88.134  1.00  0.00     0.198 C 
BRANCH  39  40
HETATM   40  O12 UNL     1     114.091  38.353  87.618  1.00  0.00    -0.398 OA
ATOM     41  H12 UNL     1     114.142  37.405  87.604  1.00  0.00     0.209 HD
ENDBRANCH  39  40
ENDBRANCH  36  39
BRANCH  37  42
HETATM   42  O13 UNL     1     112.630  40.928  86.916  1.00  0.00    -0.390 OA
ATOM     43  H13 UNL     1     111.943  40.303  86.717  1.00  0.00     0.210 HD
ENDBRANCH  37  42
BRANCH  38  44
HETATM   44  O14 UNL     1     110.693  42.573  88.592  1.00  0.00    -0.388 OA
ATOM     45  H14 UNL     1     110.576  42.805  87.678  1.00  0.00     0.210 HD
ENDBRANCH  38  44
ENDBRANCH  33  34
ENDBRANCH   5  33
BRANCH   3  46
HETATM   46  O8  UNL     1     110.551  45.845  92.805  1.00  0.00    -0.323 OA
BRANCH  46  47
HETATM   47  C12 UNL     1     109.656  45.744  93.849  1.00  0.00     0.131 C 
HETATM   48  C13 UNL     1     110.309  45.980  95.200  1.00  0.00     0.032 C 
HETATM   49  C14 UNL     1     109.309  45.698  96.277  1.00  0.00     0.002 C 
HETATM   50  C15 UNL     1     108.144  46.661  96.142  1.00  0.00     0.000 C 
HETATM   51  C16 UNL     1     108.355  47.603  94.974  1.00  0.00     0.002 C 
HETATM   52  C17 UNL     1     108.644  46.884  93.686  1.00  0.00     0.032 C 
ENDBRANCH  46  47
ENDBRANCH   3  46
BRANCH   4  53
HETATM   53  O9  UNL     1     109.943  43.332  91.424  1.00  0.00    -0.354 OA
ATOM     54  H9  UNL     1     109.710  42.823  90.656  1.00  0.00     0.218 HD
ENDBRANCH   4  53
TORSDOF 23
ENDMDL
MODEL 4
REMARK VINA RESULT: -7.440685165      1.973      4.200
REMARK  23 active torsions:
REMARK  status: ('A' for Active; 'I' for Inactive)
REMARK    1  A    between atoms: O1_1  and  C1_3 
REMARK    2  A    between atoms: C1_3  and  C2_4 
REMARK    3  A    between atoms: C1_3  and  O3_8 
REMARK    4  A    between atoms: C2_4  and  C3_5 
REMARK    5  A    between atoms: C3_5  and  O2_6 
REMARK    6  A    between atoms: O3_8  and  C4_9 
REMARK    7  A    between atoms: C4_9  and  C5_10 
REMARK    8  A    between atoms: C6_11  and  N1_12 
REMARK    9  A    between atoms: N1_12  and  C7_14 
REMARK   10  A    between atoms: C7_14  and  O4_15 
REMARK   11  A    between atoms: N2_17  and  O5_19 
REMARK   12  A    between atoms: C8_22  and  C9_23 
REMARK   13  A    between atoms: C9_23  and  C10_25 
REMARK   14  A    between atoms: C11_27  and  O8_28 
REMARK   15  A    between atoms: O8_28  and  C12_29 
REMARK   16  A    between atoms: C18_35  and  O9_36 
REMARK   17  A    between atoms: C19_38  and  O10_39 
REMARK   18  A    between atoms: O10_39  and  C20_40 
REMARK   19  A    between atoms: C21_42  and  C22_43 
REMARK   20  A    between atoms: C22_43  and  O12_44 
REMARK   21  A    between atoms: C23_46  and  O13_47 
REMARK   22  A    between atoms: C24_49  and  O14_50 
REMARK   23  A    between atoms: C25_52  and  O15_53 
ROOT
HETATM    1  C10 UNL     1     114.349  44.026  92.271  1.00  0.00     0.166 A 
HETATM    2  O7  UNL     1     113.793  45.191  92.626  1.00  0.00    -0.279 OA
HETATM    3  C11 UNL     1     112.534  45.175  92.364  1.00  0.00     0.224 A 
HETATM    4  C18 UNL     1     112.201  43.956  91.803  1.00  0.00     0.161 A 
HETATM    5  C19 UNL     1     113.400  43.221  91.754  1.00  0.00     0.148 A 
ENDROOT
BRANCH   1   6
HETATM    6  C9  UNL     1     115.771  43.871  92.491  1.00  0.00     0.228 C 
HETATM    7  O6  UNL     1     116.550  44.833  92.730  1.00  0.00    -0.284 OA
BRANCH   6   8
HETATM    8  C8  UNL     1     116.405  42.515  92.417  1.00  0.00     0.093 A 
HETATM    9  S1  UNL     1     116.392  41.309  93.610  1.00  0.00    -0.065 SA
HETATM   10  C6  UNL     1     117.350  40.098  92.802  1.00  0.00     0.089 A 
HETATM   11  C5  UNL     1     117.635  40.714  91.625  1.00  0.00     0.034 A 
HETATM   12  C25 UNL     1     117.151  41.950  91.429  1.00  0.00     0.098 A 
BRANCH  10  13
HETATM   13  N1  UNL     1     117.671  38.863  93.430  1.00  0.00    -0.314 N 
ATOM     14  H1  UNL     1     118.389  38.981  94.144  1.00  0.00     0.170 HD
BRANCH  13  15
HETATM   15  C7  UNL     1     117.268  37.549  93.327  1.00  0.00     0.242 C 
HETATM   16  N2  UNL     1     117.527  36.448  93.845  1.00  0.00    -0.233 N 
ATOM     17  H2  UNL     1     118.246  36.473  94.568  1.00  0.00     0.198 HD
BRANCH  15  18
HETATM   18  O4  UNL     1     116.213  37.382  92.292  1.00  0.00    -0.331 OA
ATOM     19  H4  UNL     1     116.349  37.970  91.558  1.00  0.00     0.221 HD
ENDBRANCH  15  18
BRANCH  16  20
HETATM   20  O5  UNL     1     117.003  35.218  93.600  1.00  0.00    -0.287 OA
ATOM     21  H5  UNL     1     117.429  34.370  93.544  1.00  0.00     0.244 HD
ENDBRANCH  16  20
ENDBRANCH  13  15
ENDBRANCH  10  13
BRANCH  11  22
HETATM   22  C4  UNL     1     118.568  40.001  90.635  1.00  0.00     0.215 C 
BRANCH  22  23
HETATM   23  O3  UNL     1     117.937  39.994  89.418  1.00  0.00    -0.357 OA
BRANCH  23  24
HETATM   24  C1  UNL     1     117.162  39.156  88.763  1.00  0.00     0.259 C 
BRANCH  24  25
HETATM   25  O1  UNL     1     116.729  38.130  89.482  1.00  0.00    -0.371 OA
ATOM     26  H1  UNL     1     117.192  37.310  89.356  1.00  0.00     0.212 HD
ENDBRANCH  24  25
BRANCH  24  27
HETATM   27  C2  UNL     1     116.700  39.206  87.377  1.00  0.00     0.086 C 
BRANCH  27  28
HETATM   28  C3  UNL     1     116.139  40.596  87.078  1.00  0.00     0.169 C 
BRANCH  28  29
HETATM   29  O2  UNL     1     117.047  41.586  87.414  1.00  0.00    -0.401 OA
ATOM     30  H2  UNL     1     116.666  42.212  88.018  1.00  0.00     0.209 HD
ENDBRANCH  28  29
ENDBRANCH  27  28
ENDBRANCH  24  27
ENDBRANCH  23  24
ENDBRANCH  22  23
ENDBRANCH  11  22
BRANCH  12  31
HETATM   31  O15 UNL     1     117.353  42.745  90.240  1.00  0.00    -0.358 OA
ATOM     32  H15 UNL     1     116.743  43.389  89.900  1.00  0.00     0.217 HD
ENDBRANCH  12  31
ENDBRANCH   6   8
ENDBRANCH   1   6
BRANCH   5  33
HETATM   33  O10 UNL     1     113.462  41.973  91.265  1.00  0.00    -0.312 OA
BRANCH  33  34
HETATM   34  C20 UNL     1     114.061  41.406  90.161  1.00  0.00     0.298 C 
HETATM   35  O11 UNL     1     113.495  41.917  88.992  1.00  0.00    -0.348 OA
HETATM   36  C21 UNL     1     112.223  41.343  88.902  1.00  0.00     0.179 C 
HETATM   37  C23 UNL     1     112.219  40.079  89.731  1.00  0.00     0.182 C 
HETATM   38  C24 UNL     1     113.725  39.914  89.919  1.00  0.00     0.205 C 
BRANCH  36  39
HETATM   39  C22 UNL     1     112.023  40.894  87.474  1.00  0.00     0.198 C 
BRANCH  39  40
HETATM   40  O12 UNL     1     112.466  41.834  86.572  1.00  0.00    -0.398 OA
ATOM     41  H12 UNL     1     113.241  41.542  86.107  1.00  0.00     0.209 HD
ENDBRANCH  39  40
ENDBRANCH  36  39
BRANCH  37  42
HETATM   42  O13 UNL     1     111.740  38.982  89.011  1.00  0.00    -0.390 OA
ATOM     43  H13 UNL     1     110.946  39.188  88.533  1.00  0.00     0.210 HD
ENDBRANCH  37  42
BRANCH  38  44
HETATM   44  O14 UNL     1     114.173  39.056  90.838  1.00  0.00    -0.388 OA
ATOM     45  H14 UNL     1     113.540  38.427  91.164  1.00  0.00     0.210 HD
ENDBRANCH  38  44
ENDBRANCH  33  34
ENDBRANCH   5  33
BRANCH   3  46
HETATM   46  O8  UNL     1     111.579  46.172  92.576  1.00  0.00    -0.323 OA
BRANCH  46  47
HETATM   47  C12 UNL     1     110.413  46.106  93.310  1.00  0.00     0.131 C 
HETATM   48  C13 UNL     1     110.660  46.210  94.805  1.00  0.00     0.032 C 
HETATM   49  C14 UNL     1     109.370  45.972  95.526  1.00  0.00     0.002 C 
HETATM   50  C15 UNL     1     108.375  47.049  95.137  1.00  0.00     0.000 C 
HETATM   51  C16 UNL     1     108.989  48.023  94.154  1.00  0.00     0.002 C 
HETATM   52  C17 UNL     1     109.585  47.345  92.952  1.00  0.00     0.032 C 
ENDBRANCH  46  47
ENDBRANCH   3  46
BRANCH   4  53
HETATM   53  O9  UNL     1     110.941  43.573  91.380  1.00  0.00    -0.354 OA
ATOM     54  H9  UNL     1     110.740  42.816  90.842  1.00  0.00     0.218 HD
ENDBRANCH   4  53
TORSDOF 23
ENDMDL
MODEL 5
REMARK VINA RESULT: -7.408001054      4.491     10.679
REMARK  23 active torsions:
REMARK  status: ('A' for Active; 'I' for Inactive)
REMARK    1  A    between atoms: O1_1  and  C1_3 
REMARK    2  A    between atoms: C1_3  and  C2_4 
REMARK    3  A    between atoms: C1_3  and  O3_8 
REMARK    4  A    between atoms: C2_4  and  C3_5 
REMARK    5  A    between atoms: C3_5  and  O2_6 
REMARK    6  A    between atoms: O3_8  and  C4_9 
REMARK    7  A    between atoms: C4_9  and  C5_10 
REMARK    8  A    between atoms: C6_11  and  N1_12 
REMARK    9  A    between atoms: N1_12  and  C7_14 
REMARK   10  A    between atoms: C7_14  and  O4_15 
REMARK   11  A    between atoms: N2_17  and  O5_19 
REMARK   12  A    between atoms: C8_22  and  C9_23 
REMARK   13  A    between atoms: C9_23  and  C10_25 
REMARK   14  A    between atoms: C11_27  and  O8_28 
REMARK   15  A    between atoms: O8_28  and  C12_29 
REMARK   16  A    between atoms: C18_35  and  O9_36 
REMARK   17  A    between atoms: C19_38  and  O10_39 
REMARK   18  A    between atoms: O10_39  and  C20_40 
REMARK   19  A    between atoms: C21_42  and  C22_43 
REMARK   20  A    between atoms: C22_43  and  O12_44 
REMARK   21  A    between atoms: C23_46  and  O13_47 
REMARK   22  A    between atoms: C24_49  and  O14_50 
REMARK   23  A    between atoms: C25_52  and  O15_53 
ROOT
HETATM    1  C10 UNL     1     112.612  45.552  92.488  1.00  0.00     0.166 A 
HETATM    2  O7  UNL     1     113.893  45.252  92.736  1.00  0.00    -0.279 OA
HETATM    3  C11 UNL     1     114.135  44.037  92.393  1.00  0.00     0.224 A 
HETATM    4  C18 UNL     1     112.979  43.468  91.890  1.00  0.00     0.161 A 
HETATM    5  C19 UNL     1     112.000  44.474  91.959  1.00  0.00     0.148 A 
ENDROOT
BRANCH   1   6
HETATM    6  C9  UNL     1     112.162  46.887  92.821  1.00  0.00     0.228 C 
HETATM    7  O6  UNL     1     112.810  47.932  92.546  1.00  0.00    -0.284 OA
BRANCH   6   8
HETATM    8  C8  UNL     1     110.872  47.088  93.557  1.00  0.00     0.093 A 
HETATM    9  S1  UNL     1     110.311  46.221  94.903  1.00  0.00    -0.065 SA
HETATM   10  C6  UNL     1     108.770  47.006  95.126  1.00  0.00     0.089 A 
HETATM   11  C5  UNL     1     108.778  47.916  94.117  1.00  0.00     0.034 A 
HETATM   12  C25 UNL     1     109.853  47.958  93.315  1.00  0.00     0.098 A 
BRANCH  10  13
HETATM   13  N1  UNL     1     107.868  46.596  96.145  1.00  0.00    -0.314 N 
ATOM     14  H1  UNL     1     107.934  45.594  96.324  1.00  0.00     0.170 HD
BRANCH  13  15
HETATM   15  C7  UNL     1     106.928  47.195  96.955  1.00  0.00     0.242 C 
HETATM   16  N2  UNL     1     106.648  48.329  97.382  1.00  0.00    -0.233 N 
ATOM     17  H2  UNL     1     107.272  49.073  97.066  1.00  0.00     0.198 HD
BRANCH  15  18
HETATM   18  O4  UNL     1     105.954  46.204  97.486  1.00  0.00    -0.331 OA
ATOM     19  H4  UNL     1     105.123  46.254  97.028  1.00  0.00     0.221 HD
ENDBRANCH  15  18
BRANCH  16  20
HETATM   20  O5  UNL     1     105.644  48.735  98.203  1.00  0.00    -0.287 OA
ATOM     21  H5  UNL     1     104.779  48.366  98.343  1.00  0.00     0.244 HD
ENDBRANCH  16  20
ENDBRANCH  13  15
ENDBRANCH  10  13
BRANCH  11  22
HETATM   22  C4  UNL     1     107.521  48.772  93.897  1.00  0.00     0.215 C 
BRANCH  22  23
HETATM   23  O3  UNL     1     106.438  47.950  94.064  1.00  0.00    -0.357 OA
BRANCH  23  24
HETATM   24  C1  UNL     1     105.136  48.114  94.173  1.00  0.00     0.259 C 
BRANCH  24  25
HETATM   25  O1  UNL     1     104.765  48.927  95.152  1.00  0.00    -0.371 OA
ATOM     26  H1  UNL     1     104.038  49.507  94.957  1.00  0.00     0.212 HD
ENDBRANCH  24  25
BRANCH  24  27
HETATM   27  C2  UNL     1     104.057  47.553  93.364  1.00  0.00     0.086 C 
BRANCH  27  28
HETATM   28  C3  UNL     1     103.541  48.618  92.395  1.00  0.00     0.169 C 
BRANCH  28  29
HETATM   29  O2  UNL     1     102.644  49.470  93.018  1.00  0.00    -0.401 OA
ATOM     30  H2  UNL     1     101.818  49.034  93.188  1.00  0.00     0.209 HD
ENDBRANCH  28  29
ENDBRANCH  27  28
ENDBRANCH  24  27
ENDBRANCH  23  24
ENDBRANCH  22  23
ENDBRANCH  11  22
BRANCH  12  31
HETATM   31  O15 UNL     1     110.027  48.861  92.202  1.00  0.00    -0.358 OA
ATOM     32  H15 UNL     1     110.711  48.797  91.545  1.00  0.00     0.217 HD
ENDBRANCH  12  31
ENDBRANCH   6   8
ENDBRANCH   1   6
BRANCH   5  33
HETATM   33  O10 UNL     1     110.736  44.281  91.550  1.00  0.00    -0.312 OA
BRANCH  33  34
HETATM   34  C20 UNL     1     109.913  44.922  90.649  1.00  0.00     0.298 C 
HETATM   35  O11 UNL     1     109.045  45.785  91.319  1.00  0.00    -0.348 OA
HETATM   36  C21 UNL     1     108.112  44.964  91.961  1.00  0.00     0.179 C 
HETATM   37  C23 UNL     1     108.095  43.629  91.252  1.00  0.00     0.182 C 
HETATM   38  C24 UNL     1     108.841  44.027  89.980  1.00  0.00     0.205 C 
BRANCH  36  39
HETATM   39  C22 UNL     1     106.743  45.561  91.736  1.00  0.00     0.198 C 
BRANCH  39  40
HETATM   40  O12 UNL     1     106.817  46.838  91.229  1.00  0.00    -0.398 OA
ATOM     41  H12 UNL     1     106.220  47.430  91.672  1.00  0.00     0.209 HD
ENDBRANCH  39  40
ENDBRANCH  36  39
BRANCH  37  42
HETATM   42  O13 UNL     1     106.801  43.238  90.901  1.00  0.00    -0.390 OA
ATOM     43  H13 UNL     1     106.292  43.960  90.554  1.00  0.00     0.210 HD
ENDBRANCH  37  42
BRANCH  38  44
HETATM   44  O14 UNL     1     109.299  43.069  89.171  1.00  0.00    -0.388 OA
ATOM     45  H14 UNL     1     109.536  42.249  89.589  1.00  0.00     0.210 HD
ENDBRANCH  38  44
ENDBRANCH  33  34
ENDBRANCH   5  33
BRANCH   3  46
HETATM   46  O8  UNL     1     115.332  43.322  92.472  1.00  0.00    -0.323 OA
BRANCH  46  47
HETATM   47  C12 UNL     1     115.585  42.134  93.127  1.00  0.00     0.131 C 
HETATM   48  C13 UNL     1     116.102  41.054  92.193  1.00  0.00     0.032 C 
HETATM   49  C14 UNL     1     116.197  39.766  92.950  1.00  0.00     0.002 C 
HETATM   50  C15 UNL     1     117.193  39.925  94.083  1.00  0.00     0.000 C 
HETATM   51  C16 UNL     1     117.780  41.322  94.094  1.00  0.00     0.002 C 
HETATM   52  C17 UNL     1     116.731  42.398  94.111  1.00  0.00     0.032 C 
ENDBRANCH  46  47
ENDBRANCH   3  46
BRANCH   4  53
HETATM   53  O9  UNL     1     112.847  42.170  91.430  1.00  0.00    -0.354 OA
ATOM     54  H9  UNL     1     113.555  41.603  91.148  1.00  0.00     0.218 HD
ENDBRANCH   4  53
TORSDOF 23
ENDMDL
