MODEL 1
REMARK VINA RESULT: -4.982779535      0.000      0.000
REMARK  6 active torsions:
REMARK  status: ('A' for Active; 'I' for Inactive)
REMARK    1  A    between atoms: C2_2  and  C3_3 
REMARK    2  A    between atoms: C3_3  and  O1_4 
REMARK    3  A    between atoms: O1_4  and  C4_5 
REMARK    4  A    between atoms: C4_5  and  C5_6 
REMARK    5  A    between atoms: C6_7  and  C7_8 
REMARK    6  A    between atoms: C7_8  and  O2_9 
ROOT
HETATM    1  C5  UNL     1      23.230  36.208  60.452  1.00  0.00    -0.002 C 
HETATM    2  C6  UNL     1      24.392  36.844  60.535  1.00  0.00     0.008 C 
ENDROOT
BRANCH   1   3
HETATM    3  C4  UNL     1      22.135  36.582  61.362  1.00  0.00     0.195 C 
BRANCH   3   4
HETATM    4  O1  UNL     1      21.303  37.510  60.718  1.00  0.00    -0.384 OA
BRANCH   4   5
HETATM    5  C3  UNL     1      21.425  38.723  61.404  1.00  0.00     0.194 C 
BRANCH   5   6
HETATM    6  C2  UNL     1      22.108  39.705  60.528  1.00  0.00    -0.011 C 
HETATM    7  C1  UNL     1      23.243  40.241  60.920  1.00  0.00     0.009 C 
ENDBRANCH   5   6
ENDBRANCH   4   5
ENDBRANCH   3   4
ENDBRANCH   1   3
BRANCH   2   8
HETATM    8  C7  UNL     1      25.474  36.437  59.597  1.00  0.00     0.076 A 
HETATM    9  C8  UNL     1      26.840  37.028  59.753  1.00  0.00     0.045 A 
HETATM   10  C9  UNL     1      25.944  37.496  58.648  1.00  0.00     0.045 A 
BRANCH   8  11
HETATM   11  O2  UNL     1      25.347  35.115  59.152  1.00  0.00    -0.386 OA
ATOM     12  H2  UNL     1      24.920  35.046  58.306  1.00  0.00     0.211 HD
ENDBRANCH   8  11
ENDBRANCH   2   8
TORSDOF 6
ENDMDL
MODEL 2
REMARK VINA RESULT: -4.893418872      1.154      4.285
REMARK  6 active torsions:
REMARK  status: ('A' for Active; 'I' for Inactive)
REMARK    1  A    between atoms: C2_2  and  C3_3 
REMARK    2  A    between atoms: C3_3  and  O1_4 
REMARK    3  A    between atoms: O1_4  and  C4_5 
REMARK    4  A    between atoms: C4_5  and  C5_6 
REMARK    5  A    between atoms: C6_7  and  C7_8 
REMARK    6  A    between atoms: C7_8  and  O2_9 
ROOT
HETATM    1  C5  UNL     1      23.109  36.846  60.554  1.00  0.00    -0.002 C 
HETATM    2  C6  UNL     1      23.310  37.705  61.546  1.00  0.00     0.008 C 
ENDROOT
BRANCH   1   3
HETATM    3  C4  UNL     1      23.699  35.499  60.634  1.00  0.00     0.195 C 
BRANCH   3   4
HETATM    4  O1  UNL     1      25.089  35.618  60.784  1.00  0.00    -0.384 OA
BRANCH   4   5
HETATM    5  C3  UNL     1      25.609  35.996  59.542  1.00  0.00     0.194 C 
BRANCH   5   6
HETATM    6  C2  UNL     1      26.656  37.025  59.751  1.00  0.00    -0.011 C 
HETATM    7  C1  UNL     1      26.479  38.234  59.267  1.00  0.00     0.009 C 
ENDBRANCH   5   6
ENDBRANCH   4   5
ENDBRANCH   3   4
ENDBRANCH   1   3
BRANCH   2   8
HETATM    8  C7  UNL     1      22.697  39.056  61.427  1.00  0.00     0.076 A 
HETATM    9  C8  UNL     1      23.358  40.087  60.566  1.00  0.00     0.045 A 
HETATM   10  C9  UNL     1      23.468  40.176  62.056  1.00  0.00     0.045 A 
BRANCH   8  11
HETATM   11  O2  UNL     1      21.301  39.037  61.523  1.00  0.00    -0.386 OA
ATOM     12  H2  UNL     1      20.979  39.375  62.351  1.00  0.00     0.211 HD
ENDBRANCH   8  11
ENDBRANCH   2   8
TORSDOF 6
ENDMDL
MODEL 3
REMARK VINA RESULT: -4.833398193      1.781      4.445
REMARK  6 active torsions:
REMARK  status: ('A' for Active; 'I' for Inactive)
REMARK    1  A    between atoms: C2_2  and  C3_3 
REMARK    2  A    between atoms: C3_3  and  O1_4 
REMARK    3  A    between atoms: O1_4  and  C4_5 
REMARK    4  A    between atoms: C4_5  and  C5_6 
REMARK    5  A    between atoms: C6_7  and  C7_8 
REMARK    6  A    between atoms: C7_8  and  O2_9 
ROOT
HETATM    1  C5  UNL     1      24.603  37.077  61.688  1.00  0.00    -0.002 C 
HETATM    2  C6  UNL     1      23.652  38.002  61.708  1.00  0.00     0.008 C 
ENDROOT
BRANCH   1   3
HETATM    3  C4  UNL     1      25.976  37.445  62.071  1.00  0.00     0.195 C 
BRANCH   3   4
HETATM    4  O1  UNL     1      26.555  38.192  61.034  1.00  0.00    -0.384 OA
BRANCH   4   5
HETATM    5  C3  UNL     1      26.792  37.315  59.972  1.00  0.00     0.194 C 
BRANCH   5   6
HETATM    6  C2  UNL     1      26.453  37.995  58.699  1.00  0.00    -0.011 C 
HETATM    7  C1  UNL     1      25.200  38.040  58.305  1.00  0.00     0.009 C 
ENDBRANCH   5   6
ENDBRANCH   4   5
ENDBRANCH   3   4
ENDBRANCH   1   3
BRANCH   2   8
HETATM    8  C7  UNL     1      22.276  37.591  61.313  1.00  0.00     0.076 A 
HETATM    9  C8  UNL     1      21.730  38.035  59.993  1.00  0.00     0.045 A 
HETATM   10  C9  UNL     1      21.261  38.691  61.254  1.00  0.00     0.045 A 
BRANCH   8  11
HETATM   11  O2  UNL     1      21.911  36.338  61.819  1.00  0.00    -0.386 OA
ATOM     12  H2  UNL     1      21.926  36.300  62.769  1.00  0.00     0.211 HD
ENDBRANCH   8  11
ENDBRANCH   2   8
TORSDOF 6
ENDMDL
MODEL 4
REMARK VINA RESULT: -4.826550847      1.573      2.633
REMARK  6 active torsions:
REMARK  status: ('A' for Active; 'I' for Inactive)
REMARK    1  A    between atoms: C2_2  and  C3_3 
REMARK    2  A    between atoms: C3_3  and  O1_4 
REMARK    3  A    between atoms: O1_4  and  C4_5 
REMARK    4  A    between atoms: C4_5  and  C5_6 
REMARK    5  A    between atoms: C6_7  and  C7_8 
REMARK    6  A    between atoms: C7_8  and  O2_9 
ROOT
HETATM    1  C5  UNL     1      24.149  39.319  59.843  1.00  0.00    -0.002 C 
HETATM    2  C6  UNL     1      25.208  38.608  60.209  1.00  0.00     0.008 C 
ENDROOT
BRANCH   1   3
HETATM    3  C4  UNL     1      23.561  40.280  60.791  1.00  0.00     0.195 C 
BRANCH   3   4
HETATM    4  O1  UNL     1      22.707  39.593  61.667  1.00  0.00    -0.384 OA
BRANCH   4   5
HETATM    5  C3  UNL     1      21.749  38.941  60.886  1.00  0.00     0.194 C 
BRANCH   5   6
HETATM    6  C2  UNL     1      21.510  37.588  61.445  1.00  0.00    -0.011 C 
HETATM    7  C1  UNL     1      22.029  36.540  60.844  1.00  0.00     0.009 C 
ENDBRANCH   5   6
ENDBRANCH   4   5
ENDBRANCH   3   4
ENDBRANCH   1   3
BRANCH   2   8
HETATM    8  C7  UNL     1      25.772  37.647  59.222  1.00  0.00     0.076 A 
HETATM    9  C8  UNL     1      25.674  36.178  59.492  1.00  0.00     0.045 A 
HETATM   10  C9  UNL     1      26.981  36.886  59.674  1.00  0.00     0.045 A 
BRANCH   8  11
HETATM   11  O2  UNL     1      25.697  38.107  57.901  1.00  0.00    -0.386 OA
ATOM     12  H2  UNL     1      26.377  37.748  57.343  1.00  0.00     0.211 HD
ENDBRANCH   8  11
ENDBRANCH   2   8
TORSDOF 6
ENDMDL
MODEL 5
REMARK VINA RESULT: -4.753872788      1.457      1.860
REMARK  6 active torsions:
REMARK  status: ('A' for Active; 'I' for Inactive)
REMARK    1  A    between atoms: C2_2  and  C3_3 
REMARK    2  A    between atoms: C3_3  and  O1_4 
REMARK    3  A    between atoms: O1_4  and  C4_5 
REMARK    4  A    between atoms: C4_5  and  C5_6 
REMARK    5  A    between atoms: C6_7  and  C7_8 
REMARK    6  A    between atoms: C7_8  and  O2_9 
ROOT
HETATM    1  C5  UNL     1      24.453  36.655  60.527  1.00  0.00    -0.002 C 
HETATM    2  C6  UNL     1      25.416  36.297  59.688  1.00  0.00     0.008 C 
ENDROOT
BRANCH   1   3
HETATM    3  C4  UNL     1      23.296  35.765  60.721  1.00  0.00     0.195 C 
BRANCH   3   4
HETATM    4  O1  UNL     1      22.344  36.422  61.516  1.00  0.00    -0.384 OA
BRANCH   4   5
HETATM    5  C3  UNL     1      22.653  37.785  61.493  1.00  0.00     0.194 C 
BRANCH   5   6
HETATM    6  C2  UNL     1      21.402  38.560  61.308  1.00  0.00    -0.011 C 
HETATM    7  C1  UNL     1      20.731  38.443  60.184  1.00  0.00     0.009 C 
ENDBRANCH   5   6
ENDBRANCH   4   5
ENDBRANCH   3   4
ENDBRANCH   1   3
BRANCH   2   8
HETATM    8  C7  UNL     1      26.569  37.224  59.520  1.00  0.00     0.076 A 
HETATM    9  C8  UNL     1      26.423  38.656  59.928  1.00  0.00     0.045 A 
HETATM   10  C9  UNL     1      26.402  38.287  58.477  1.00  0.00     0.045 A 
BRANCH   8  11
HETATM   11  O2  UNL     1      27.809  36.592  59.671  1.00  0.00    -0.386 OA
ATOM     12  H2  UNL     1      28.442  36.848  59.009  1.00  0.00     0.211 HD
ENDBRANCH   8  11
ENDBRANCH   2   8
TORSDOF 6
ENDMDL
