MODEL 1
REMARK VINA RESULT: -7.365275479      0.000      0.000
REMARK  8 active torsions:
REMARK  status: ('A' for Active; 'I' for Inactive)
REMARK    1  A    between atoms: N1_1  and  C1_4 
REMARK    2  A    between atoms: C3_8  and  N3_9 
REMARK    3  A    between atoms: N3_9  and  N4_10 
REMARK    4  A    between atoms: N3_9  and  C4_13 
REMARK    5  A    between atoms: C4_13  and  C5_14 
REMARK    6  A    between atoms: C5_14  and  N5_15 
REMARK    7  A    between atoms: C6_21  and  N7_22 
REMARK    8  A    between atoms: N10_32  and  N11_33 
ROOT
HETATM    1  C1  UNL     1      23.677  -1.558  10.677  1.00  0.00     0.171 A 
HETATM    2  N2  UNL     1      22.506  -1.371  11.339  1.00  0.00    -0.332 N 
ATOM      3  H2  UNL     1      22.427  -1.630  12.323  1.00  0.00     0.168 HD
HETATM    4  C2  UNL     1      21.465  -0.850  10.703  1.00  0.00     0.127 A 
HETATM    5  C3  UNL     1      20.280  -0.677  11.377  1.00  0.00     0.168 A 
HETATM    6  N6  UNL     1      19.241  -0.153  10.653  1.00  0.00    -0.173 N 
ATOM      7  H6  UNL     1      18.339  -0.007  11.107  1.00  0.00     0.186 HD
HETATM    8  C6  UNL     1      19.387   0.171   9.360  1.00  0.00     0.683 A 
HETATM    9  N9  UNL     1      20.559  -0.007   8.726  1.00  0.00    -0.172 N 
ATOM     10  H9  UNL     1      20.641   0.249   7.743  1.00  0.00     0.186 HD
HETATM   11  C11 UNL     1      21.622  -0.516   9.366  1.00  0.00     0.176 A 
HETATM   12  N10 UNL     1      22.761  -0.683   8.676  1.00  0.00    -0.204 N 
HETATM   13  C12 UNL     1      23.802  -1.211   9.339  1.00  0.00     0.311 A 
HETATM   14  O1  UNL     1      24.907  -1.397   8.750  1.00  0.00    -0.262 OA
ENDROOT
BRANCH   5  15
HETATM   15  N3  UNL     1      20.086  -0.948  12.751  1.00  0.00    -0.279 N 
BRANCH  15  16
HETATM   16  N4  UNL     1      20.753  -2.055  13.288  1.00  0.00    -0.341 N 
ATOM     17  H42 UNL     1      21.362  -2.578  12.658  1.00  0.00     0.177 HD
ATOM     18  H41 UNL     1      20.589  -2.269  14.271  1.00  0.00     0.177 HD
ENDBRANCH  15  16
BRANCH  15  19
HETATM   19  C4  UNL     1      19.261  -0.184  13.652  1.00  0.00     0.177 C 
BRANCH  19  20
HETATM   20  C5  UNL     1      19.142  -0.682  15.040  1.00  0.00     0.251 C 
BRANCH  20  21
HETATM   21  N5  UNL     1      17.787  -0.439  15.489  1.00  0.00    -0.078 N 
ATOM     22  H53 UNL     1      17.649  -0.678  16.471  1.00  0.00     0.274 HD
ATOM     23  H52 UNL     1      17.566   0.554  15.558  1.00  0.00     0.274 HD
ATOM     24  H51 UNL     1      17.153  -0.942  14.868  1.00  0.00     0.274 HD
ENDBRANCH  20  21
ENDBRANCH  19  20
ENDBRANCH  15  19
ENDBRANCH   5  15
BRANCH   8  25
HETATM   25  N7  UNL     1      18.309   0.713   8.617  1.00  0.00    -0.214 N 
HETATM   26  C7  UNL     1      17.633   1.936   9.070  1.00  0.00     0.160 C 
HETATM   27  C8  UNL     1      16.651   2.331   8.012  1.00  0.00     0.134 C 
HETATM   28  N8  UNL     1      15.713   1.279   7.758  1.00  0.00    -0.418 N 
HETATM   29  C9  UNL     1      16.297  -0.003   7.524  1.00  0.00     0.134 C 
ATOM     30  H8  UNL     1      14.705   1.433   7.745  1.00  0.00     0.153 HD
HETATM   31  C10 UNL     1      17.815   0.113   7.394  1.00  0.00     0.160 C 
ENDBRANCH   8  25
BRANCH   1  32
HETATM   32  N1  UNL     1      24.686  -2.059  11.287  1.00  0.00    -0.381 N 
ATOM     33  H12 UNL     1      24.865  -1.788  12.254  1.00  0.00     0.157 HD
ATOM     34  H11 UNL     1      25.297  -2.721  10.807  1.00  0.00     0.157 HD
ENDBRANCH   1  32
BRANCH  12  35
HETATM   35  N11 UNL     1      22.935  -0.353   7.333  1.00  0.00    -0.334 N 
ATOM     36 2H11 UNL     1      22.522   0.515   6.993  1.00  0.00     0.177 HD
ATOM     37 1H11 UNL     1      23.451  -0.916   6.655  1.00  0.00     0.177 HD
ENDBRANCH  12  35
TORSDOF 8
ENDMDL
MODEL 2
REMARK VINA RESULT: -5.581020359      2.478      3.526
REMARK  8 active torsions:
REMARK  status: ('A' for Active; 'I' for Inactive)
REMARK    1  A    between atoms: N1_1  and  C1_4 
REMARK    2  A    between atoms: C3_8  and  N3_9 
REMARK    3  A    between atoms: N3_9  and  N4_10 
REMARK    4  A    between atoms: N3_9  and  C4_13 
REMARK    5  A    between atoms: C4_13  and  C5_14 
REMARK    6  A    between atoms: C5_14  and  N5_15 
REMARK    7  A    between atoms: C6_21  and  N7_22 
REMARK    8  A    between atoms: N10_32  and  N11_33 
ROOT
HETATM    1  C1  UNL     1      25.570  -2.186   8.164  1.00  0.00     0.171 A 
HETATM    2  N2  UNL     1      24.605  -2.747   8.937  1.00  0.00    -0.332 N 
ATOM      3  H2  UNL     1      24.781  -3.631   9.415  1.00  0.00     0.168 HD
HETATM    4  C2  UNL     1      23.432  -2.142   9.069  1.00  0.00     0.127 A 
HETATM    5  C3  UNL     1      22.456  -2.723   9.843  1.00  0.00     0.168 A 
HETATM    6  N6  UNL     1      21.263  -2.055   9.919  1.00  0.00    -0.173 N 
ATOM      7  H6  UNL     1      20.506  -2.446  10.478  1.00  0.00     0.186 HD
HETATM    8  C6  UNL     1      21.072  -0.895   9.271  1.00  0.00     0.683 A 
HETATM    9  N9  UNL     1      22.046  -0.348   8.523  1.00  0.00    -0.172 N 
ATOM     10  H9  UNL     1      21.873   0.534   8.042  1.00  0.00     0.186 HD
HETATM   11  C11 UNL     1      23.240  -0.944   8.398  1.00  0.00     0.176 A 
HETATM   12  N10 UNL     1      24.167  -0.356   7.625  1.00  0.00    -0.204 N 
HETATM   13  C12 UNL     1      25.348  -0.984   7.506  1.00  0.00     0.311 A 
HETATM   14  O1  UNL     1      26.267  -0.487   6.793  1.00  0.00    -0.262 OA
ENDROOT
BRANCH   5  15
HETATM   15  N3  UNL     1      22.622  -3.912  10.591  1.00  0.00    -0.279 N 
BRANCH  15  16
HETATM   16  N4  UNL     1      21.888  -5.032  10.187  1.00  0.00    -0.341 N 
ATOM     17  H42 UNL     1      21.404  -4.970   9.291  1.00  0.00     0.177 HD
ATOM     18  H41 UNL     1      21.883  -5.839  10.811  1.00  0.00     0.177 HD
ENDBRANCH  15  16
BRANCH  15  19
HETATM   19  C4  UNL     1      23.480  -4.073  11.736  1.00  0.00     0.177 C 
BRANCH  19  20
HETATM   20  C5  UNL     1      23.060  -5.057  12.759  1.00  0.00     0.251 C 
BRANCH  20  21
HETATM   21  N5  UNL     1      22.123  -4.405  13.650  1.00  0.00    -0.078 N 
ATOM     22  H53 UNL     1      21.820  -5.009  14.414  1.00  0.00     0.274 HD
ATOM     23  H52 UNL     1      22.558  -3.676  14.216  1.00  0.00     0.274 HD
ATOM     24  H51 UNL     1      21.344  -4.056  13.089  1.00  0.00     0.274 HD
ENDBRANCH  20  21
ENDBRANCH  19  20
ENDBRANCH  15  19
ENDBRANCH   5  15
BRANCH   8  25
HETATM   25  N7  UNL     1      19.836  -0.208   9.354  1.00  0.00    -0.214 N 
HETATM   26  C7  UNL     1      18.741  -0.532   8.431  1.00  0.00     0.160 C 
HETATM   27  C8  UNL     1      17.537   0.248   8.861  1.00  0.00     0.134 C 
HETATM   28  N8  UNL     1      17.810   1.653   8.874  1.00  0.00    -0.418 N 
HETATM   29  C9  UNL     1      18.996   2.028   9.575  1.00  0.00     0.134 C 
ATOM     30  H8  UNL     1      17.204   2.335   8.417  1.00  0.00     0.153 HD
HETATM   31  C10 UNL     1      19.578   0.833  10.328  1.00  0.00     0.160 C 
ENDBRANCH   8  25
BRANCH   1  32
HETATM   32  N1  UNL     1      26.706  -2.766   8.033  1.00  0.00    -0.381 N 
ATOM     33  H12 UNL     1      26.984  -3.469   8.718  1.00  0.00     0.157 HD
ATOM     34  H11 UNL     1      27.317  -2.523   7.254  1.00  0.00     0.157 HD
ENDBRANCH   1  32
BRANCH  12  35
HETATM   35  N11 UNL     1      23.991   0.848   6.944  1.00  0.00    -0.334 N 
ATOM     36 2H11 UNL     1      23.511   1.608   7.426  1.00  0.00     0.177 HD
ATOM     37 1H11 UNL     1      24.310   1.032   5.992  1.00  0.00     0.177 HD
ENDBRANCH  12  35
TORSDOF 8
ENDMDL
MODEL 3
REMARK VINA RESULT: -5.157411844      2.354      5.537
REMARK  8 active torsions:
REMARK  status: ('A' for Active; 'I' for Inactive)
REMARK    1  A    between atoms: N1_1  and  C1_4 
REMARK    2  A    between atoms: C3_8  and  N3_9 
REMARK    3  A    between atoms: N3_9  and  N4_10 
REMARK    4  A    between atoms: N3_9  and  C4_13 
REMARK    5  A    between atoms: C4_13  and  C5_14 
REMARK    6  A    between atoms: C5_14  and  N5_15 
REMARK    7  A    between atoms: C6_21  and  N7_22 
REMARK    8  A    between atoms: N10_32  and  N11_33 
ROOT
HETATM    1  C1  UNL     1      17.578  -0.380   9.001  1.00  0.00     0.171 A 
HETATM    2  N2  UNL     1      18.490  -0.626   9.976  1.00  0.00    -0.332 N 
ATOM      3  H2  UNL     1      18.190  -0.721  10.946  1.00  0.00     0.168 HD
HETATM    4  C2  UNL     1      19.774  -0.742   9.662  1.00  0.00     0.127 A 
HETATM    5  C3  UNL     1      20.693  -0.977  10.657  1.00  0.00     0.168 A 
HETATM    6  N6  UNL     1      22.002  -1.066  10.266  1.00  0.00    -0.173 N 
ATOM      7  H6  UNL     1      22.723  -1.237  10.966  1.00  0.00     0.186 HD
HETATM    8  C6  UNL     1      22.355  -0.932   8.978  1.00  0.00     0.683 A 
HETATM    9  N9  UNL     1      21.434  -0.704   8.026  1.00  0.00    -0.172 N 
ATOM     10  H9  UNL     1      21.731  -0.607   7.055  1.00  0.00     0.186 HD
HETATM   11  C11 UNL     1      20.133  -0.603   8.330  1.00  0.00     0.176 A 
HETATM   12  N10 UNL     1      19.263  -0.361   7.337  1.00  0.00    -0.204 N 
HETATM   13  C12 UNL     1      17.968  -0.248   7.675  1.00  0.00     0.311 A 
HETATM   14  O1  UNL     1      17.094  -0.019   6.790  1.00  0.00    -0.262 OA
ENDROOT
BRANCH   5  15
HETATM   15  N3  UNL     1      20.372  -1.183  12.020  1.00  0.00    -0.279 N 
BRANCH  15  16
HETATM   16  N4  UNL     1      21.116  -2.141  12.717  1.00  0.00    -0.341 N 
ATOM     17  H42 UNL     1      21.738  -2.734  12.167  1.00  0.00     0.177 HD
ATOM     18  H41 UNL     1      20.992  -2.185  13.729  1.00  0.00     0.177 HD
ENDBRANCH  15  16
BRANCH  15  19
HETATM   19  C4  UNL     1      19.344  -0.493  12.755  1.00  0.00     0.177 C 
BRANCH  19  20
HETATM   20  C5  UNL     1      19.484  -0.452  14.228  1.00  0.00     0.251 C 
BRANCH  20  21
HETATM   21  N5  UNL     1      18.327   0.230  14.770  1.00  0.00    -0.078 N 
ATOM     22  H53 UNL     1      17.456  -0.053  14.320  1.00  0.00     0.274 HD
ATOM     23  H52 UNL     1      18.096  -0.074  15.716  1.00  0.00     0.274 HD
ATOM     24  H51 UNL     1      18.495   1.234  14.709  1.00  0.00     0.274 HD
ENDBRANCH  20  21
ENDBRANCH  19  20
ENDBRANCH  15  19
ENDBRANCH   5  15
BRANCH   8  25
HETATM   25  N7  UNL     1      23.711  -1.025   8.579  1.00  0.00    -0.214 N 
HETATM   26  C7  UNL     1      24.192  -0.296   7.399  1.00  0.00     0.160 C 
HETATM   27  C8  UNL     1      25.676  -0.475   7.325  1.00  0.00     0.134 C 
HETATM   28  N8  UNL     1      26.026  -1.863   7.260  1.00  0.00    -0.418 N 
HETATM   29  C9  UNL     1      25.414  -2.684   8.256  1.00  0.00     0.134 C 
ATOM     30  H8  UNL     1      26.663  -2.236   6.557  1.00  0.00     0.153 HD
HETATM   31  C10 UNL     1      24.687  -1.825   9.290  1.00  0.00     0.160 C 
ENDBRANCH   8  25
BRANCH   1  32
HETATM   32  N1  UNL     1      16.336  -0.268   9.297  1.00  0.00    -0.381 N 
ATOM     33  H12 UNL     1      15.645  -0.754   8.725  1.00  0.00     0.157 HD
ATOM     34  H11 UNL     1      16.050   0.299  10.096  1.00  0.00     0.157 HD
ENDBRANCH   1  32
BRANCH  12  35
HETATM   35  N11 UNL     1      19.606  -0.219   5.993  1.00  0.00    -0.334 N 
ATOM     36 2H11 UNL     1      18.998  -0.644   5.294  1.00  0.00     0.177 HD
ATOM     37 1H11 UNL     1      20.425   0.284   5.649  1.00  0.00     0.177 HD
ENDBRANCH  12  35
TORSDOF 8
ENDMDL
MODEL 4
REMARK VINA RESULT: -4.689544602      1.255      1.295
REMARK  8 active torsions:
REMARK  status: ('A' for Active; 'I' for Inactive)
REMARK    1  A    between atoms: N1_1  and  C1_4 
REMARK    2  A    between atoms: C3_8  and  N3_9 
REMARK    3  A    between atoms: N3_9  and  N4_10 
REMARK    4  A    between atoms: N3_9  and  C4_13 
REMARK    5  A    between atoms: C4_13  and  C5_14 
REMARK    6  A    between atoms: C5_14  and  N5_15 
REMARK    7  A    between atoms: C6_21  and  N7_22 
REMARK    8  A    between atoms: N10_32  and  N11_33 
ROOT
HETATM    1  C1  UNL     1      22.810  -2.885  11.423  1.00  0.00     0.171 A 
HETATM    2  N2  UNL     1      21.832  -2.156  12.020  1.00  0.00    -0.332 N 
ATOM      3  H2  UNL     1      21.755  -2.139  13.037  1.00  0.00     0.168 HD
HETATM    4  C2  UNL     1      20.977  -1.467  11.276  1.00  0.00     0.127 A 
HETATM    5  C3  UNL     1      19.982  -0.742  11.889  1.00  0.00     0.168 A 
HETATM    6  N6  UNL     1      19.123  -0.071  11.060  1.00  0.00    -0.173 N 
ATOM      7  H6  UNL     1      18.365   0.479  11.465  1.00  0.00     0.186 HD
HETATM    8  C6  UNL     1      19.258  -0.123   9.726  1.00  0.00     0.683 A 
HETATM    9  N9  UNL     1      20.243  -0.837   9.155  1.00  0.00    -0.172 N 
ATOM     10  H9  UNL     1      20.322  -0.858   8.139  1.00  0.00     0.186 HD
HETATM   11  C11 UNL     1      21.122  -1.523   9.899  1.00  0.00     0.176 A 
HETATM   12  N10 UNL     1      22.074  -2.230   9.269  1.00  0.00    -0.204 N 
HETATM   13  C12 UNL     1      22.930  -2.920  10.041  1.00  0.00     0.311 A 
HETATM   14  O1  UNL     1      23.852  -3.608   9.514  1.00  0.00    -0.262 OA
ENDROOT
BRANCH   5  15
HETATM   15  N3  UNL     1      19.827  -0.607  13.288  1.00  0.00    -0.279 N 
BRANCH  15  16
HETATM   16  N4  UNL     1      20.831   0.078  13.982  1.00  0.00    -0.341 N 
ATOM     17  H42 UNL     1      21.614  -0.477  14.330  1.00  0.00     0.177 HD
ATOM     18  H41 UNL     1      20.718   1.085  14.095  1.00  0.00     0.177 HD
ENDBRANCH  15  16
BRANCH  15  19
HETATM   19  C4  UNL     1      18.725  -1.113  14.065  1.00  0.00     0.177 C 
BRANCH  19  20
HETATM   20  C5  UNL     1      18.383  -0.379  15.304  1.00  0.00     0.251 C 
BRANCH  20  21
HETATM   21  N5  UNL     1      17.062  -0.797  15.723  1.00  0.00    -0.078 N 
ATOM     22  H53 UNL     1      16.323  -0.199  15.353  1.00  0.00     0.274 HD
ATOM     23  H52 UNL     1      16.765  -1.668  15.282  1.00  0.00     0.274 HD
ATOM     24  H51 UNL     1      17.055  -0.850  16.742  1.00  0.00     0.274 HD
ENDBRANCH  20  21
ENDBRANCH  19  20
ENDBRANCH  15  19
ENDBRANCH   5  15
BRANCH   8  25
HETATM   25  N7  UNL     1      18.366   0.575   8.875  1.00  0.00    -0.214 N 
HETATM   26  C7  UNL     1      17.790   1.859   9.292  1.00  0.00     0.160 C 
HETATM   27  C8  UNL     1      17.017   2.409   8.133  1.00  0.00     0.134 C 
HETATM   28  N8  UNL     1      16.001   1.494   7.709  1.00  0.00    -0.418 N 
HETATM   29  C9  UNL     1      16.450   0.155   7.493  1.00  0.00     0.134 C 
ATOM     30  H8  UNL     1      15.031   1.775   7.570  1.00  0.00     0.153 HD
HETATM   31  C10 UNL     1      17.975   0.080   7.571  1.00  0.00     0.160 C 
ENDBRANCH   8  25
BRANCH   1  32
HETATM   32  N1  UNL     1      23.640  -3.552  12.136  1.00  0.00    -0.381 N 
ATOM     33  H12 UNL     1      23.468  -4.545  12.295  1.00  0.00     0.157 HD
ATOM     34  H11 UNL     1      24.458  -3.091  12.535  1.00  0.00     0.157 HD
ENDBRANCH   1  32
BRANCH  12  35
HETATM   35  N11 UNL     1      22.234  -2.298   7.886  1.00  0.00    -0.334 N 
ATOM     36 2H11 UNL     1      21.396  -2.307   7.305  1.00  0.00     0.177 HD
ATOM     37 1H11 UNL     1      23.133  -2.337   7.403  1.00  0.00     0.177 HD
ENDBRANCH  12  35
TORSDOF 8
ENDMDL
MODEL 5
REMARK VINA RESULT: -4.665690679      2.419      5.063
REMARK  8 active torsions:
REMARK  status: ('A' for Active; 'I' for Inactive)
REMARK    1  A    between atoms: N1_1  and  C1_4 
REMARK    2  A    between atoms: C3_8  and  N3_9 
REMARK    3  A    between atoms: N3_9  and  N4_10 
REMARK    4  A    between atoms: N3_9  and  C4_13 
REMARK    5  A    between atoms: C4_13  and  C5_14 
REMARK    6  A    between atoms: C5_14  and  N5_15 
REMARK    7  A    between atoms: C6_21  and  N7_22 
REMARK    8  A    between atoms: N10_32  and  N11_33 
ROOT
HETATM    1  C1  UNL     1      24.582  -2.964  10.807  1.00  0.00     0.171 A 
HETATM    2  N2  UNL     1      24.388  -2.135   9.749  1.00  0.00    -0.332 N 
ATOM      3  H2  UNL     1      25.172  -1.879   9.149  1.00  0.00     0.168 HD
HETATM    4  C2  UNL     1      23.176  -1.658   9.499  1.00  0.00     0.127 A 
HETATM    5  C3  UNL     1      22.992  -0.808   8.434  1.00  0.00     0.168 A 
HETATM    6  N6  UNL     1      21.719  -0.338   8.247  1.00  0.00    -0.173 N 
ATOM      7  H6  UNL     1      21.530   0.298   7.472  1.00  0.00     0.186 HD
HETATM    8  C6  UNL     1      20.717  -0.697   9.063  1.00  0.00     0.683 A 
HETATM    9  N9  UNL     1      20.925  -1.531  10.095  1.00  0.00    -0.172 N 
ATOM     10  H9  UNL     1      20.145  -1.787  10.699  1.00  0.00     0.186 HD
HETATM   11  C11 UNL     1      22.144  -2.032  10.345  1.00  0.00     0.176 A 
HETATM   12  N10 UNL     1      22.292  -2.850  11.400  1.00  0.00    -0.204 N 
HETATM   13  C12 UNL     1      23.527  -3.322  11.635  1.00  0.00     0.311 A 
HETATM   14  O1  UNL     1      23.740  -4.097  12.612  1.00  0.00    -0.262 OA
ENDROOT
BRANCH   5  15
HETATM   15  N3  UNL     1      23.998  -0.442   7.511  1.00  0.00    -0.279 N 
BRANCH  15  16
HETATM   16  N4  UNL     1      24.560   0.832   7.646  1.00  0.00    -0.341 N 
ATOM     17  H42 UNL     1      24.261   1.543   6.977  1.00  0.00     0.177 HD
ATOM     18  H41 UNL     1      25.231   0.971   8.402  1.00  0.00     0.177 HD
ENDBRANCH  15  16
BRANCH  15  19
HETATM   19  C4  UNL     1      24.498  -1.265   6.440  1.00  0.00     0.177 C 
BRANCH  19  20
HETATM   20  C5  UNL     1      25.377  -2.396   6.816  1.00  0.00     0.251 C 
BRANCH  20  21
HETATM   21  N5  UNL     1      26.724  -1.886   6.965  1.00  0.00    -0.078 N 
ATOM     22  H53 UNL     1      27.157  -1.651   6.072  1.00  0.00     0.274 HD
ATOM     23  H52 UNL     1      26.750  -0.955   7.379  1.00  0.00     0.274 HD
ATOM     24  H51 UNL     1      27.263  -2.570   7.498  1.00  0.00     0.274 HD
ENDBRANCH  20  21
ENDBRANCH  19  20
ENDBRANCH  15  19
ENDBRANCH   5  15
BRANCH   8  25
HETATM   25  N7  UNL     1      19.402  -0.207   8.864  1.00  0.00    -0.214 N 
HETATM   26  C7  UNL     1      18.720  -0.408   7.579  1.00  0.00     0.160 C 
HETATM   27  C8  UNL     1      17.314   0.084   7.728  1.00  0.00     0.134 C 
HETATM   28  N8  UNL     1      17.287   1.460   8.124  1.00  0.00    -0.418 N 
HETATM   29  C9  UNL     1      18.111   1.778   9.246  1.00  0.00     0.134 C 
ATOM     30  H8  UNL     1      16.724   2.160   7.641  1.00  0.00     0.153 HD
HETATM   31  C10 UNL     1      18.664   0.506   9.886  1.00  0.00     0.160 C 
ENDBRANCH   8  25
BRANCH   1  32
HETATM   32  N1  UNL     1      25.751  -3.429  11.053  1.00  0.00    -0.381 N 
ATOM     33  H12 UNL     1      26.568  -2.905  10.738  1.00  0.00     0.157 HD
ATOM     34  H11 UNL     1      25.855  -4.309  11.557  1.00  0.00     0.157 HD
ENDBRANCH   1  32
BRANCH  12  35
HETATM   35  N11 UNL     1      21.266  -3.236  12.260  1.00  0.00    -0.334 N 
ATOM     36 2H11 UNL     1      20.387  -3.553  11.850  1.00  0.00     0.177 HD
ATOM     37 1H11 UNL     1      21.324  -3.230  13.279  1.00  0.00     0.177 HD
ENDBRANCH  12  35
TORSDOF 8
ENDMDL
