MODEL 1
REMARK VINA RESULT: -6.098830389      0.000      0.000
REMARK  3 active torsions:
REMARK  status: ('A' for Active; 'I' for Inactive)
REMARK    1  A    between atoms: C6_8  and  O3_9 
REMARK    2  A    between atoms: C7_11  and  C8_12 
REMARK    3  A    between atoms: C8_12  and  O4_13 
ROOT
HETATM    1  C1  UNL     1      -7.375  54.378  10.492  1.00  0.00     0.045 C 
HETATM    2  C2  UNL     1      -6.927  53.049  11.056  1.00  0.00     0.182 C 
HETATM    3  O1  UNL     1      -6.525  52.267   9.957  1.00  0.00    -0.357 OA
HETATM    4  C3  UNL     1      -5.458  51.517  10.476  1.00  0.00     0.342 C 
HETATM    5  O2  UNL     1      -4.695  52.514  11.090  1.00  0.00    -0.328 OA
HETATM    6  C4  UNL     1      -5.679  53.155  11.881  1.00  0.00     0.195 C 
HETATM    7  C5  UNL     1      -5.746  52.394  13.172  1.00  0.00     0.105 C 
HETATM    8  C6  UNL     1      -4.965  53.314  14.102  1.00  0.00     0.154 C 
HETATM    9  C7  UNL     1      -5.267  54.646  13.498  1.00  0.00     0.177 C 
HETATM   10  O5  UNL     1      -5.336  54.450  12.148  1.00  0.00    -0.343 OA
ENDROOT
BRANCH   8  11
HETATM   11  O3  UNL     1      -5.318  53.174  15.412  1.00  0.00    -0.393 OA
ATOM     12  H3  UNL     1      -4.886  53.799  15.983  1.00  0.00     0.210 HD
ENDBRANCH   8  11
BRANCH   9  13
HETATM   13  C8  UNL     1      -6.600  55.201  13.966  1.00  0.00     0.198 C 
BRANCH  13  14
HETATM   14  O4  UNL     1      -6.502  55.786  15.227  1.00  0.00    -0.398 OA
ATOM     15  H4  UNL     1      -6.443  56.733  15.172  1.00  0.00     0.209 HD
ENDBRANCH  13  14
ENDBRANCH   9  13
TORSDOF 3
ENDMDL
MODEL 2
REMARK VINA RESULT: -5.931814519      1.530      2.258
REMARK  3 active torsions:
REMARK  status: ('A' for Active; 'I' for Inactive)
REMARK    1  A    between atoms: C6_8  and  O3_9 
REMARK    2  A    between atoms: C7_11  and  C8_12 
REMARK    3  A    between atoms: C8_12  and  O4_13 
ROOT
HETATM    1  C1  UNL     1      -6.599  52.177  11.117  1.00  0.00     0.045 C 
HETATM    2  C2  UNL     1      -5.575  52.408  12.205  1.00  0.00     0.182 C 
HETATM    3  O1  UNL     1      -4.336  51.999  11.677  1.00  0.00    -0.357 OA
HETATM    4  C3  UNL     1      -3.432  52.902  12.258  1.00  0.00     0.342 C 
HETATM    5  O2  UNL     1      -4.062  54.123  12.006  1.00  0.00    -0.328 OA
HETATM    6  C4  UNL     1      -5.361  53.862  12.506  1.00  0.00     0.195 C 
HETATM    7  C5  UNL     1      -5.319  54.172  13.974  1.00  0.00     0.105 C 
HETATM    8  C6  UNL     1      -6.007  55.530  14.012  1.00  0.00     0.154 C 
HETATM    9  C7  UNL     1      -6.945  55.403  12.857  1.00  0.00     0.177 C 
HETATM   10  O5  UNL     1      -6.294  54.663  11.911  1.00  0.00    -0.343 OA
ENDROOT
BRANCH   8  11
HETATM   11  O3  UNL     1      -6.595  55.798  15.214  1.00  0.00    -0.393 OA
ATOM     12  H3  UNL     1      -7.437  55.370  15.320  1.00  0.00     0.210 HD
ENDBRANCH   8  11
BRANCH   9  13
HETATM   13  C8  UNL     1      -8.223  54.675  13.231  1.00  0.00     0.198 C 
BRANCH  13  14
HETATM   14  O4  UNL     1      -9.073  55.479  13.988  1.00  0.00    -0.398 OA
ATOM     15  H4  UNL     1      -9.760  54.972  14.404  1.00  0.00     0.209 HD
ENDBRANCH  13  14
ENDBRANCH   9  13
TORSDOF 3
ENDMDL
MODEL 3
REMARK VINA RESULT: -5.722554354      2.064      2.833
REMARK  3 active torsions:
REMARK  status: ('A' for Active; 'I' for Inactive)
REMARK    1  A    between atoms: C6_8  and  O3_9 
REMARK    2  A    between atoms: C7_11  and  C8_12 
REMARK    3  A    between atoms: C8_12  and  O4_13 
ROOT
HETATM    1  C1  UNL     1      -2.744  53.939  13.055  1.00  0.00     0.045 C 
HETATM    2  C2  UNL     1      -3.650  52.947  12.362  1.00  0.00     0.182 C 
HETATM    3  O1  UNL     1      -2.849  51.835  12.041  1.00  0.00    -0.357 OA
HETATM    4  C3  UNL     1      -3.733  50.755  12.193  1.00  0.00     0.342 C 
HETATM    5  O2  UNL     1      -4.285  51.026  13.447  1.00  0.00    -0.328 OA
HETATM    6  C4  UNL     1      -4.692  52.371  13.275  1.00  0.00     0.195 C 
HETATM    7  C5  UNL     1      -6.063  52.323  12.669  1.00  0.00     0.105 C 
HETATM    8  C6  UNL     1      -6.936  52.627  13.879  1.00  0.00     0.154 C 
HETATM    9  C7  UNL     1      -6.024  53.506  14.670  1.00  0.00     0.177 C 
HETATM   10  O5  UNL     1      -4.761  53.027  14.472  1.00  0.00    -0.343 OA
ENDROOT
BRANCH   8  11
HETATM   11  O3  UNL     1      -8.137  53.184  13.545  1.00  0.00    -0.393 OA
ATOM     12  H3  UNL     1      -8.493  52.841  12.733  1.00  0.00     0.210 HD
ENDBRANCH   8  11
BRANCH   9  13
HETATM   13  C8  UNL     1      -6.063  54.949  14.200  1.00  0.00     0.198 C 
BRANCH  13  14
HETATM   14  O4  UNL     1      -6.444  55.815  15.223  1.00  0.00    -0.398 OA
ATOM     15  H4  UNL     1      -6.178  56.709  15.044  1.00  0.00     0.209 HD
ENDBRANCH  13  14
ENDBRANCH   9  13
TORSDOF 3
ENDMDL
MODEL 4
REMARK VINA RESULT: -5.474422339      2.658      3.852
REMARK  3 active torsions:
REMARK  status: ('A' for Active; 'I' for Inactive)
REMARK    1  A    between atoms: C6_8  and  O3_9 
REMARK    2  A    between atoms: C7_11  and  C8_12 
REMARK    3  A    between atoms: C8_12  and  O4_13 
ROOT
HETATM    1  C1  UNL     1      -2.453  50.387  12.982  1.00  0.00     0.045 C 
HETATM    2  C2  UNL     1      -1.958  51.809  12.845  1.00  0.00     0.182 C 
HETATM    3  O1  UNL     1      -0.940  51.783  11.875  1.00  0.00    -0.357 OA
HETATM    4  C3  UNL     1      -1.093  53.017  11.223  1.00  0.00     0.342 C 
HETATM    5  O2  UNL     1      -2.467  53.022  10.964  1.00  0.00    -0.328 OA
HETATM    6  C4  UNL     1      -2.982  52.729  12.249  1.00  0.00     0.195 C 
HETATM    7  C5  UNL     1      -3.101  54.042  12.966  1.00  0.00     0.105 C 
HETATM    8  C6  UNL     1      -4.596  54.307  12.859  1.00  0.00     0.154 C 
HETATM    9  C7  UNL     1      -5.130  52.912  12.852  1.00  0.00     0.177 C 
HETATM   10  O5  UNL     1      -4.219  52.156  12.170  1.00  0.00    -0.343 OA
ENDROOT
BRANCH   8  11
HETATM   11  O3  UNL     1      -5.070  55.107  13.858  1.00  0.00    -0.393 OA
ATOM     12  H3  UNL     1      -5.631  55.806  13.541  1.00  0.00     0.210 HD
ENDBRANCH   8  11
BRANCH   9  13
HETATM   13  C8  UNL     1      -5.267  52.341  14.252  1.00  0.00     0.198 C 
BRANCH  13  14
HETATM   14  O4  UNL     1      -6.382  52.854  14.912  1.00  0.00    -0.398 OA
ATOM     15  H4  UNL     1      -6.158  53.603  15.452  1.00  0.00     0.209 HD
ENDBRANCH  13  14
ENDBRANCH   9  13
TORSDOF 3
ENDMDL
MODEL 5
REMARK VINA RESULT: -5.443955288      1.851      2.942
REMARK  3 active torsions:
REMARK  status: ('A' for Active; 'I' for Inactive)
REMARK    1  A    between atoms: C6_8  and  O3_9 
REMARK    2  A    between atoms: C7_11  and  C8_12 
REMARK    3  A    between atoms: C8_12  and  O4_13 
ROOT
HETATM    1  C1  UNL     1      -4.860  51.353  11.652  1.00  0.00     0.045 C 
HETATM    2  C2  UNL     1      -4.190  52.178  12.727  1.00  0.00     0.182 C 
HETATM    3  O1  UNL     1      -2.817  52.193  12.418  1.00  0.00    -0.357 OA
HETATM    4  C3  UNL     1      -2.416  53.474  12.828  1.00  0.00     0.342 C 
HETATM    5  O2  UNL     1      -3.395  54.273  12.232  1.00  0.00    -0.328 OA
HETATM    6  C4  UNL     1      -4.574  53.627  12.676  1.00  0.00     0.195 C 
HETATM    7  C5  UNL     1      -4.897  54.212  14.019  1.00  0.00     0.105 C 
HETATM    8  C6  UNL     1      -6.027  55.169  13.664  1.00  0.00     0.154 C 
HETATM    9  C7  UNL     1      -6.645  54.458  12.505  1.00  0.00     0.177 C 
HETATM   10  O5  UNL     1      -5.619  53.863  11.828  1.00  0.00    -0.343 OA
ENDROOT
BRANCH   8  11
HETATM   11  O3  UNL     1      -6.867  55.416  14.711  1.00  0.00    -0.393 OA
ATOM     12  H3  UNL     1      -7.137  56.326  14.765  1.00  0.00     0.210 HD
ENDBRANCH   8  11
BRANCH   9  13
HETATM   13  C8  UNL     1      -7.615  53.376  12.944  1.00  0.00     0.198 C 
BRANCH  13  14
HETATM   14  O4  UNL     1      -8.787  53.915  13.470  1.00  0.00    -0.398 OA
ATOM     15  H4  UNL     1      -8.671  54.821  13.731  1.00  0.00     0.209 HD
ENDBRANCH  13  14
ENDBRANCH   9  13
TORSDOF 3
ENDMDL
