MODEL 1
REMARK VINA RESULT: -5.437074661      0.000      0.000
REMARK  3 active torsions:
REMARK  status: ('A' for Active; 'I' for Inactive)
REMARK    1  A    between atoms: O1_2  and  C2_3 
REMARK    2  A    between atoms: C3_5  and  N1_6 
REMARK    3  A    between atoms: C9_12  and  O3_13 
ROOT
HETATM    1  C2  UNL     1      -4.618  52.817  13.556  1.00  0.00     0.290 C 
HETATM    2  O2  UNL     1      -5.346  52.886  12.375  1.00  0.00    -0.324 OA
HETATM    3  C3  UNL     1      -6.240  53.917  12.492  1.00  0.00     0.364 C 
HETATM    4  C8  UNL     1      -6.499  54.144  13.972  1.00  0.00     0.101 C 
HETATM    5  C9  UNL     1      -5.717  53.008  14.595  1.00  0.00     0.177 C 
ENDROOT
BRANCH   3   6
HETATM    6  N1  UNL     1      -7.499  53.772  11.856  1.00  0.00     0.124 N 
HETATM    7  C4  UNL     1      -8.404  54.879  12.047  1.00  0.00     0.303 C 
HETATM    8  C5  UNL     1      -7.871  55.880  11.097  1.00  0.00     0.001 C 
HETATM    9  C6  UNL     1      -7.295  55.203  10.115  1.00  0.00     0.001 C 
HETATM   10  C7  UNL     1      -7.443  53.733  10.405  1.00  0.00     0.303 C 
ENDBRANCH   3   6
BRANCH   1  11
HETATM   11  O1  UNL     1      -3.660  53.813  13.683  1.00  0.00    -0.363 OA
HETATM   12  C1  UNL     1      -2.523  53.570  12.912  1.00  0.00     0.204 C 
ENDBRANCH   1  11
BRANCH   5  13
HETATM   13  O3  UNL     1      -5.199  53.427  15.799  1.00  0.00    -0.391 OA
ATOM     14  H3  UNL     1      -5.855  53.877  16.318  1.00  0.00     0.210 HD
ENDBRANCH   5  13
TORSDOF 3
ENDMDL
MODEL 2
REMARK VINA RESULT: -5.299980502      2.310      3.821
REMARK  3 active torsions:
REMARK  status: ('A' for Active; 'I' for Inactive)
REMARK    1  A    between atoms: O1_2  and  C2_3 
REMARK    2  A    between atoms: C3_5  and  N1_6 
REMARK    3  A    between atoms: C9_12  and  O3_13 
ROOT
HETATM    1  C2  UNL     1      -6.940  55.549  12.949  1.00  0.00     0.290 C 
HETATM    2  O2  UNL     1      -6.537  54.597  12.021  1.00  0.00    -0.324 OA
HETATM    3  C3  UNL     1      -6.354  53.414  12.686  1.00  0.00     0.364 C 
HETATM    4  C8  UNL     1      -6.066  53.737  14.143  1.00  0.00     0.101 C 
HETATM    5  C9  UNL     1      -6.001  55.249  14.111  1.00  0.00     0.177 C 
ENDROOT
BRANCH   3   6
HETATM    6  N1  UNL     1      -5.322  52.555  12.228  1.00  0.00     0.124 N 
HETATM    7  C4  UNL     1      -5.328  51.237  12.816  1.00  0.00     0.303 C 
HETATM    8  C5  UNL     1      -6.419  50.573  12.071  1.00  0.00     0.001 C 
HETATM    9  C6  UNL     1      -6.471  51.148  10.879  1.00  0.00     0.001 C 
HETATM   10  C7  UNL     1      -5.405  52.209  10.820  1.00  0.00     0.303 C 
ENDBRANCH   3   6
BRANCH   1  11
HETATM   11  O1  UNL     1      -8.261  55.415  13.354  1.00  0.00    -0.363 OA
HETATM   12  C1  UNL     1      -9.168  55.861  12.392  1.00  0.00     0.204 C 
ENDBRANCH   1  11
BRANCH   5  13
HETATM   13  O3  UNL     1      -6.495  55.745  15.295  1.00  0.00    -0.391 OA
ATOM     14  H3  UNL     1      -7.157  55.169  15.660  1.00  0.00     0.210 HD
ENDBRANCH   5  13
TORSDOF 3
ENDMDL
MODEL 3
REMARK VINA RESULT: -4.958006580      3.136      4.917
REMARK  3 active torsions:
REMARK  status: ('A' for Active; 'I' for Inactive)
REMARK    1  A    between atoms: O1_2  and  C2_3 
REMARK    2  A    between atoms: C3_5  and  N1_6 
REMARK    3  A    between atoms: C9_12  and  O3_13 
ROOT
HETATM    1  C2  UNL     1      -3.189  53.687  12.677  1.00  0.00     0.290 C 
HETATM    2  O2  UNL     1      -3.772  52.875  11.713  1.00  0.00    -0.324 OA
HETATM    3  C3  UNL     1      -3.391  51.584  11.965  1.00  0.00     0.364 C 
HETATM    4  C8  UNL     1      -2.085  51.626  12.742  1.00  0.00     0.101 C 
HETATM    5  C9  UNL     1      -1.781  53.109  12.743  1.00  0.00     0.177 C 
ENDROOT
BRANCH   3   6
HETATM    6  N1  UNL     1      -3.198  50.725  10.853  1.00  0.00     0.124 N 
HETATM    7  C4  UNL     1      -2.718  49.406  11.184  1.00  0.00     0.303 C 
HETATM    8  C5  UNL     1      -3.948  48.745  11.672  1.00  0.00     0.001 C 
HETATM    9  C6  UNL     1      -4.964  49.324  11.051  1.00  0.00     0.001 C 
HETATM   10  C7  UNL     1      -4.414  50.384  10.135  1.00  0.00     0.303 C 
ENDBRANCH   3   6
BRANCH   1  11
HETATM   11  O1  UNL     1      -3.799  53.607  13.921  1.00  0.00    -0.363 OA
HETATM   12  C1  UNL     1      -5.169  53.865  13.868  1.00  0.00     0.204 C 
ENDBRANCH   1  11
BRANCH   5  13
HETATM   13  O3  UNL     1      -1.160  53.438  13.926  1.00  0.00    -0.391 OA
ATOM     14  H3  UNL     1      -0.526  54.135  13.801  1.00  0.00     0.210 HD
ENDBRANCH   5  13
TORSDOF 3
ENDMDL
MODEL 4
REMARK VINA RESULT: -4.907149534      2.160      4.523
REMARK  3 active torsions:
REMARK  status: ('A' for Active; 'I' for Inactive)
REMARK    1  A    between atoms: O1_2  and  C2_3 
REMARK    2  A    between atoms: C3_5  and  N1_6 
REMARK    3  A    between atoms: C9_12  and  O3_13 
ROOT
HETATM    1  C2  UNL     1      -5.578  54.343  13.675  1.00  0.00     0.290 C 
HETATM    2  O2  UNL     1      -4.241  54.258  13.304  1.00  0.00    -0.324 OA
HETATM    3  C3  UNL     1      -4.006  52.980  12.870  1.00  0.00     0.364 C 
HETATM    4  C8  UNL     1      -5.041  52.071  13.513  1.00  0.00     0.101 C 
HETATM    5  C9  UNL     1      -5.760  53.034  14.435  1.00  0.00     0.177 C 
ENDROOT
BRANCH   3   6
HETATM    6  N1  UNL     1      -2.728  52.422  13.130  1.00  0.00     0.124 N 
HETATM    7  C4  UNL     1      -2.389  51.283  12.312  1.00  0.00     0.303 C 
HETATM    8  C5  UNL     1      -2.015  51.924  11.032  1.00  0.00     0.001 C 
HETATM    9  C6  UNL     1      -1.552  53.128  11.330  1.00  0.00     0.001 C 
HETATM   10  C7  UNL     1      -1.612  53.300  12.824  1.00  0.00     0.303 C 
ENDBRANCH   3   6
BRANCH   1  11
HETATM   11  O1  UNL     1      -6.455  54.399  12.602  1.00  0.00    -0.363 OA
HETATM   12  C1  UNL     1      -7.319  55.493  12.670  1.00  0.00     0.204 C 
ENDBRANCH   1  11
BRANCH   5  13
HETATM   13  O3  UNL     1      -7.086  52.678  14.507  1.00  0.00    -0.391 OA
ATOM     14  H3  UNL     1      -7.429  52.800  15.385  1.00  0.00     0.210 HD
ENDBRANCH   5  13
TORSDOF 3
ENDMDL
MODEL 5
REMARK VINA RESULT: -4.810673390      2.255      3.780
REMARK  3 active torsions:
REMARK  status: ('A' for Active; 'I' for Inactive)
REMARK    1  A    between atoms: O1_2  and  C2_3 
REMARK    2  A    between atoms: C3_5  and  N1_6 
REMARK    3  A    between atoms: C9_12  and  O3_13 
ROOT
HETATM    1  C2  UNL     1      -2.206  51.651  12.829  1.00  0.00     0.290 C 
HETATM    2  O2  UNL     1      -3.420  51.720  13.501  1.00  0.00    -0.324 OA
HETATM    3  C3  UNL     1      -4.091  52.824  13.045  1.00  0.00     0.364 C 
HETATM    4  C8  UNL     1      -3.062  53.804  12.504  1.00  0.00     0.101 C 
HETATM    5  C9  UNL     1      -1.765  53.109  12.860  1.00  0.00     0.177 C 
ENDROOT
BRANCH   3   6
HETATM    6  N1  UNL     1      -4.905  53.528  13.969  1.00  0.00     0.124 N 
HETATM    7  C4  UNL     1      -5.762  54.527  13.379  1.00  0.00     0.303 C 
HETATM    8  C5  UNL     1      -6.853  53.704  12.815  1.00  0.00     0.001 C 
HETATM    9  C6  UNL     1      -6.937  52.616  13.566  1.00  0.00     0.001 C 
HETATM   10  C7  UNL     1      -5.894  52.709  14.648  1.00  0.00     0.303 C 
ENDBRANCH   3   6
BRANCH   1  11
HETATM   11  O1  UNL     1      -2.315  51.211  11.518  1.00  0.00    -0.363 OA
HETATM   12  C1  UNL     1      -1.720  49.966  11.315  1.00  0.00     0.204 C 
ENDBRANCH   1  11
BRANCH   5  13
HETATM   13  O3  UNL     1      -0.833  53.371  11.883  1.00  0.00    -0.391 OA
ATOM     14  H3  UNL     1      -1.237  53.414  11.024  1.00  0.00     0.210 HD
ENDBRANCH   5  13
TORSDOF 3
ENDMDL
