MODEL 1
REMARK VINA RESULT: -5.415259143      0.000      0.000
REMARK  3 active torsions:
REMARK  status: ('A' for Active; 'I' for Inactive)
REMARK    1  A    between atoms: C2_2  and  C3_3 
REMARK    2  A    between atoms: N1_6  and  O1_7 
REMARK    3  A    between atoms: N3_13  and  C8_14 
ROOT
HETATM    1  C3  UNL     1       2.047  43.250  26.835  1.00  0.00     0.059 A 
HETATM    2  C4  UNL     1       3.326  43.737  27.048  1.00  0.00     0.062 A 
HETATM    3  C5  UNL     1       4.431  43.358  26.135  1.00  0.00     0.073 C 
HETATM    4  N1  UNL     1       3.578  44.563  28.086  1.00  0.00    -0.214 N 
HETATM    5  C6  UNL     1       2.624  44.947  28.949  1.00  0.00     0.120 A 
HETATM    6  C7  UNL     1       2.928  45.862  30.090  1.00  0.00     0.093 C 
HETATM    7  N2  UNL     1       1.388  44.467  28.732  1.00  0.00    -0.280 N 
ATOM      8  H2  UNL     1       0.637  44.737  29.367  1.00  0.00     0.189 HD
HETATM    9  N3  UNL     1       1.107  43.645  27.709  1.00  0.00    -0.257 N 
ENDROOT
BRANCH   9  10
HETATM   10  C8  UNL     1      -0.223  43.171  27.530  1.00  0.00     0.056 A 
HETATM   11  C9  UNL     1      -1.131  43.950  26.855  1.00  0.00     0.033 A 
HETATM   12  C10 UNL     1      -2.417  43.546  26.650  1.00  0.00     0.029 A 
HETATM   13  C11 UNL     1      -2.799  42.302  27.149  1.00  0.00     0.046 A 
HETATM   14  N4  UNL     1      -4.142  41.894  26.926  1.00  0.00    -0.102 NA
HETATM   15  C12 UNL     1      -1.886  41.522  27.827  1.00  0.00     0.029 A 
HETATM   16  C13 UNL     1      -0.589  41.944  28.026  1.00  0.00     0.033 A 
ENDBRANCH   9  10
BRANCH   1  17
HETATM   17  C2  UNL     1       1.730  42.346  25.716  1.00  0.00     0.057 C 
HETATM   18  C1  UNL     1       1.404  43.054  24.432  1.00  0.00     0.011 C 
ENDBRANCH   1  17
BRANCH   4  19
HETATM   19  O1  UNL     1       4.863  45.058  28.308  1.00  0.00    -0.281 OA
ATOM     20  H1  UNL     1       5.315  45.554  27.636  1.00  0.00     0.245 HD
ENDBRANCH   4  19
TORSDOF 3
ENDMDL
MODEL 2
REMARK VINA RESULT: -5.400847626      0.061      1.130
REMARK  3 active torsions:
REMARK  status: ('A' for Active; 'I' for Inactive)
REMARK    1  A    between atoms: C2_2  and  C3_3 
REMARK    2  A    between atoms: N1_6  and  O1_7 
REMARK    3  A    between atoms: N3_13  and  C8_14 
ROOT
HETATM    1  C3  UNL     1       2.062  43.255  26.834  1.00  0.00     0.059 A 
HETATM    2  C4  UNL     1       3.348  43.710  27.071  1.00  0.00     0.062 A 
HETATM    3  C5  UNL     1       4.462  43.293  26.185  1.00  0.00     0.073 C 
HETATM    4  N1  UNL     1       3.600  44.537  28.108  1.00  0.00    -0.214 N 
HETATM    5  C6  UNL     1       2.639  44.955  28.947  1.00  0.00     0.120 A 
HETATM    6  C7  UNL     1       2.943  45.871  30.087  1.00  0.00     0.093 C 
HETATM    7  N2  UNL     1       1.395  44.506  28.707  1.00  0.00    -0.280 N 
ATOM      8  H2  UNL     1       0.638  44.802  29.323  1.00  0.00     0.189 HD
HETATM    9  N3  UNL     1       1.114  43.683  27.684  1.00  0.00    -0.257 N 
ENDROOT
BRANCH   9  10
HETATM   10  C8  UNL     1      -0.225  43.243  27.480  1.00  0.00     0.056 A 
HETATM   11  C9  UNL     1      -0.620  42.032  27.994  1.00  0.00     0.033 A 
HETATM   12  C10 UNL     1      -1.891  41.561  27.835  1.00  0.00     0.029 A 
HETATM   13  C11 UNL     1      -2.795  42.349  27.126  1.00  0.00     0.046 A 
HETATM   14  N4  UNL     1      -4.115  41.845  26.969  1.00  0.00    -0.102 NA
HETATM   15  C12 UNL     1      -2.396  43.563  26.610  1.00  0.00     0.029 A 
HETATM   16  C13 UNL     1      -1.108  44.027  26.780  1.00  0.00     0.033 A 
ENDBRANCH   9  10
BRANCH   1  17
HETATM   17  C2  UNL     1       1.744  42.351  25.716  1.00  0.00     0.057 C 
HETATM   18  C1  UNL     1       1.453  43.057  24.422  1.00  0.00     0.011 C 
ENDBRANCH   1  17
BRANCH   4  19
HETATM   19  O1  UNL     1       4.892  44.999  28.353  1.00  0.00    -0.281 OA
ATOM     20  H1  UNL     1       5.238  45.748  27.882  1.00  0.00     0.245 HD
ENDBRANCH   4  19
TORSDOF 3
ENDMDL
MODEL 3
REMARK VINA RESULT: -5.157807958      1.211      2.783
REMARK  3 active torsions:
REMARK  status: ('A' for Active; 'I' for Inactive)
REMARK    1  A    between atoms: C2_2  and  C3_3 
REMARK    2  A    between atoms: N1_6  and  O1_7 
REMARK    3  A    between atoms: N3_13  and  C8_14 
ROOT
HETATM    1  C3  UNL     1       1.916  44.285  28.722  1.00  0.00     0.059 A 
HETATM    2  C4  UNL     1       3.238  44.691  28.798  1.00  0.00     0.062 A 
HETATM    3  C5  UNL     1       3.725  45.427  29.989  1.00  0.00     0.073 C 
HETATM    4  N1  UNL     1       4.095  44.420  27.791  1.00  0.00    -0.214 N 
HETATM    5  C6  UNL     1       3.720  43.756  26.685  1.00  0.00     0.120 A 
HETATM    6  C7  UNL     1       4.688  43.467  25.584  1.00  0.00     0.093 C 
HETATM    7  N2  UNL     1       2.435  43.368  26.623  1.00  0.00    -0.280 N 
ATOM      8  H2  UNL     1       2.114  42.861  25.798  1.00  0.00     0.189 HD
HETATM    9  N3  UNL     1       1.561  43.623  27.609  1.00  0.00    -0.257 N 
ENDROOT
BRANCH   9  10
HETATM   10  C8  UNL     1       0.212  43.184  27.486  1.00  0.00     0.056 A 
HETATM   11  C9  UNL     1      -0.716  44.016  26.906  1.00  0.00     0.033 A 
HETATM   12  C10 UNL     1      -2.021  43.648  26.757  1.00  0.00     0.029 A 
HETATM   13  C11 UNL     1      -2.401  42.387  27.215  1.00  0.00     0.046 A 
HETATM   14  N4  UNL     1      -3.763  42.018  27.052  1.00  0.00    -0.102 NA
HETATM   15  C12 UNL     1      -1.468  41.556  27.797  1.00  0.00     0.029 A 
HETATM   16  C13 UNL     1      -0.152  41.941  27.940  1.00  0.00     0.033 A 
ENDBRANCH   9  10
BRANCH   1  17
HETATM   17  C2  UNL     1       0.949  44.563  29.797  1.00  0.00     0.057 C 
HETATM   18  C1  UNL     1       1.016  43.595  30.945  1.00  0.00     0.011 C 
ENDBRANCH   1  17
BRANCH   4  19
HETATM   19  O1  UNL     1       5.427  44.825  27.859  1.00  0.00    -0.281 OA
ATOM     20  H1  UNL     1       5.659  45.674  28.216  1.00  0.00     0.245 HD
ENDBRANCH   4  19
TORSDOF 3
ENDMDL
MODEL 4
REMARK VINA RESULT: -5.073329282      1.209      2.996
REMARK  3 active torsions:
REMARK  status: ('A' for Active; 'I' for Inactive)
REMARK    1  A    between atoms: C2_2  and  C3_3 
REMARK    2  A    between atoms: N1_6  and  O1_7 
REMARK    3  A    between atoms: N3_13  and  C8_14 
ROOT
HETATM    1  C3  UNL     1       1.915  44.296  28.682  1.00  0.00     0.059 A 
HETATM    2  C4  UNL     1       3.241  44.686  28.772  1.00  0.00     0.062 A 
HETATM    3  C5  UNL     1       3.729  45.401  29.975  1.00  0.00     0.073 C 
HETATM    4  N1  UNL     1       4.101  44.419  27.766  1.00  0.00    -0.214 N 
HETATM    5  C6  UNL     1       3.726  43.774  26.649  1.00  0.00     0.120 A 
HETATM    6  C7  UNL     1       4.696  43.489  25.551  1.00  0.00     0.093 C 
HETATM    7  N2  UNL     1       2.437  43.401  26.575  1.00  0.00    -0.280 N 
ATOM      8  H2  UNL     1       2.115  42.908  25.741  1.00  0.00     0.189 HD
HETATM    9  N3  UNL     1       1.559  43.653  27.558  1.00  0.00    -0.257 N 
ENDROOT
BRANCH   9  10
HETATM   10  C8  UNL     1       0.206  43.231  27.421  1.00  0.00     0.056 A 
HETATM   11  C9  UNL     1      -0.158  41.983  27.867  1.00  0.00     0.033 A 
HETATM   12  C10 UNL     1      -1.439  41.527  27.767  1.00  0.00     0.029 A 
HETATM   13  C11 UNL     1      -2.389  42.368  27.191  1.00  0.00     0.046 A 
HETATM   14  N4  UNL     1      -3.721  41.880  27.094  1.00  0.00    -0.102 NA
HETATM   15  C12 UNL     1      -2.021  43.619  26.743  1.00  0.00     0.029 A 
HETATM   16  C13 UNL     1      -0.721  44.067  26.852  1.00  0.00     0.033 A 
ENDBRANCH   9  10
BRANCH   1  17
HETATM   17  C2  UNL     1       0.944  44.570  29.756  1.00  0.00     0.057 C 
HETATM   18  C1  UNL     1       1.004  43.595  30.898  1.00  0.00     0.011 C 
ENDBRANCH   1  17
BRANCH   4  19
HETATM   19  O1  UNL     1       5.437  44.809  27.847  1.00  0.00    -0.281 OA
ATOM     20  H1  UNL     1       5.728  45.406  28.526  1.00  0.00     0.245 HD
ENDBRANCH   4  19
TORSDOF 3
ENDMDL
MODEL 5
REMARK VINA RESULT: -4.848641504      2.704      5.915
REMARK  3 active torsions:
REMARK  status: ('A' for Active; 'I' for Inactive)
REMARK    1  A    between atoms: C2_2  and  C3_3 
REMARK    2  A    between atoms: N1_6  and  O1_7 
REMARK    3  A    between atoms: N3_13  and  C8_14 
ROOT
HETATM    1  C3  UNL     1       0.164  42.391  28.699  1.00  0.00     0.059 A 
HETATM    2  C4  UNL     1      -1.005  41.832  28.210  1.00  0.00     0.062 A 
HETATM    3  C5  UNL     1      -1.523  40.566  28.782  1.00  0.00     0.073 C 
HETATM    4  N1  UNL     1      -1.684  42.434  27.211  1.00  0.00    -0.214 N 
HETATM    5  C6  UNL     1      -1.273  43.583  26.649  1.00  0.00     0.120 A 
HETATM    6  C7  UNL     1      -2.043  44.231  25.545  1.00  0.00     0.093 C 
HETATM    7  N2  UNL     1      -0.137  44.115  27.132  1.00  0.00    -0.280 N 
ATOM      8  H2  UNL     1       0.207  44.987  26.730  1.00  0.00     0.189 HD
HETATM    9  N3  UNL     1       0.560  43.539  28.124  1.00  0.00    -0.257 N 
ENDROOT
BRANCH   9  10
HETATM   10  C8  UNL     1       1.756  44.152  28.594  1.00  0.00     0.056 A 
HETATM   11  C9  UNL     1       1.678  45.130  29.557  1.00  0.00     0.033 A 
HETATM   12  C10 UNL     1       2.790  45.749  30.047  1.00  0.00     0.029 A 
HETATM   13  C11 UNL     1       4.030  45.362  29.542  1.00  0.00     0.046 A 
HETATM   14  N4  UNL     1       5.179  46.015  30.064  1.00  0.00    -0.102 NA
HETATM   15  C12 UNL     1       4.105  44.382  28.576  1.00  0.00     0.029 A 
HETATM   16  C13 UNL     1       2.972  43.764  28.090  1.00  0.00     0.033 A 
ENDBRANCH   9  10
BRANCH   1  17
HETATM   17  C2  UNL     1       0.937  41.766  29.786  1.00  0.00     0.057 C 
HETATM   18  C1  UNL     1       0.444  42.110  31.163  1.00  0.00     0.011 C 
ENDBRANCH   1  17
BRANCH   4  19
HETATM   19  O1  UNL     1      -2.862  41.879  26.713  1.00  0.00    -0.281 OA
ATOM     20  H1  UNL     1      -3.579  42.433  26.430  1.00  0.00     0.245 HD
ENDBRANCH   4  19
TORSDOF 3
ENDMDL
