MODEL 1
REMARK VINA RESULT: -4.865529700      0.000      0.000
REMARK  4 active torsions:
REMARK  status: ('A' for Active; 'I' for Inactive)
REMARK    1  A    between atoms: O1_2  and  C2_3 
REMARK    2  A    between atoms: C2_3  and  C3_4 
REMARK    3  A    between atoms: C6_11  and  C7_12 
REMARK    4  A    between atoms: C8_13  and  C9_14 
ROOT
HETATM    1  C3  UNL     1      -2.496  42.901  27.125  1.00  0.00     0.090 A 
HETATM    2  N1  UNL     1      -3.477  42.037  27.275  1.00  0.00    -0.297 N 
ATOM      3  H1  UNL     1      -4.441  42.179  26.975  1.00  0.00     0.187 HD
HETATM    4  N2  UNL     1      -2.995  40.910  27.902  1.00  0.00    -0.303 N 
ATOM      5  H2  UNL     1      -3.536  40.078  28.140  1.00  0.00     0.186 HD
HETATM    6  C4  UNL     1      -1.717  41.095  28.137  1.00  0.00     0.043 A 
HETATM    7  C5  UNL     1      -0.719  40.219  28.808  1.00  0.00     0.071 C 
HETATM    8  C6  UNL     1      -1.368  42.359  27.650  1.00  0.00     0.071 A 
ENDROOT
BRANCH   8   9
HETATM    9  C7  UNL     1      -0.092  42.977  27.865  1.00  0.00    -0.057 C 
HETATM   10  C8  UNL     1       0.914  43.553  28.168  1.00  0.00    -0.060 C 
BRANCH  10  11
HETATM   11  C9  UNL     1       2.090  44.233  28.684  1.00  0.00     0.033 A 
HETATM   12  C10 UNL     1       1.935  45.089  29.748  1.00  0.00     0.023 A 
HETATM   13  C11 UNL     1       2.999  45.684  30.291  1.00  0.00     0.019 A 
HETATM   14  C12 UNL     1       4.250  45.455  29.826  1.00  0.00     0.090 A 
HETATM   15  N3  UNL     1       4.428  44.602  28.770  1.00  0.00    -0.369 N 
HETATM   16  C13 UNL     1       5.775  44.430  28.282  1.00  0.00     0.154 C 
HETATM   17  C14 UNL     1       3.348  44.009  28.214  1.00  0.00     0.110 A 
ENDBRANCH  10  11
ENDBRANCH   8   9
BRANCH   1  18
HETATM   18  C2  UNL     1      -2.433  44.135  26.236  1.00  0.00     0.166 C 
BRANCH  18  19
HETATM   19  O1  UNL     1      -1.962  44.121  25.056  1.00  0.00    -0.365 OA
HETATM   20  C1  UNL     1      -0.830  44.378  24.489  1.00  0.00     0.209 C 
ENDBRANCH  18  19
ENDBRANCH   1  18
TORSDOF 4
ENDMDL
MODEL 2
REMARK VINA RESULT: -4.854180513      2.812      5.901
REMARK  4 active torsions:
REMARK  status: ('A' for Active; 'I' for Inactive)
REMARK    1  A    between atoms: O1_2  and  C2_3 
REMARK    2  A    between atoms: C2_3  and  C3_4 
REMARK    3  A    between atoms: C6_11  and  C7_12 
REMARK    4  A    between atoms: C8_13  and  C9_14 
ROOT
HETATM    1  C3  UNL     1       2.439  44.762  30.604  1.00  0.00     0.090 A 
HETATM    2  N1  UNL     1       2.819  44.662  31.859  1.00  0.00    -0.297 N 
ATOM      3  H1  UNL     1       3.622  45.137  32.273  1.00  0.00     0.187 HD
HETATM    4  N2  UNL     1       1.963  43.816  32.526  1.00  0.00    -0.303 N 
ATOM      5  H2  UNL     1       2.018  43.560  33.512  1.00  0.00     0.186 HD
HETATM    6  C4  UNL     1       1.062  43.396  31.668  1.00  0.00     0.043 A 
HETATM    7  C5  UNL     1      -0.076  42.455  31.842  1.00  0.00     0.071 C 
HETATM    8  C6  UNL     1       1.340  43.987  30.430  1.00  0.00     0.071 A 
ENDROOT
BRANCH   8   9
HETATM    9  C7  UNL     1       0.664  43.646  29.211  1.00  0.00    -0.057 C 
HETATM   10  C8  UNL     1       0.145  43.495  28.143  1.00  0.00    -0.060 C 
BRANCH  10  11
HETATM   11  C9  UNL     1      -0.368  43.398  26.786  1.00  0.00     0.033 A 
HETATM   12  C10 UNL     1      -1.194  44.395  26.328  1.00  0.00     0.023 A 
HETATM   13  C11 UNL     1      -1.636  44.376  25.069  1.00  0.00     0.019 A 
HETATM   14  C12 UNL     1      -1.277  43.392  24.210  1.00  0.00     0.090 A 
HETATM   15  N3  UNL     1      -0.450  42.391  24.643  1.00  0.00    -0.369 N 
HETATM   16  C13 UNL     1      -0.136  41.342  23.704  1.00  0.00     0.154 C 
HETATM   17  C14 UNL     1      -0.012  42.406  25.923  1.00  0.00     0.110 A 
ENDBRANCH  10  11
ENDBRANCH   8   9
BRANCH   1  18
HETATM   18  C2  UNL     1       2.848  45.788  29.557  1.00  0.00     0.166 C 
BRANCH  18  19
HETATM   19  O1  UNL     1       3.614  45.520  28.579  1.00  0.00    -0.365 OA
HETATM   20  C1  UNL     1       4.116  44.460  28.037  1.00  0.00     0.209 C 
ENDBRANCH  18  19
ENDBRANCH   1  18
TORSDOF 4
ENDMDL
MODEL 3
REMARK VINA RESULT: -4.767889162      2.223      3.222
REMARK  4 active torsions:
REMARK  status: ('A' for Active; 'I' for Inactive)
REMARK    1  A    between atoms: O1_2  and  C2_3 
REMARK    2  A    between atoms: C2_3  and  C3_4 
REMARK    3  A    between atoms: C6_11  and  C7_12 
REMARK    4  A    between atoms: C8_13  and  C9_14 
ROOT
HETATM    1  C3  UNL     1      -2.138  42.456  25.883  1.00  0.00     0.090 A 
HETATM    2  N1  UNL     1      -2.272  42.029  24.647  1.00  0.00    -0.297 N 
ATOM      3  H1  UNL     1      -3.055  41.481  24.292  1.00  0.00     0.187 HD
HETATM    4  N2  UNL     1      -1.187  42.440  23.906  1.00  0.00    -0.303 N 
ATOM      5  H2  UNL     1      -1.031  42.253  22.915  1.00  0.00     0.186 HD
HETATM    6  C4  UNL     1      -0.389  43.114  24.701  1.00  0.00     0.043 A 
HETATM    7  C5  UNL     1       0.926  43.757  24.434  1.00  0.00     0.071 C 
HETATM    8  C6  UNL     1      -0.972  43.143  25.972  1.00  0.00     0.071 A 
ENDROOT
BRANCH   8   9
HETATM    9  C7  UNL     1      -0.318  43.656  27.142  1.00  0.00    -0.057 C 
HETATM   10  C8  UNL     1       0.259  43.942  28.151  1.00  0.00    -0.060 C 
BRANCH  10  11
HETATM   11  C9  UNL     1       1.052  44.164  29.349  1.00  0.00     0.033 A 
HETATM   12  C10 UNL     1       0.808  43.377  30.448  1.00  0.00     0.023 A 
HETATM   13  C11 UNL     1       1.556  43.507  31.546  1.00  0.00     0.019 A 
HETATM   14  C12 UNL     1       2.573  44.398  31.606  1.00  0.00     0.090 A 
HETATM   15  N3  UNL     1       2.837  45.190  30.521  1.00  0.00    -0.369 N 
HETATM   16  C13 UNL     1       3.900  46.156  30.652  1.00  0.00     0.154 C 
HETATM   17  C14 UNL     1       2.071  45.065  29.413  1.00  0.00     0.110 A 
ENDBRANCH  10  11
ENDBRANCH   8   9
BRANCH   1  18
HETATM   18  C2  UNL     1      -3.182  42.539  26.988  1.00  0.00     0.166 C 
BRANCH  18  19
HETATM   19  O1  UNL     1      -3.936  41.568  27.310  1.00  0.00    -0.365 OA
HETATM   20  C1  UNL     1      -3.802  40.301  27.526  1.00  0.00     0.209 C 
ENDBRANCH  18  19
ENDBRANCH   1  18
TORSDOF 4
ENDMDL
MODEL 4
REMARK VINA RESULT: -4.704847920      2.475      3.294
REMARK  4 active torsions:
REMARK  status: ('A' for Active; 'I' for Inactive)
REMARK    1  A    between atoms: O1_2  and  C2_3 
REMARK    2  A    between atoms: C2_3  and  C3_4 
REMARK    3  A    between atoms: C6_11  and  C7_12 
REMARK    4  A    between atoms: C8_13  and  C9_14 
ROOT
HETATM    1  C3  UNL     1       0.326  42.883  25.134  1.00  0.00     0.090 A 
HETATM    2  N1  UNL     1      -0.508  42.713  24.131  1.00  0.00    -0.297 N 
ATOM      3  H1  UNL     1      -0.246  42.431  23.187  1.00  0.00     0.187 HD
HETATM    4  N2  UNL     1      -1.790  42.974  24.559  1.00  0.00    -0.303 N 
ATOM      5  H2  UNL     1      -2.636  42.917  23.991  1.00  0.00     0.186 HD
HETATM    6  C4  UNL     1      -1.731  43.311  25.826  1.00  0.00     0.043 A 
HETATM    7  C5  UNL     1      -2.806  43.716  26.772  1.00  0.00     0.071 C 
HETATM    8  C6  UNL     1      -0.390  43.260  26.223  1.00  0.00     0.071 A 
ENDROOT
BRANCH   8   9
HETATM    9  C7  UNL     1       0.086  43.713  27.498  1.00  0.00    -0.057 C 
HETATM   10  C8  UNL     1       0.601  44.002  28.540  1.00  0.00    -0.060 C 
BRANCH  10  11
HETATM   11  C9  UNL     1       1.365  44.332  29.732  1.00  0.00     0.033 A 
HETATM   12  C10 UNL     1       1.008  43.739  30.919  1.00  0.00     0.023 A 
HETATM   13  C11 UNL     1       1.722  43.967  32.024  1.00  0.00     0.019 A 
HETATM   14  C12 UNL     1       2.814  44.768  32.006  1.00  0.00     0.090 A 
HETATM   15  N3  UNL     1       3.190  45.365  30.833  1.00  0.00    -0.369 N 
HETATM   16  C13 UNL     1       4.330  46.247  30.878  1.00  0.00     0.154 C 
HETATM   17  C14 UNL     1       2.459  45.142  29.717  1.00  0.00     0.110 A 
ENDBRANCH  10  11
ENDBRANCH   8   9
BRANCH   1  18
HETATM   18  C2  UNL     1       1.772  42.429  25.266  1.00  0.00     0.166 C 
BRANCH  18  19
HETATM   19  O1  UNL     1       2.752  43.234  25.354  1.00  0.00    -0.365 OA
HETATM   20  C1  UNL     1       3.601  43.590  26.260  1.00  0.00     0.209 C 
ENDBRANCH  18  19
ENDBRANCH   1  18
TORSDOF 4
ENDMDL
MODEL 5
REMARK VINA RESULT: -4.696646851      2.451      2.973
REMARK  4 active torsions:
REMARK  status: ('A' for Active; 'I' for Inactive)
REMARK    1  A    between atoms: O1_2  and  C2_3 
REMARK    2  A    between atoms: C2_3  and  C3_4 
REMARK    3  A    between atoms: C6_11  and  C7_12 
REMARK    4  A    between atoms: C8_13  and  C9_14 
ROOT
HETATM    1  C3  UNL     1      -0.981  42.661  24.208  1.00  0.00     0.090 A 
HETATM    2  N1  UNL     1      -1.336  41.830  23.252  1.00  0.00    -0.297 N 
ATOM      3  H1  UNL     1      -2.204  41.877  22.720  1.00  0.00     0.187 HD
HETATM    4  N2  UNL     1      -0.348  40.885  23.084  1.00  0.00    -0.303 N 
ATOM      5  H2  UNL     1      -0.357  40.121  22.408  1.00  0.00     0.186 HD
HETATM    6  C4  UNL     1       0.606  41.143  23.947  1.00  0.00     0.043 A 
HETATM    7  C5  UNL     1       1.886  40.433  24.216  1.00  0.00     0.071 C 
HETATM    8  C6  UNL     1       0.231  42.275  24.679  1.00  0.00     0.071 A 
ENDROOT
BRANCH   8   9
HETATM    9  C7  UNL     1       0.949  42.766  25.820  1.00  0.00    -0.057 C 
HETATM   10  C8  UNL     1       1.433  43.269  26.793  1.00  0.00    -0.060 C 
BRANCH  10  11
HETATM   11  C9  UNL     1       1.875  43.899  28.027  1.00  0.00     0.033 A 
HETATM   12  C10 UNL     1       0.936  44.167  28.994  1.00  0.00     0.023 A 
HETATM   13  C11 UNL     1       1.310  44.687  30.165  1.00  0.00     0.019 A 
HETATM   14  C12 UNL     1       2.610  44.950  30.438  1.00  0.00     0.090 A 
HETATM   15  N3  UNL     1       3.562  44.686  29.491  1.00  0.00    -0.369 N 
HETATM   16  C13 UNL     1       4.926  45.029  29.812  1.00  0.00     0.154 C 
HETATM   17  C14 UNL     1       3.180  44.170  28.300  1.00  0.00     0.110 A 
ENDBRANCH  10  11
ENDBRANCH   8   9
BRANCH   1  18
HETATM   18  C2  UNL     1      -1.559  44.026  24.555  1.00  0.00     0.166 C 
BRANCH  18  19
HETATM   19  O1  UNL     1      -2.085  44.296  25.680  1.00  0.00    -0.365 OA
HETATM   20  C1  UNL     1      -2.583  43.634  26.671  1.00  0.00     0.209 C 
ENDBRANCH  18  19
ENDBRANCH   1  18
TORSDOF 4
ENDMDL
