MODEL 1
REMARK VINA RESULT: -5.871546230      0.000      0.000
REMARK  4 active torsions:
REMARK  status: ('A' for Active; 'I' for Inactive)
REMARK    1  A    between atoms: C2_2  and  N1_4 
REMARK       I    between atoms: N1_4  and  C4_6 
REMARK    2  A    between atoms: C4_6  and  O2_8 
REMARK    3  A    between atoms: O2_8  and  C5_9 
REMARK    4  A    between atoms: C9_15  and  N2_16 
ROOT
HETATM    1  C5  UNL     1      -6.373  54.147  13.168  1.00  0.00     0.201 C 
HETATM    2  C6  UNL     1      -4.961  54.460  13.598  1.00  0.00     0.187 C 
HETATM    3  O3  UNL     1      -4.100  54.584  12.534  1.00  0.00    -0.356 OA
HETATM    4  C7  UNL     1      -3.144  53.598  12.621  1.00  0.00     0.339 C 
HETATM    5  O4  UNL     1      -3.580  52.630  13.491  1.00  0.00    -0.357 OA
HETATM    6  C8  UNL     1      -4.821  52.997  13.969  1.00  0.00     0.192 C 
HETATM    7  C9  UNL     1      -5.986  52.718  13.035  1.00  0.00     0.285 C 
ENDROOT
BRANCH   1   8
HETATM    8  O2  UNL     1      -6.844  54.813  12.046  1.00  0.00    -0.294 OA
BRANCH   8   9
HETATM    9  C4  UNL     1      -8.054  55.491  12.063  1.00  0.00     0.361 C 
HETATM   10  N1  UNL     1      -8.636  56.005  10.852  1.00  0.00    -0.333 N 
ATOM     11  H1  UNL     1      -8.157  55.872   9.962  1.00  0.00     0.165 HD
HETATM   12  O1  UNL     1      -8.620  55.639  13.173  1.00  0.00    -0.238 OA
BRANCH  10  13
HETATM   13  C2  UNL     1      -9.895  56.706  10.893  1.00  0.00     0.078 C 
HETATM   14  C1  UNL     1     -10.935  55.935  10.108  1.00  0.00     0.032 C 
HETATM   15  C3  UNL     1      -9.684  58.084  10.284  1.00  0.00     0.032 C 
ENDBRANCH  10  13
ENDBRANCH   8   9
ENDBRANCH   1   8
BRANCH   7  16
HETATM   16  N2  UNL     1      -5.502  52.270  11.764  1.00  0.00     0.089 N 
HETATM   17  C10 UNL     1      -5.380  50.805  11.855  1.00  0.00     0.310 C 
HETATM   18  C11 UNL     1      -6.379  52.533  10.664  1.00  0.00     0.310 C 
ENDBRANCH   7  16
TORSDOF 4
ENDMDL
MODEL 2
REMARK VINA RESULT: -5.570476586      2.139      3.252
REMARK  4 active torsions:
REMARK  status: ('A' for Active; 'I' for Inactive)
REMARK    1  A    between atoms: C2_2  and  N1_4 
REMARK       I    between atoms: N1_4  and  C4_6 
REMARK    2  A    between atoms: C4_6  and  O2_8 
REMARK    3  A    between atoms: O2_8  and  C5_9 
REMARK    4  A    between atoms: C9_15  and  N2_16 
ROOT
HETATM    1  C5  UNL     1      -2.951  53.282  12.861  1.00  0.00     0.201 C 
HETATM    2  C6  UNL     1      -1.513  53.331  12.410  1.00  0.00     0.187 C 
HETATM    3  O3  UNL     1      -1.389  53.375  11.042  1.00  0.00    -0.356 OA
HETATM    4  C7  UNL     1      -0.733  52.241  10.620  1.00  0.00     0.339 C 
HETATM    5  O4  UNL     1      -0.763  51.309  11.627  1.00  0.00    -0.357 OA
HETATM    6  C8  UNL     1      -1.440  51.846  12.703  1.00  0.00     0.192 C 
HETATM    7  C9  UNL     1      -2.955  51.819  12.597  1.00  0.00     0.285 C 
ENDROOT
BRANCH   1   8
HETATM    8  O2  UNL     1      -3.849  54.082  12.169  1.00  0.00    -0.294 OA
BRANCH   8   9
HETATM    9  C4  UNL     1      -5.079  54.425  12.711  1.00  0.00     0.361 C 
HETATM   10  N1  UNL     1      -6.183  54.803  11.872  1.00  0.00    -0.333 N 
ATOM     11  H1  UNL     1      -6.067  54.823  10.858  1.00  0.00     0.165 HD
HETATM   12  O1  UNL     1      -5.192  54.392  13.960  1.00  0.00    -0.238 OA
BRANCH  10  13
HETATM   13  C2  UNL     1      -7.453  55.155  12.456  1.00  0.00     0.078 C 
HETATM   14  C1  UNL     1      -8.336  53.929  12.535  1.00  0.00     0.032 C 
HETATM   15  C3  UNL     1      -8.096  56.217  11.577  1.00  0.00     0.032 C 
ENDBRANCH  10  13
ENDBRANCH   8   9
ENDBRANCH   1   8
BRANCH   7  16
HETATM   16  N2  UNL     1      -3.350  51.374  11.295  1.00  0.00     0.089 N 
HETATM   17  C10 UNL     1      -3.275  49.903  11.314  1.00  0.00     0.310 C 
HETATM   18  C11 UNL     1      -4.695  51.702  10.933  1.00  0.00     0.310 C 
ENDBRANCH   7  16
TORSDOF 4
ENDMDL
MODEL 3
REMARK VINA RESULT: -5.539787106      3.081      6.229
REMARK  4 active torsions:
REMARK  status: ('A' for Active; 'I' for Inactive)
REMARK    1  A    between atoms: C2_2  and  N1_4 
REMARK       I    between atoms: N1_4  and  C4_6 
REMARK    2  A    between atoms: C4_6  and  O2_8 
REMARK    3  A    between atoms: O2_8  and  C5_9 
REMARK    4  A    between atoms: C9_15  and  N2_16 
ROOT
HETATM    1  C5  UNL     1      -3.981  52.130  12.508  1.00  0.00     0.201 C 
HETATM    2  C6  UNL     1      -4.300  51.292  11.296  1.00  0.00     0.187 C 
HETATM    3  O3  UNL     1      -4.660  52.051  10.208  1.00  0.00    -0.356 OA
HETATM    4  C7  UNL     1      -5.960  51.751   9.869  1.00  0.00     0.339 C 
HETATM    5  O4  UNL     1      -6.556  51.104  10.921  1.00  0.00    -0.357 OA
HETATM    6  C8  UNL     1      -5.636  50.984  11.943  1.00  0.00     0.192 C 
HETATM    7  C9  UNL     1      -5.437  52.230  12.788  1.00  0.00     0.285 C 
ENDROOT
BRANCH   1   8
HETATM    8  O2  UNL     1      -3.266  53.298  12.288  1.00  0.00    -0.294 OA
BRANCH   8   9
HETATM    9  C4  UNL     1      -1.938  53.269  11.888  1.00  0.00     0.361 C 
HETATM   10  N1  UNL     1      -1.580  53.052  10.513  1.00  0.00    -0.333 N 
ATOM     11  H1  UNL     1      -2.309  52.915   9.813  1.00  0.00     0.165 HD
HETATM   12  O1  UNL     1      -1.063  53.441  12.771  1.00  0.00    -0.238 OA
BRANCH  10  13
HETATM   13  C2  UNL     1      -0.193  53.027  10.119  1.00  0.00     0.078 C 
HETATM   14  C1  UNL     1      -0.038  53.661   8.754  1.00  0.00     0.032 C 
HETATM   15  C3  UNL     1       0.258  51.575  10.084  1.00  0.00     0.032 C 
ENDBRANCH  10  13
ENDBRANCH   8   9
ENDBRANCH   1   8
BRANCH   7  16
HETATM   16  N2  UNL     1      -6.154  53.331  12.219  1.00  0.00     0.089 N 
HETATM   17  C10 UNL     1      -7.531  53.246  12.734  1.00  0.00     0.310 C 
HETATM   18  C11 UNL     1      -5.665  54.622  12.595  1.00  0.00     0.310 C 
ENDBRANCH   7  16
TORSDOF 4
ENDMDL
MODEL 4
REMARK VINA RESULT: -5.480286293      2.759      3.985
REMARK  4 active torsions:
REMARK  status: ('A' for Active; 'I' for Inactive)
REMARK    1  A    between atoms: C2_2  and  N1_4 
REMARK       I    between atoms: N1_4  and  C4_6 
REMARK    2  A    between atoms: C4_6  and  O2_8 
REMARK    3  A    between atoms: O2_8  and  C5_9 
REMARK    4  A    between atoms: C9_15  and  N2_16 
ROOT
HETATM    1  C5  UNL     1      -3.337  51.791  11.881  1.00  0.00     0.201 C 
HETATM    2  C6  UNL     1      -2.099  52.611  12.146  1.00  0.00     0.187 C 
HETATM    3  O3  UNL     1      -1.844  53.521  11.148  1.00  0.00    -0.356 OA
HETATM    4  C7  UNL     1      -0.639  53.207  10.561  1.00  0.00     0.339 C 
HETATM    5  O4  UNL     1      -0.299  51.922  10.902  1.00  0.00    -0.357 OA
HETATM    6  C8  UNL     1      -1.288  51.406  11.714  1.00  0.00     0.192 C 
HETATM    7  C9  UNL     1      -2.530  50.914  10.992  1.00  0.00     0.285 C 
ENDROOT
BRANCH   1   8
HETATM    8  O2  UNL     1      -4.425  52.460  11.341  1.00  0.00    -0.294 OA
BRANCH   8   9
HETATM    9  C4  UNL     1      -5.410  53.009  12.149  1.00  0.00     0.361 C 
HETATM   10  N1  UNL     1      -5.882  54.351  11.941  1.00  0.00    -0.333 N 
ATOM     11  H1  UNL     1      -5.490  54.916  11.188  1.00  0.00     0.165 HD
HETATM   12  O1  UNL     1      -5.873  52.290  13.067  1.00  0.00    -0.238 OA
BRANCH  10  13
HETATM   13  C2  UNL     1      -6.907  54.901  12.792  1.00  0.00     0.078 C 
HETATM   14  C1  UNL     1      -7.784  55.840  11.994  1.00  0.00     0.032 C 
HETATM   15  C3  UNL     1      -6.224  55.647  13.927  1.00  0.00     0.032 C 
ENDBRANCH  10  13
ENDBRANCH   8   9
ENDBRANCH   1   8
BRANCH   7  16
HETATM   16  N2  UNL     1      -2.460  51.252   9.603  1.00  0.00     0.089 N 
HETATM   17  C10 UNL     1      -1.816  50.113   8.926  1.00  0.00     0.310 C 
HETATM   18  C11 UNL     1      -3.728  51.431   8.965  1.00  0.00     0.310 C 
ENDBRANCH   7  16
TORSDOF 4
ENDMDL
MODEL 5
REMARK VINA RESULT: -5.429393830      3.510      5.379
REMARK  4 active torsions:
REMARK  status: ('A' for Active; 'I' for Inactive)
REMARK    1  A    between atoms: C2_2  and  N1_4 
REMARK       I    between atoms: N1_4  and  C4_6 
REMARK    2  A    between atoms: C4_6  and  O2_8 
REMARK    3  A    between atoms: O2_8  and  C5_9 
REMARK    4  A    between atoms: C9_15  and  N2_16 
ROOT
HETATM    1  C5  UNL     1      -1.237  52.883  11.325  1.00  0.00     0.201 C 
HETATM    2  C6  UNL     1      -0.452  52.987  10.041  1.00  0.00     0.187 C 
HETATM    3  O3  UNL     1      -1.245  52.862   8.925  1.00  0.00    -0.356 OA
HETATM    4  C7  UNL     1      -0.859  51.738   8.230  1.00  0.00     0.339 C 
HETATM    5  O4  UNL     1      -0.100  50.945   9.053  1.00  0.00    -0.357 OA
HETATM    6  C8  UNL     1       0.006  51.562  10.283  1.00  0.00     0.192 C 
HETATM    7  C9  UNL     1      -1.197  51.402  11.196  1.00  0.00     0.285 C 
ENDROOT
BRANCH   1   8
HETATM    8  O2  UNL     1      -2.472  53.513  11.353  1.00  0.00    -0.294 OA
BRANCH   8   9
HETATM    9  C4  UNL     1      -3.141  53.742  12.547  1.00  0.00     0.361 C 
HETATM   10  N1  UNL     1      -4.548  54.037  12.567  1.00  0.00    -0.333 N 
ATOM     11  H1  UNL     1      -5.071  54.080  11.693  1.00  0.00     0.165 HD
HETATM   12  O1  UNL     1      -2.471  53.682  13.606  1.00  0.00    -0.238 OA
BRANCH  10  13
HETATM   13  C2  UNL     1      -5.222  54.271  13.820  1.00  0.00     0.078 C 
HETATM   14  C1  UNL     1      -5.877  52.992  14.294  1.00  0.00     0.032 C 
HETATM   15  C3  UNL     1      -6.269  55.351  13.594  1.00  0.00     0.032 C 
ENDBRANCH  10  13
ENDBRANCH   8   9
ENDBRANCH   1   8
BRANCH   7  16
HETATM   16  N2  UNL     1      -2.268  50.762  10.492  1.00  0.00     0.089 N 
HETATM   17  C10 UNL     1      -2.052  49.312  10.630  1.00  0.00     0.310 C 
HETATM   18  C11 UNL     1      -3.572  51.025  11.020  1.00  0.00     0.310 C 
ENDBRANCH   7  16
TORSDOF 4
ENDMDL
