MODEL 1
REMARK VINA RESULT: -6.041542256      0.000      0.000
REMARK  8 active torsions:
REMARK  status: ('A' for Active; 'I' for Inactive)
REMARK    1  A    between atoms: N1_1  and  C1_4 
REMARK    2  A    between atoms: C2_7  and  C3_8 
REMARK    3  A    between atoms: C3_8  and  O1_9 
REMARK    4  A    between atoms: C3_8  and  C4_11 
REMARK    5  A    between atoms: C4_11  and  C5_12 
REMARK    6  A    between atoms: C5_12  and  O2_13 
REMARK    7  A    between atoms: C8_25  and  N8_26 
REMARK    8  A    between atoms: N8_26  and  O3_28 
ROOT
HETATM    1  C1  UNL     1      15.005  17.249  17.906  1.00  0.00     0.130 A 
HETATM    2  N2  UNL     1      14.441  17.031  16.710  1.00  0.00    -0.328 N 
ATOM      3  H2  UNL     1      15.045  16.883  15.900  1.00  0.00     0.169 HD
HETATM    4  C2  UNL     1      13.087  17.000  16.538  1.00  0.00     0.116 A 
HETATM    5  N7  UNL     1      12.350  17.203  17.644  1.00  0.00    -0.351 N 
ATOM      6  H7  UNL     1      11.335  17.187  17.553  1.00  0.00     0.166 HD
HETATM    7  C7  UNL     1      12.869  17.426  18.863  1.00  0.00     0.124 A 
HETATM    8  C8  UNL     1      14.226  17.454  19.021  1.00  0.00     0.113 A 
ENDROOT
BRANCH   4   9
HETATM    9  C3  UNL     1      12.515  16.751  15.190  1.00  0.00     0.233 C 
BRANCH   9  10
HETATM   10  O1  UNL     1      13.437  16.996  14.167  1.00  0.00    -0.384 OA
ATOM     11  H1  UNL     1      13.059  17.495  13.452  1.00  0.00     0.210 HD
ENDBRANCH   9  10
BRANCH   9  12
HETATM   12  C4  UNL     1      11.913  15.397  15.011  1.00  0.00     0.174 C 
HETATM   13  N3  UNL     1      12.107  14.846  13.703  1.00  0.00    -0.357 N 
HETATM   14  C6  UNL     1      12.393  13.453  13.667  1.00  0.00     0.192 C 
ATOM     15  H3  UNL     1      12.043  15.413  12.858  1.00  0.00     0.162 HD
HETATM   16  N4  UNL     1      11.852  12.680  14.730  1.00  0.00    -0.284 N 
HETATM   17  N5  UNL     1      11.979  13.266  15.987  1.00  0.00    -0.028 NA
ATOM     18  H4  UNL     1      11.408  11.773  14.585  1.00  0.00     0.184 HD
HETATM   19  N6  UNL     1      12.586  14.508  15.951  1.00  0.00    -0.089 NA
BRANCH  12  20
HETATM   20  C5  UNL     1      10.437  15.473  15.290  1.00  0.00     0.217 C 
BRANCH  20  21
HETATM   21  O2  UNL     1      10.131  15.266  16.626  1.00  0.00    -0.397 OA
ATOM     22  H2  UNL     1      10.267  14.366  16.900  1.00  0.00     0.209 HD
ENDBRANCH  20  21
ENDBRANCH  12  20
ENDBRANCH   9  12
ENDBRANCH   4   9
BRANCH   1  23
HETATM   23  N1  UNL     1      16.282  17.265  18.000  1.00  0.00    -0.383 N 
ATOM     24  H12 UNL     1      16.859  17.084  17.178  1.00  0.00     0.157 HD
ATOM     25  H11 UNL     1      16.711  17.461  18.904  1.00  0.00     0.157 HD
ENDBRANCH   1  23
BRANCH   8  26
HETATM   26  N8  UNL     1      14.858  17.684  20.285  1.00  0.00    -0.264 N 
ATOM     27  H8  UNL     1      14.737  17.007  21.038  1.00  0.00     0.194 HD
BRANCH  26  28
HETATM   28  O3  UNL     1      15.551  18.695  20.479  1.00  0.00    -0.289 OA
ATOM     29  H3  UNL     1      16.421  18.772  20.105  1.00  0.00     0.244 HD
ENDBRANCH  26  28
ENDBRANCH   8  26
TORSDOF 8
ENDMDL
MODEL 2
REMARK VINA RESULT: -5.356379889      6.207      8.863
REMARK  8 active torsions:
REMARK  status: ('A' for Active; 'I' for Inactive)
REMARK    1  A    between atoms: N1_1  and  C1_4 
REMARK    2  A    between atoms: C2_7  and  C3_8 
REMARK    3  A    between atoms: C3_8  and  O1_9 
REMARK    4  A    between atoms: C3_8  and  C4_11 
REMARK    5  A    between atoms: C4_11  and  C5_12 
REMARK    6  A    between atoms: C5_12  and  O2_13 
REMARK    7  A    between atoms: C8_25  and  N8_26 
REMARK    8  A    between atoms: N8_26  and  O3_28 
ROOT
HETATM    1  C1  UNL     1      14.102  10.871  11.231  1.00  0.00     0.130 A 
HETATM    2  N2  UNL     1      14.643  11.582  12.230  1.00  0.00    -0.328 N 
ATOM      3  H2  UNL     1      14.759  12.588  12.112  1.00  0.00     0.169 HD
HETATM    4  C2  UNL     1      15.044  11.003  13.401  1.00  0.00     0.116 A 
HETATM    5  N7  UNL     1      14.863   9.674  13.491  1.00  0.00    -0.351 N 
ATOM      6  H7  UNL     1      15.151   9.209  14.351  1.00  0.00     0.166 HD
HETATM    7  C7  UNL     1      14.327   8.920  12.516  1.00  0.00     0.124 A 
HETATM    8  C8  UNL     1      13.930   9.512  11.350  1.00  0.00     0.113 A 
ENDROOT
BRANCH   4   9
HETATM    9  C3  UNL     1      15.635  11.838  14.478  1.00  0.00     0.233 C 
BRANCH   9  10
HETATM   10  O1  UNL     1      15.377  11.323  15.753  1.00  0.00    -0.384 OA
ATOM     11  H1  UNL     1      15.558  11.953  16.440  1.00  0.00     0.210 HD
ENDBRANCH   9  10
BRANCH   9  12
HETATM   12  C4  UNL     1      17.096  12.102  14.328  1.00  0.00     0.174 C 
HETATM   13  N3  UNL     1      17.861  11.800  15.500  1.00  0.00    -0.357 N 
HETATM   14  C6  UNL     1      19.124  11.190  15.261  1.00  0.00     0.192 C 
ATOM     15  H3  UNL     1      17.525  12.008  16.440  1.00  0.00     0.162 HD
HETATM   16  N4  UNL     1      19.748  11.516  14.026  1.00  0.00    -0.284 N 
HETATM   17  N5  UNL     1      18.886  11.516  12.932  1.00  0.00    -0.028 NA
ATOM     18  H4  UNL     1      20.742  11.733  13.947  1.00  0.00     0.184 HD
HETATM   19  N6  UNL     1      17.577  11.224  13.267  1.00  0.00    -0.089 NA
BRANCH  12  20
HETATM   20  C5  UNL     1      17.302  13.550  13.975  1.00  0.00     0.217 C 
BRANCH  20  21
HETATM   21  O2  UNL     1      16.716  13.898  12.769  1.00  0.00    -0.397 OA
ATOM     22  H2  UNL     1      15.849  14.273  12.874  1.00  0.00     0.209 HD
ENDBRANCH  20  21
ENDBRANCH  12  20
ENDBRANCH   9  12
ENDBRANCH   4   9
BRANCH   1  23
HETATM   23  N1  UNL     1      13.746  11.475  10.159  1.00  0.00    -0.383 N 
ATOM     24  H12 UNL     1      13.960  11.071   9.247  1.00  0.00     0.157 HD
ATOM     25  H11 UNL     1      13.248  12.362  10.231  1.00  0.00     0.157 HD
ENDBRANCH   1  23
BRANCH   8  26
HETATM   26  N8  UNL     1      13.348   8.781  10.265  1.00  0.00    -0.264 N 
ATOM     27  H8  UNL     1      13.866   8.008   9.846  1.00  0.00     0.194 HD
BRANCH  26  28
HETATM   28  O3  UNL     1      12.226   9.073   9.826  1.00  0.00    -0.289 OA
ATOM     29  H3  UNL     1      12.128   9.591   9.035  1.00  0.00     0.244 HD
ENDBRANCH  26  28
ENDBRANCH   8  26
TORSDOF 8
ENDMDL
MODEL 3
REMARK VINA RESULT: -5.340909879      6.310      7.678
REMARK  8 active torsions:
REMARK  status: ('A' for Active; 'I' for Inactive)
REMARK    1  A    between atoms: N1_1  and  C1_4 
REMARK    2  A    between atoms: C2_7  and  C3_8 
REMARK    3  A    between atoms: C3_8  and  O1_9 
REMARK    4  A    between atoms: C3_8  and  C4_11 
REMARK    5  A    between atoms: C4_11  and  C5_12 
REMARK    6  A    between atoms: C5_12  and  O2_13 
REMARK    7  A    between atoms: C8_25  and  N8_26 
REMARK    8  A    between atoms: N8_26  and  O3_28 
ROOT
HETATM    1  C1  UNL     1      16.825  12.359  12.924  1.00  0.00     0.130 A 
HETATM    2  N2  UNL     1      16.348  11.327  12.214  1.00  0.00    -0.328 N 
ATOM      3  H2  UNL     1      16.013  11.496  11.265  1.00  0.00     0.169 HD
HETATM    4  C2  UNL     1      16.296  10.059  12.717  1.00  0.00     0.116 A 
HETATM    5  N7  UNL     1      16.752   9.906  13.973  1.00  0.00    -0.351 N 
ATOM      6  H7  UNL     1      16.728   8.972  14.381  1.00  0.00     0.166 HD
HETATM    7  C7  UNL     1      17.238  10.909  14.723  1.00  0.00     0.124 A 
HETATM    8  C8  UNL     1      17.285  12.174  14.207  1.00  0.00     0.113 A 
ENDROOT
BRANCH   4   9
HETATM    9  C3  UNL     1      15.760   8.951  11.885  1.00  0.00     0.233 C 
BRANCH   9  10
HETATM   10  O1  UNL     1      16.448   7.750  12.092  1.00  0.00    -0.384 OA
ATOM     11  H1  UNL     1      15.868   6.997  12.088  1.00  0.00     0.210 HD
ENDBRANCH   9  10
BRANCH   9  12
HETATM   12  C4  UNL     1      14.292   8.721  12.028  1.00  0.00     0.174 C 
HETATM   13  N3  UNL     1      13.941   7.352  12.261  1.00  0.00    -0.357 N 
HETATM   14  C6  UNL     1      12.893   7.144  13.200  1.00  0.00     0.192 C 
ATOM     15  H3  UNL     1      14.410   6.581  11.786  1.00  0.00     0.162 HD
HETATM   16  N4  UNL     1      11.934   8.188  13.301  1.00  0.00    -0.284 N 
HETATM   17  N5  UNL     1      12.480   9.469  13.315  1.00  0.00    -0.028 NA
ATOM     18  H4  UNL     1      10.930   8.015  13.357  1.00  0.00     0.184 HD
HETATM   19  N6  UNL     1      13.858   9.476  13.198  1.00  0.00    -0.089 NA
BRANCH  12  20
HETATM   20  C5  UNL     1      13.596   9.194  10.782  1.00  0.00     0.217 C 
BRANCH  20  21
HETATM   21  O2  UNL     1      13.644  10.571  10.628  1.00  0.00    -0.397 OA
ATOM     22  H2  UNL     1      13.254  10.865   9.813  1.00  0.00     0.209 HD
ENDBRANCH  20  21
ENDBRANCH  12  20
ENDBRANCH   9  12
ENDBRANCH   4   9
BRANCH   1  23
HETATM   23  N1  UNL     1      16.847  13.524  12.393  1.00  0.00    -0.383 N 
ATOM     24  H12 UNL     1      16.314  14.288  12.808  1.00  0.00     0.157 HD
ATOM     25  H11 UNL     1      17.403  13.675  11.551  1.00  0.00     0.157 HD
ENDBRANCH   1  23
BRANCH   8  26
HETATM   26  N8  UNL     1      17.789  13.296  14.940  1.00  0.00    -0.264 N 
ATOM     27  H8  UNL     1      18.728  13.256  15.336  1.00  0.00     0.194 HD
BRANCH  26  28
HETATM   28  O3  UNL     1      17.101  14.316  15.101  1.00  0.00    -0.289 OA
ATOM     29  H3  UNL     1      16.672  14.738  14.366  1.00  0.00     0.244 HD
ENDBRANCH  26  28
ENDBRANCH   8  26
TORSDOF 8
ENDMDL
MODEL 4
REMARK VINA RESULT: -5.291956430      6.143      8.915
REMARK  8 active torsions:
REMARK  status: ('A' for Active; 'I' for Inactive)
REMARK    1  A    between atoms: N1_1  and  C1_4 
REMARK    2  A    between atoms: C2_7  and  C3_8 
REMARK    3  A    between atoms: C3_8  and  O1_9 
REMARK    4  A    between atoms: C3_8  and  C4_11 
REMARK    5  A    between atoms: C4_11  and  C5_12 
REMARK    6  A    between atoms: C5_12  and  O2_13 
REMARK    7  A    between atoms: C8_25  and  N8_26 
REMARK    8  A    between atoms: N8_26  and  O3_28 
ROOT
HETATM    1  C1  UNL     1      13.809   9.139  12.288  1.00  0.00     0.130 A 
HETATM    2  N2  UNL     1      14.338   9.883  13.270  1.00  0.00    -0.328 N 
ATOM      3  H2  UNL     1      14.455   9.468  14.194  1.00  0.00     0.169 HD
HETATM    4  C2  UNL     1      14.724  11.178  13.073  1.00  0.00     0.116 A 
HETATM    5  N7  UNL     1      14.542  11.664  11.833  1.00  0.00    -0.351 N 
ATOM      6  H7  UNL     1      14.819  12.628  11.650  1.00  0.00     0.166 HD
HETATM    7  C7  UNL     1      14.015  10.957  10.819  1.00  0.00     0.124 A 
HETATM    8  C8  UNL     1      13.633   9.662  11.029  1.00  0.00     0.113 A 
ENDROOT
BRANCH   4   9
HETATM    9  C3  UNL     1      15.308  11.957  14.195  1.00  0.00     0.233 C 
BRANCH   9  10
HETATM   10  O1  UNL     1      14.954  11.437  15.445  1.00  0.00    -0.384 OA
ATOM     11  H1  UNL     1      14.938  12.103  16.122  1.00  0.00     0.210 HD
ENDBRANCH   9  10
BRANCH   9  12
HETATM   12  C4  UNL     1      16.788  12.134  14.125  1.00  0.00     0.174 C 
HETATM   13  N3  UNL     1      17.475  11.746  15.320  1.00  0.00    -0.357 N 
HETATM   14  C6  UNL     1      18.709  11.067  15.119  1.00  0.00     0.192 C 
ATOM     15  H3  UNL     1      17.105  11.943  16.250  1.00  0.00     0.162 HD
HETATM   16  N4  UNL     1      19.411  11.396  13.928  1.00  0.00    -0.284 N 
HETATM   17  N5  UNL     1      18.607  11.486  12.795  1.00  0.00    -0.028 NA
ATOM     18  H4  UNL     1      20.419  11.553  13.904  1.00  0.00     0.184 HD
HETATM   19  N6  UNL     1      17.267  11.265  13.057  1.00  0.00    -0.089 NA
BRANCH  12  20
HETATM   20  C5  UNL     1      17.098  13.578  13.836  1.00  0.00     0.217 C 
BRANCH  20  21
HETATM   21  O2  UNL     1      16.729  13.961  12.556  1.00  0.00    -0.397 OA
ATOM     22  H2  UNL     1      17.371  13.718  11.899  1.00  0.00     0.209 HD
ENDBRANCH  20  21
ENDBRANCH  12  20
ENDBRANCH   9  12
ENDBRANCH   4   9
BRANCH   1  23
HETATM   23  N1  UNL     1      13.467   7.930  12.538  1.00  0.00    -0.383 N 
ATOM     24  H12 UNL     1      12.668   7.737  13.142  1.00  0.00     0.157 HD
ATOM     25  H11 UNL     1      14.005   7.167  12.127  1.00  0.00     0.157 HD
ENDBRANCH   1  23
BRANCH   8  26
HETATM   26  N8  UNL     1      13.066   8.841  10.002  1.00  0.00    -0.264 N 
ATOM     27  H8  UNL     1      13.679   8.392   9.322  1.00  0.00     0.194 HD
BRANCH  26  28
HETATM   28  O3  UNL     1      11.840   8.668   9.925  1.00  0.00    -0.289 OA
ATOM     29  H3  UNL     1      11.428   7.903  10.310  1.00  0.00     0.244 HD
ENDBRANCH  26  28
ENDBRANCH   8  26
TORSDOF 8
ENDMDL
MODEL 5
REMARK VINA RESULT: -5.271709564      6.836      9.149
REMARK  8 active torsions:
REMARK  status: ('A' for Active; 'I' for Inactive)
REMARK    1  A    between atoms: N1_1  and  C1_4 
REMARK    2  A    between atoms: C2_7  and  C3_8 
REMARK    3  A    between atoms: C3_8  and  O1_9 
REMARK    4  A    between atoms: C3_8  and  C4_11 
REMARK    5  A    between atoms: C4_11  and  C5_12 
REMARK    6  A    between atoms: C5_12  and  O2_13 
REMARK    7  A    between atoms: C8_25  and  N8_26 
REMARK    8  A    between atoms: N8_26  and  O3_28 
ROOT
HETATM    1  C1  UNL     1      14.871  11.479  13.881  1.00  0.00     0.130 A 
HETATM    2  N2  UNL     1      15.894  11.438  14.747  1.00  0.00    -0.328 N 
ATOM      3  H2  UNL     1      15.695  11.466  15.747  1.00  0.00     0.169 HD
HETATM    4  C2  UNL     1      17.194  11.358  14.334  1.00  0.00     0.116 A 
HETATM    5  N7  UNL     1      17.387  11.325  13.004  1.00  0.00    -0.351 N 
ATOM      6  H7  UNL     1      18.345  11.266  12.660  1.00  0.00     0.166 HD
HETATM    7  C7  UNL     1      16.394  11.365  12.099  1.00  0.00     0.124 A 
HETATM    8  C8  UNL     1      15.098  11.444  12.526  1.00  0.00     0.113 A 
ENDROOT
BRANCH   4   9
HETATM    9  C3  UNL     1      18.290  11.312  15.336  1.00  0.00     0.233 C 
BRANCH   9  10
HETATM   10  O1  UNL     1      17.839  11.592  16.630  1.00  0.00    -0.384 OA
ATOM     11  H1  UNL     1      18.512  11.451  17.285  1.00  0.00     0.210 HD
ENDBRANCH   9  10
BRANCH   9  12
HETATM   12  C4  UNL     1      19.073  10.042  15.341  1.00  0.00     0.174 C 
HETATM   13  N3  UNL     1      19.273   9.490  16.647  1.00  0.00    -0.357 N 
HETATM   14  C6  UNL     1      19.172   8.073  16.731  1.00  0.00     0.192 C 
ATOM     15  H3  UNL     1      19.474  10.072  17.460  1.00  0.00     0.162 HD
HETATM   16  N4  UNL     1      19.524   7.355  15.555  1.00  0.00    -0.284 N 
HETATM   17  N5  UNL     1      19.024   7.904  14.378  1.00  0.00    -0.028 NA
ATOM     18  H4  UNL     1      20.095   6.510  15.573  1.00  0.00     0.184 HD
HETATM   19  N6  UNL     1      18.302   9.066  14.580  1.00  0.00    -0.089 NA
BRANCH  12  20
HETATM   20  C5  UNL     1      20.416  10.289  14.710  1.00  0.00     0.217 C 
BRANCH  20  21
HETATM   21  O2  UNL     1      20.391  10.174  13.329  1.00  0.00    -0.397 OA
ATOM     22  H2  UNL     1      20.197   9.291  13.036  1.00  0.00     0.209 HD
ENDBRANCH  20  21
ENDBRANCH  12  20
ENDBRANCH   9  12
ENDBRANCH   4   9
BRANCH   1  23
HETATM   23  N1  UNL     1      13.676  11.553  14.334  1.00  0.00    -0.383 N 
ATOM     24  H12 UNL     1      13.445  12.220  15.070  1.00  0.00     0.157 HD
ATOM     25  H11 UNL     1      12.960  10.936  13.949  1.00  0.00     0.157 HD
ENDBRANCH   1  23
BRANCH   8  26
HETATM   26  N8  UNL     1      13.985  11.490  11.627  1.00  0.00    -0.264 N 
ATOM     27  H8  UNL     1      13.036  11.495  12.002  1.00  0.00     0.194 HD
BRANCH  26  28
HETATM   28  O3  UNL     1      14.155  11.524  10.398  1.00  0.00    -0.289 OA
ATOM     29  H3  UNL     1      13.455  11.793   9.814  1.00  0.00     0.244 HD
ENDBRANCH  26  28
ENDBRANCH   8  26
TORSDOF 8
ENDMDL
