MODEL 1
REMARK VINA RESULT: -8.654357057      0.000      0.000
REMARK  10 active torsions:
REMARK  status: ('A' for Active; 'I' for Inactive)
REMARK    1  A    between atoms: O1_2  and  C2_3 
REMARK    2  A    between atoms: C11_13  and  O3_14 
REMARK    3  A    between atoms: O3_14  and  C12_15 
REMARK    4  A    between atoms: C12_15  and  C13_16 
REMARK    5  A    between atoms: C13_16  and  C14_17 
REMARK    6  A    between atoms: C14_17  and  C15_18 
REMARK    7  A    between atoms: C15_18  and  C16_19 
REMARK    8  A    between atoms: C16_19  and  N1_20 
REMARK       I    between atoms: C17_22  and  N3_24 
REMARK    9  A    between atoms: N3_24  and  N4_26 
REMARK   10  A    between atoms: N4_26  and  C18_28 
ROOT
HETATM    1  O3  UNL     1      35.255   8.913   8.425  1.00  0.00    -0.351 OA
ENDROOT
BRANCH   1   2
HETATM    2  C11 UNL     1      36.634   9.135   8.593  1.00  0.00     0.069 A 
HETATM    3  C10 UNL     1      37.466   8.099   8.956  1.00  0.00     0.053 A 
HETATM    4  C9  UNL     1      38.836   8.311   9.125  1.00  0.00     0.029 A 
HETATM    5  C8  UNL     1      39.948   7.440   9.494  1.00  0.00     0.194 A 
HETATM    6  C21 UNL     1      39.395   9.558   8.933  1.00  0.00    -0.011 A 
HETATM    7  C6  UNL     1      41.191   8.203   9.520  1.00  0.00     0.029 A 
HETATM    8  O2  UNL     1      39.838   6.211   9.752  1.00  0.00    -0.287 OA
HETATM    9  C5  UNL     1      40.838   9.491   9.176  1.00  0.00    -0.011 A 
HETATM   10  C7  UNL     1      42.508   7.876   9.801  1.00  0.00     0.053 A 
HETATM   11  C4  UNL     1      41.861  10.421   9.130  1.00  0.00     0.016 A 
HETATM   12  C3  UNL     1      43.177  10.117   9.404  1.00  0.00     0.037 A 
HETATM   13  C2  UNL     1      43.516   8.826   9.747  1.00  0.00     0.069 A 
HETATM   14  C20 UNL     1      38.560  10.598   8.570  1.00  0.00     0.016 A 
HETATM   15  C19 UNL     1      37.206  10.374   8.406  1.00  0.00     0.037 A 
BRANCH  13  16
HETATM   16  O1  UNL     1      44.829   8.533  10.019  1.00  0.00    -0.356 OA
HETATM   17  C1  UNL     1      45.193   7.401  10.770  1.00  0.00     0.210 C 
ENDBRANCH  13  16
ENDBRANCH   1   2
BRANCH   1  18
HETATM   18  C12 UNL     1      34.676   9.012   7.136  1.00  0.00     0.175 C 
BRANCH  18  19
HETATM   19  C13 UNL     1      33.738  10.172   7.129  1.00  0.00     0.027 C 
BRANCH  19  20
HETATM   20  C14 UNL     1      33.426  10.704   8.499  1.00  0.00     0.004 C 
BRANCH  20  21
HETATM   21  C15 UNL     1      33.549  12.194   8.516  1.00  0.00     0.020 C 
BRANCH  21  22
HETATM   22  C16 UNL     1      33.969  12.637   9.897  1.00  0.00     0.122 C 
BRANCH  22  23
HETATM   23  N1  UNL     1      32.780  13.035  10.627  1.00  0.00    -0.363 N 
HETATM   24  C17 UNL     1      32.456  12.312  11.656  1.00  0.00     0.203 C 
HETATM   25  N2  UNL     1      31.310  12.655  12.399  1.00  0.00    -0.062 NA
HETATM   26  N3  UNL     1      33.206  11.182  12.073  1.00  0.00    -0.273 N 
ATOM     27  H3  UNL     1      33.007  10.266  11.672  1.00  0.00     0.189 HD
ATOM     28  H1  UNL     1      32.226  13.843  10.346  1.00  0.00     0.162 HD
BRANCH  26  29
HETATM   29  N4  UNL     1      34.208  11.317  13.020  1.00  0.00    -0.294 N 
ATOM     30  H4  UNL     1      34.443  12.248  13.364  1.00  0.00     0.187 HD
BRANCH  29  31
HETATM   31  C18 UNL     1      34.917  10.191  13.527  1.00  0.00     0.190 C 
HETATM   32  N5  UNL     1      34.889   9.840  14.751  1.00  0.00    -0.394 N 
ATOM     33  H52 UNL     1      34.324  10.404  15.387  1.00  0.00     0.156 HD
ATOM     34  H51 UNL     1      35.396   9.034  15.114  1.00  0.00     0.156 HD
ENDBRANCH  29  31
ENDBRANCH  26  29
ENDBRANCH  22  23
ENDBRANCH  21  22
ENDBRANCH  20  21
ENDBRANCH  19  20
ENDBRANCH  18  19
ENDBRANCH   1  18
TORSDOF 10
ENDMDL
MODEL 2
REMARK VINA RESULT: -8.646960012      3.861      6.449
REMARK  10 active torsions:
REMARK  status: ('A' for Active; 'I' for Inactive)
REMARK    1  A    between atoms: O1_2  and  C2_3 
REMARK    2  A    between atoms: C11_13  and  O3_14 
REMARK    3  A    between atoms: O3_14  and  C12_15 
REMARK    4  A    between atoms: C12_15  and  C13_16 
REMARK    5  A    between atoms: C13_16  and  C14_17 
REMARK    6  A    between atoms: C14_17  and  C15_18 
REMARK    7  A    between atoms: C15_18  and  C16_19 
REMARK    8  A    between atoms: C16_19  and  N1_20 
REMARK       I    between atoms: C17_22  and  N3_24 
REMARK    9  A    between atoms: N3_24  and  N4_26 
REMARK   10  A    between atoms: N4_26  and  C18_28 
ROOT
HETATM    1  O3  UNL     1      36.593   9.089   8.836  1.00  0.00    -0.351 OA
ENDROOT
BRANCH   1   2
HETATM    2  C11 UNL     1      36.505   8.708  10.187  1.00  0.00     0.069 A 
HETATM    3  C10 UNL     1      35.775   9.465  11.077  1.00  0.00     0.053 A 
HETATM    4  C9  UNL     1      35.684   9.094  12.420  1.00  0.00     0.029 A 
HETATM    5  C8  UNL     1      35.005   9.672  13.576  1.00  0.00     0.194 A 
HETATM    6  C21 UNL     1      36.318   7.964  12.894  1.00  0.00    -0.011 A 
HETATM    7  C6  UNL     1      35.251   8.855  14.759  1.00  0.00     0.029 A 
HETATM    8  O2  UNL     1      34.310  10.724  13.545  1.00  0.00    -0.287 OA
HETATM    9  C5  UNL     1      36.053   7.818  14.328  1.00  0.00    -0.011 A 
HETATM   10  C7  UNL     1      34.856   8.945  16.084  1.00  0.00     0.053 A 
HETATM   11  C4  UNL     1      36.432   6.891  15.281  1.00  0.00     0.016 A 
HETATM   12  C3  UNL     1      36.049   6.962  16.604  1.00  0.00     0.037 A 
HETATM   13  C2  UNL     1      35.248   8.003  17.021  1.00  0.00     0.069 A 
HETATM   14  C20 UNL     1      37.051   7.205  12.002  1.00  0.00     0.016 A 
HETATM   15  C19 UNL     1      37.133   7.583  10.674  1.00  0.00     0.037 A 
BRANCH  13  16
HETATM   16  O1  UNL     1      34.873   8.065  18.341  1.00  0.00    -0.356 OA
HETATM   17  C1  UNL     1      35.762   8.494  19.342  1.00  0.00     0.210 C 
ENDBRANCH  13  16
ENDBRANCH   1   2
BRANCH   1  18
HETATM   18  C12 UNL     1      35.752   8.476   7.874  1.00  0.00     0.175 C 
BRANCH  18  19
HETATM   19  C13 UNL     1      35.414   9.488   6.831  1.00  0.00     0.027 C 
BRANCH  19  20
HETATM   20  C14 UNL     1      33.939   9.747   6.699  1.00  0.00     0.004 C 
BRANCH  20  21
HETATM   21  C15 UNL     1      33.323   9.933   8.049  1.00  0.00     0.020 C 
BRANCH  21  22
HETATM   22  C16 UNL     1      33.313  11.405   8.386  1.00  0.00     0.122 C 
BRANCH  22  23
HETATM   23  N1  UNL     1      34.512  11.704   9.145  1.00  0.00    -0.363 N 
HETATM   24  C17 UNL     1      34.379  12.510  10.155  1.00  0.00     0.203 C 
HETATM   25  N2  UNL     1      35.512  12.833  10.926  1.00  0.00    -0.062 NA
HETATM   26  N3  UNL     1      33.136  13.085  10.525  1.00  0.00    -0.273 N 
ATOM     27  H3  UNL     1      32.837  13.962  10.099  1.00  0.00     0.189 HD
ATOM     28  H1  UNL     1      35.415  11.302   8.898  1.00  0.00     0.162 HD
BRANCH  26  29
HETATM   29  N4  UNL     1      32.326  12.463  11.462  1.00  0.00    -0.294 N 
ATOM     30  H4  UNL     1      32.364  11.448  11.553  1.00  0.00     0.187 HD
BRANCH  29  31
HETATM   31  C18 UNL     1      31.444  13.203  12.300  1.00  0.00     0.190 C 
HETATM   32  N5  UNL     1      30.838  14.256  11.921  1.00  0.00    -0.394 N 
ATOM     33  H52 UNL     1      31.003  14.573  10.964  1.00  0.00     0.156 HD
ATOM     34  H51 UNL     1      30.206  14.786  12.521  1.00  0.00     0.156 HD
ENDBRANCH  29  31
ENDBRANCH  26  29
ENDBRANCH  22  23
ENDBRANCH  21  22
ENDBRANCH  20  21
ENDBRANCH  19  20
ENDBRANCH  18  19
ENDBRANCH   1  18
TORSDOF 10
ENDMDL
MODEL 3
REMARK VINA RESULT: -8.611043951      2.344      2.785
REMARK  10 active torsions:
REMARK  status: ('A' for Active; 'I' for Inactive)
REMARK    1  A    between atoms: O1_2  and  C2_3 
REMARK    2  A    between atoms: C11_13  and  O3_14 
REMARK    3  A    between atoms: O3_14  and  C12_15 
REMARK    4  A    between atoms: C12_15  and  C13_16 
REMARK    5  A    between atoms: C13_16  and  C14_17 
REMARK    6  A    between atoms: C14_17  and  C15_18 
REMARK    7  A    between atoms: C15_18  and  C16_19 
REMARK    8  A    between atoms: C16_19  and  N1_20 
REMARK       I    between atoms: C17_22  and  N3_24 
REMARK    9  A    between atoms: N3_24  and  N4_26 
REMARK   10  A    between atoms: N4_26  and  C18_28 
ROOT
HETATM    1  O3  UNL     1      34.775   8.934   7.037  1.00  0.00    -0.351 OA
ENDROOT
BRANCH   1   2
HETATM    2  C11 UNL     1      35.679   9.145   8.093  1.00  0.00     0.069 A 
HETATM    3  C10 UNL     1      36.899   9.740   7.856  1.00  0.00     0.053 A 
HETATM    4  C9  UNL     1      37.802   9.953   8.899  1.00  0.00     0.029 A 
HETATM    5  C8  UNL     1      39.136  10.544   8.966  1.00  0.00     0.194 A 
HETATM    6  C21 UNL     1      37.503   9.576  10.192  1.00  0.00    -0.011 A 
HETATM    7  C6  UNL     1      39.629  10.509  10.338  1.00  0.00     0.029 A 
HETATM    8  O2  UNL     1      39.761  11.012   7.975  1.00  0.00    -0.287 OA
HETATM    9  C5  UNL     1      38.623   9.916  11.073  1.00  0.00    -0.011 A 
HETATM   10  C7  UNL     1      40.803  10.926  10.944  1.00  0.00     0.053 A 
HETATM   11  C4  UNL     1      38.854   9.767  12.429  1.00  0.00     0.016 A 
HETATM   12  C3  UNL     1      40.014  10.175  13.051  1.00  0.00     0.037 A 
HETATM   13  C2  UNL     1      41.011  10.765  12.305  1.00  0.00     0.069 A 
HETATM   14  C20 UNL     1      36.281   8.978  10.430  1.00  0.00     0.016 A 
HETATM   15  C19 UNL     1      35.394   8.773   9.389  1.00  0.00     0.037 A 
BRANCH  13  16
HETATM   16  O1  UNL     1      42.163  11.168  12.934  1.00  0.00    -0.356 OA
HETATM   17  C1  UNL     1      42.252  11.241  14.335  1.00  0.00     0.210 C 
ENDBRANCH  13  16
ENDBRANCH   1   2
BRANCH   1  18
HETATM   18  C12 UNL     1      33.449   9.424   7.135  1.00  0.00     0.175 C 
BRANCH  18  19
HETATM   19  C13 UNL     1      33.500  10.914   7.188  1.00  0.00     0.027 C 
BRANCH  19  20
HETATM   20  C14 UNL     1      33.132  11.482   8.530  1.00  0.00     0.004 C 
BRANCH  20  21
HETATM   21  C15 UNL     1      33.856  12.769   8.763  1.00  0.00     0.020 C 
BRANCH  21  22
HETATM   22  C16 UNL     1      34.147  12.911  10.238  1.00  0.00     0.122 C 
BRANCH  22  23
HETATM   23  N1  UNL     1      32.898  13.187  10.921  1.00  0.00    -0.363 N 
HETATM   24  C17 UNL     1      32.529  12.339  11.832  1.00  0.00     0.203 C 
HETATM   25  N2  UNL     1      31.324  12.561  12.526  1.00  0.00    -0.062 NA
HETATM   26  N3  UNL     1      33.288  11.188  12.168  1.00  0.00    -0.273 N 
ATOM     27  H3  UNL     1      33.148  10.321  11.650  1.00  0.00     0.189 HD
ATOM     28  H1  UNL     1      32.336  14.009  10.697  1.00  0.00     0.162 HD
BRANCH  26  29
HETATM   29  N4  UNL     1      34.217  11.235  13.195  1.00  0.00    -0.294 N 
ATOM     30  H4  UNL     1      34.425  12.132  13.634  1.00  0.00     0.187 HD
BRANCH  29  31
HETATM   31  C18 UNL     1      34.888  10.066  13.653  1.00  0.00     0.190 C 
HETATM   32  N5  UNL     1      34.889   9.693  14.871  1.00  0.00    -0.394 N 
ATOM     33  H52 UNL     1      34.377  10.271  15.538  1.00  0.00     0.156 HD
ATOM     34  H51 UNL     1      35.369   8.856  15.200  1.00  0.00     0.156 HD
ENDBRANCH  29  31
ENDBRANCH  26  29
ENDBRANCH  22  23
ENDBRANCH  21  22
ENDBRANCH  20  21
ENDBRANCH  19  20
ENDBRANCH  18  19
ENDBRANCH   1  18
TORSDOF 10
ENDMDL
MODEL 4
REMARK VINA RESULT: -8.558811451      1.221      1.440
REMARK  10 active torsions:
REMARK  status: ('A' for Active; 'I' for Inactive)
REMARK    1  A    between atoms: O1_2  and  C2_3 
REMARK    2  A    between atoms: C11_13  and  O3_14 
REMARK    3  A    between atoms: O3_14  and  C12_15 
REMARK    4  A    between atoms: C12_15  and  C13_16 
REMARK    5  A    between atoms: C13_16  and  C14_17 
REMARK    6  A    between atoms: C14_17  and  C15_18 
REMARK    7  A    between atoms: C15_18  and  C16_19 
REMARK    8  A    between atoms: C16_19  and  N1_20 
REMARK       I    between atoms: C17_22  and  N3_24 
REMARK    9  A    between atoms: N3_24  and  N4_26 
REMARK   10  A    between atoms: N4_26  and  C18_28 
ROOT
HETATM    1  O3  UNL     1      34.521   9.572   9.334  1.00  0.00    -0.351 OA
ENDROOT
BRANCH   1   2
HETATM    2  C11 UNL     1      35.896   9.304   9.208  1.00  0.00     0.069 A 
HETATM    3  C10 UNL     1      36.383   8.037   9.443  1.00  0.00     0.053 A 
HETATM    4  C9  UNL     1      37.746   7.764   9.320  1.00  0.00     0.029 A 
HETATM    5  C8  UNL     1      38.547   6.555   9.497  1.00  0.00     0.194 A 
HETATM    6  C21 UNL     1      38.643   8.748   8.961  1.00  0.00    -0.011 A 
HETATM    7  C6  UNL     1      39.952   6.845   9.234  1.00  0.00     0.029 A 
HETATM    8  O2  UNL     1      38.081   5.431   9.830  1.00  0.00    -0.287 OA
HETATM    9  C5  UNL     1      39.995   8.185   8.909  1.00  0.00    -0.011 A 
HETATM   10  C7  UNL     1      41.107   6.081   9.258  1.00  0.00     0.053 A 
HETATM   11  C4  UNL     1      41.240   8.710   8.613  1.00  0.00     0.016 A 
HETATM   12  C3  UNL     1      42.400   7.967   8.629  1.00  0.00     0.037 A 
HETATM   13  C2  UNL     1      42.343   6.629   8.955  1.00  0.00     0.069 A 
HETATM   14  C20 UNL     1      38.156  10.020   8.726  1.00  0.00     0.016 A 
HETATM   15  C19 UNL     1      36.803  10.278   8.851  1.00  0.00     0.037 A 
BRANCH  13  16
HETATM   16  O1  UNL     1      43.505   5.897   8.970  1.00  0.00    -0.356 OA
HETATM   17  C1  UNL     1      44.582   6.239   9.807  1.00  0.00     0.210 C 
ENDBRANCH  13  16
ENDBRANCH   1   2
BRANCH   1  18
HETATM   18  C12 UNL     1      33.671   9.444   8.208  1.00  0.00     0.175 C 
BRANCH  18  19
HETATM   19  C13 UNL     1      33.680  10.736   7.461  1.00  0.00     0.027 C 
BRANCH  19  20
HETATM   20  C14 UNL     1      33.061  11.875   8.220  1.00  0.00     0.004 C 
BRANCH  20  21
HETATM   21  C15 UNL     1      34.108  12.869   8.608  1.00  0.00     0.020 C 
BRANCH  21  22
HETATM   22  C16 UNL     1      34.304  12.818  10.105  1.00  0.00     0.122 C 
BRANCH  22  23
HETATM   23  N1  UNL     1      33.021  13.052  10.738  1.00  0.00    -0.363 N 
HETATM   24  C17 UNL     1      32.643  12.190  11.632  1.00  0.00     0.203 C 
HETATM   25  N2  UNL     1      31.405  12.371  12.278  1.00  0.00    -0.062 NA
HETATM   26  N3  UNL     1      33.425  11.062  11.995  1.00  0.00    -0.273 N 
ATOM     27  H3  UNL     1      33.335  10.193  11.471  1.00  0.00     0.189 HD
ATOM     28  H1  UNL     1      32.443  13.855  10.493  1.00  0.00     0.162 HD
BRANCH  26  29
HETATM   29  N4  UNL     1      34.311  11.136  13.059  1.00  0.00    -0.294 N 
ATOM     30  H4  UNL     1      34.513  12.047  13.473  1.00  0.00     0.187 HD
BRANCH  29  31
HETATM   31  C18 UNL     1      34.945   9.977  13.589  1.00  0.00     0.190 C 
HETATM   32  N5  UNL     1      34.885   9.648  14.818  1.00  0.00    -0.394 N 
ATOM     33  H52 UNL     1      34.352  10.256  15.440  1.00  0.00     0.156 HD
ATOM     34  H51 UNL     1      35.339   8.818  15.198  1.00  0.00     0.156 HD
ENDBRANCH  29  31
ENDBRANCH  26  29
ENDBRANCH  22  23
ENDBRANCH  21  22
ENDBRANCH  20  21
ENDBRANCH  19  20
ENDBRANCH  18  19
ENDBRANCH   1  18
TORSDOF 10
ENDMDL
MODEL 5
REMARK VINA RESULT: -8.538662949      1.140      1.811
REMARK  10 active torsions:
REMARK  status: ('A' for Active; 'I' for Inactive)
REMARK    1  A    between atoms: O1_2  and  C2_3 
REMARK    2  A    between atoms: C11_13  and  O3_14 
REMARK    3  A    between atoms: O3_14  and  C12_15 
REMARK    4  A    between atoms: C12_15  and  C13_16 
REMARK    5  A    between atoms: C13_16  and  C14_17 
REMARK    6  A    between atoms: C14_17  and  C15_18 
REMARK    7  A    between atoms: C15_18  and  C16_19 
REMARK    8  A    between atoms: C16_19  and  N1_20 
REMARK       I    between atoms: C17_22  and  N3_24 
REMARK    9  A    between atoms: N3_24  and  N4_26 
REMARK   10  A    between atoms: N4_26  and  C18_28 
ROOT
HETATM    1  O3  UNL     1      35.162   8.942   8.369  1.00  0.00    -0.351 OA
ENDROOT
BRANCH   1   2
HETATM    2  C11 UNL     1      36.476   8.564   8.698  1.00  0.00     0.069 A 
HETATM    3  C10 UNL     1      37.511   9.466   8.582  1.00  0.00     0.053 A 
HETATM    4  C9  UNL     1      38.817   9.098   8.906  1.00  0.00     0.029 A 
HETATM    5  C8  UNL     1      40.093   9.808   8.889  1.00  0.00     0.194 A 
HETATM    6  C21 UNL     1      39.112   7.825   9.350  1.00  0.00    -0.011 A 
HETATM    7  C6  UNL     1      41.163   8.923   9.336  1.00  0.00     0.029 A 
HETATM    8  O2  UNL     1      40.238  11.010   8.537  1.00  0.00    -0.287 OA
HETATM    9  C5  UNL     1      40.549   7.718   9.613  1.00  0.00    -0.011 A 
HETATM   10  C7  UNL     1      42.528   9.081   9.505  1.00  0.00     0.053 A 
HETATM   11  C4  UNL     1      41.367   6.697  10.062  1.00  0.00     0.016 A 
HETATM   12  C3  UNL     1      42.727   6.834  10.238  1.00  0.00     0.037 A 
HETATM   13  C2  UNL     1      43.327   8.043   9.958  1.00  0.00     0.069 A 
HETATM   14  C20 UNL     1      38.075   6.919   9.466  1.00  0.00     0.016 A 
HETATM   15  C19 UNL     1      36.785   7.296   9.142  1.00  0.00     0.037 A 
BRANCH  13  16
HETATM   16  O1  UNL     1      44.683   8.170  10.135  1.00  0.00    -0.356 OA
HETATM   17  C1  UNL     1      45.402   7.297  10.970  1.00  0.00     0.210 C 
ENDBRANCH  13  16
ENDBRANCH   1   2
BRANCH   1  18
HETATM   18  C12 UNL     1      34.850   9.326   7.041  1.00  0.00     0.175 C 
BRANCH  18  19
HETATM   19  C13 UNL     1      33.761  10.344   7.088  1.00  0.00     0.027 C 
BRANCH  19  20
HETATM   20  C14 UNL     1      33.438  10.817   8.478  1.00  0.00     0.004 C 
BRANCH  20  21
HETATM   21  C15 UNL     1      33.477  12.311   8.539  1.00  0.00     0.020 C 
BRANCH  21  22
HETATM   22  C16 UNL     1      33.916  12.736   9.919  1.00  0.00     0.122 C 
BRANCH  22  23
HETATM   23  N1  UNL     1      32.734  13.085  10.683  1.00  0.00    -0.363 N 
HETATM   24  C17 UNL     1      32.438  12.318  11.688  1.00  0.00     0.203 C 
HETATM   25  N2  UNL     1      31.301  12.613  12.464  1.00  0.00    -0.062 NA
HETATM   26  N3  UNL     1      33.214  11.185  12.048  1.00  0.00    -0.273 N 
ATOM     27  H3  UNL     1      33.023  10.282  11.616  1.00  0.00     0.189 HD
ATOM     28  H1  UNL     1      32.162  13.894  10.443  1.00  0.00     0.162 HD
BRANCH  26  29
HETATM   29  N4  UNL     1      34.229  11.300  12.984  1.00  0.00    -0.294 N 
ATOM     30  H4  UNL     1      34.509  12.228  13.301  1.00  0.00     0.187 HD
BRANCH  29  31
HETATM   31  C18 UNL     1      34.892  10.157  13.515  1.00  0.00     0.190 C 
HETATM   32  N5  UNL     1      34.870   9.847  14.750  1.00  0.00    -0.394 N 
ATOM     33  H52 UNL     1      34.346  10.459  15.377  1.00  0.00     0.156 HD
ATOM     34  H51 UNL     1      35.345   9.029  15.131  1.00  0.00     0.156 HD
ENDBRANCH  29  31
ENDBRANCH  26  29
ENDBRANCH  22  23
ENDBRANCH  21  22
ENDBRANCH  20  21
ENDBRANCH  19  20
ENDBRANCH  18  19
ENDBRANCH   1  18
TORSDOF 10
ENDMDL
