MODEL 1
REMARK VINA RESULT: -6.564943590      0.000      0.000
REMARK  7 active torsions:
REMARK  status: ('A' for Active; 'I' for Inactive)
REMARK    1  A    between atoms: C2_2  and  O1_3 
REMARK    2  A    between atoms: O1_3  and  C3_4 
REMARK       I    between atoms: C3_4  and  N1_6 
REMARK    3  A    between atoms: N1_6  and  C4_8 
REMARK    4  A    between atoms: C4_8  and  N2_9 
REMARK    5  A    between atoms: C4_8  and  C5_13 
REMARK    6  A    between atoms: C4_8  and  C7_22 
REMARK    7  A    between atoms: C5_13  and  N3_14 
ROOT
HETATM    1  C4  UNL     1      -0.561  -2.701   4.086  1.00  0.00     0.296 C 
ENDROOT
BRANCH   1   2
HETATM    2  N1  UNL     1      -0.481  -2.515   5.524  1.00  0.00    -0.295 N 
HETATM    3  C3  UNL     1       0.258  -3.431   6.306  1.00  0.00     0.362 C 
HETATM    4  O2  UNL     1       0.834  -4.393   5.755  1.00  0.00    -0.238 OA
ATOM      5  H1  UNL     1      -0.957  -1.728   5.967  1.00  0.00     0.167 HD
BRANCH   3   6
HETATM    6  O1  UNL     1       0.367  -3.296   7.679  1.00  0.00    -0.304 OA
BRANCH   6   7
HETATM    7  C2  UNL     1       1.599  -3.075   8.325  1.00  0.00     0.176 C 
HETATM    8  C1  UNL     1       2.343  -4.381   8.383  1.00  0.00     0.034 C 
ENDBRANCH   6   7
ENDBRANCH   3   6
ENDBRANCH   1   2
BRANCH   1   9
HETATM    9  N2  UNL     1       0.698  -2.435   3.497  1.00  0.00    -0.042 N 
ATOM     10  H23 UNL     1       0.610  -1.907   2.629  1.00  0.00     0.278 HD
ATOM     11  H22 UNL     1       1.234  -1.752   4.032  1.00  0.00     0.278 HD
ATOM     12  H21 UNL     1       1.210  -3.307   3.365  1.00  0.00     0.278 HD
ENDBRANCH   1   9
BRANCH   1  13
HETATM   13  C5  UNL     1      -1.116  -4.079   3.781  1.00  0.00     0.238 C 
BRANCH  13  14
HETATM   14  N3  UNL     1      -0.898  -4.427   2.376  1.00  0.00    -0.211 N 
HETATM   15  N4  UNL     1       0.338  -4.548   1.733  1.00  0.00    -0.257 N 
HETATM   16  C6  UNL     1       0.165  -4.363   0.445  1.00  0.00     0.221 C 
ATOM     17  H4  UNL     1       1.227  -4.747   2.190  1.00  0.00     0.191 HD
HETATM   18  N5  UNL     1       1.159  -4.401  -0.563  1.00  0.00    -0.061 NA
HETATM   19  N6  UNL     1      -1.223  -4.118   0.258  1.00  0.00    -0.255 N 
HETATM   20  N7  UNL     1      -1.848  -4.708   1.388  1.00  0.00    -0.002 NA
ATOM     21  H6  UNL     1      -1.671  -3.627  -0.516  1.00  0.00     0.187 HD
ENDBRANCH  13  14
ENDBRANCH   1  13
BRANCH   1  22
HETATM   22  C7  UNL     1      -1.552  -1.741   3.553  1.00  0.00     0.290 C 
HETATM   23  N8  UNL     1      -2.169  -0.839   4.449  1.00  0.00    -0.058 NA
HETATM   24  O3  UNL     1      -1.849  -1.714   2.348  1.00  0.00    -0.272 OA
ENDBRANCH   1  22
TORSDOF 7
ENDMDL
MODEL 2
REMARK VINA RESULT: -6.306739117      2.269      5.717
REMARK  7 active torsions:
REMARK  status: ('A' for Active; 'I' for Inactive)
REMARK    1  A    between atoms: C2_2  and  O1_3 
REMARK    2  A    between atoms: O1_3  and  C3_4 
REMARK       I    between atoms: C3_4  and  N1_6 
REMARK    3  A    between atoms: N1_6  and  C4_8 
REMARK    4  A    between atoms: C4_8  and  N2_9 
REMARK    5  A    between atoms: C4_8  and  C5_13 
REMARK    6  A    between atoms: C4_8  and  C7_22 
REMARK    7  A    between atoms: C5_13  and  N3_14 
ROOT
HETATM    1  C4  UNL     1      -0.905  -3.067   3.077  1.00  0.00     0.296 C 
ENDROOT
BRANCH   1   2
HETATM    2  N1  UNL     1      -0.902  -3.308   1.645  1.00  0.00    -0.295 N 
HETATM    3  C3  UNL     1      -0.380  -4.521   1.142  1.00  0.00     0.362 C 
HETATM    4  O2  UNL     1       0.076  -5.374   1.932  1.00  0.00    -0.238 OA
ATOM      5  H1  UNL     1      -1.274  -2.605   1.005  1.00  0.00     0.167 HD
BRANCH   3   6
HETATM    6  O1  UNL     1      -0.357  -4.799  -0.213  1.00  0.00    -0.304 OA
BRANCH   6   7
HETATM    7  C2  UNL     1       0.632  -4.290  -1.076  1.00  0.00     0.176 C 
HETATM    8  C1  UNL     1       0.035  -4.153  -2.451  1.00  0.00     0.034 C 
ENDBRANCH   6   7
ENDBRANCH   3   6
ENDBRANCH   1   2
BRANCH   1   9
HETATM    9  N2  UNL     1      -1.787  -3.972   3.713  1.00  0.00    -0.042 N 
ATOM     10  H23 UNL     1      -2.209  -4.624   3.053  1.00  0.00     0.278 HD
ATOM     11  H22 UNL     1      -1.290  -4.648   4.293  1.00  0.00     0.278 HD
ATOM     12  H21 UNL     1      -2.489  -3.456   4.244  1.00  0.00     0.278 HD
ENDBRANCH   1   9
BRANCH   1  13
HETATM   13  C5  UNL     1       0.517  -3.105   3.602  1.00  0.00     0.238 C 
BRANCH  13  14
HETATM   14  N3  UNL     1       0.541  -3.527   5.004  1.00  0.00    -0.211 N 
HETATM   15  N4  UNL     1       0.743  -2.704   6.115  1.00  0.00    -0.257 N 
HETATM   16  C6  UNL     1       1.198  -3.434   7.106  1.00  0.00     0.221 C 
ATOM     17  H4  UNL     1       0.565  -1.701   6.150  1.00  0.00     0.191 HD
HETATM   18  N5  UNL     1       1.533  -2.991   8.409  1.00  0.00    -0.061 NA
HETATM   19  N6  UNL     1       1.290  -4.765   6.614  1.00  0.00    -0.255 N 
HETATM   20  N7  UNL     1       0.372  -4.812   5.532  1.00  0.00    -0.002 NA
ATOM     21  H6  UNL     1       1.883  -5.519   6.961  1.00  0.00     0.187 HD
ENDBRANCH  13  14
ENDBRANCH   1  13
BRANCH   1  22
HETATM   22  C7  UNL     1      -1.383  -1.687   3.310  1.00  0.00     0.290 C 
HETATM   23  N8  UNL     1      -0.434  -0.685   3.612  1.00  0.00    -0.058 NA
HETATM   24  O3  UNL     1      -2.588  -1.397   3.246  1.00  0.00    -0.272 OA
ENDBRANCH   1  22
TORSDOF 7
ENDMDL
MODEL 3
REMARK VINA RESULT: -6.102196777      1.636      2.285
REMARK  7 active torsions:
REMARK  status: ('A' for Active; 'I' for Inactive)
REMARK    1  A    between atoms: C2_2  and  O1_3 
REMARK    2  A    between atoms: O1_3  and  C3_4 
REMARK       I    between atoms: C3_4  and  N1_6 
REMARK    3  A    between atoms: N1_6  and  C4_8 
REMARK    4  A    between atoms: C4_8  and  N2_9 
REMARK    5  A    between atoms: C4_8  and  C5_13 
REMARK    6  A    between atoms: C4_8  and  C7_22 
REMARK    7  A    between atoms: C5_13  and  N3_14 
ROOT
HETATM    1  C4  UNL     1      -0.287  -3.965   2.682  1.00  0.00     0.296 C 
ENDROOT
BRANCH   1   2
HETATM    2  N1  UNL     1      -0.099  -4.509   4.015  1.00  0.00    -0.295 N 
HETATM    3  C3  UNL     1       0.474  -3.702   5.024  1.00  0.00     0.362 C 
HETATM    4  O2  UNL     1       0.817  -2.531   4.760  1.00  0.00    -0.238 OA
ATOM      5  H1  UNL     1      -0.380  -5.468   4.222  1.00  0.00     0.167 HD
BRANCH   3   6
HETATM    6  O1  UNL     1       0.671  -4.173   6.310  1.00  0.00    -0.304 OA
BRANCH   6   7
HETATM    7  C2  UNL     1       1.255  -3.390   7.324  1.00  0.00     0.176 C 
HETATM    8  C1  UNL     1       2.195  -4.261   8.112  1.00  0.00     0.034 C 
ENDBRANCH   6   7
ENDBRANCH   3   6
ENDBRANCH   1   2
BRANCH   1   9
HETATM    9  N2  UNL     1       0.554  -2.842   2.499  1.00  0.00    -0.042 N 
ATOM     10  H23 UNL     1       1.359  -2.860   3.124  1.00  0.00     0.278 HD
ATOM     11  H22 UNL     1       1.056  -2.880   1.611  1.00  0.00     0.278 HD
ATOM     12  H21 UNL     1       0.012  -1.983   2.596  1.00  0.00     0.278 HD
ENDBRANCH   1   9
BRANCH   1  13
HETATM   13  C5  UNL     1      -0.099  -5.063   1.653  1.00  0.00     0.238 C 
BRANCH  13  14
HETATM   14  N3  UNL     1       0.244  -4.497   0.348  1.00  0.00    -0.211 N 
HETATM   15  N4  UNL     1      -0.640  -4.240  -0.704  1.00  0.00    -0.257 N 
HETATM   16  C6  UNL     1       0.033  -4.229  -1.831  1.00  0.00     0.221 C 
ATOM     17  H4  UNL     1      -1.644  -4.085  -0.611  1.00  0.00     0.191 HD
HETATM   18  N5  UNL     1      -0.482  -4.006  -3.131  1.00  0.00    -0.061 NA
HETATM   19  N6  UNL     1       1.390  -4.486  -1.490  1.00  0.00    -0.255 N 
HETATM   20  N7  UNL     1       1.498  -4.096  -0.128  1.00  0.00    -0.002 NA
ATOM     21  H6  UNL     1       2.122  -4.866  -2.089  1.00  0.00     0.187 HD
ENDBRANCH  13  14
ENDBRANCH   1  13
BRANCH   1  22
HETATM   22  C7  UNL     1      -1.696  -3.533   2.556  1.00  0.00     0.290 C 
HETATM   23  N8  UNL     1      -2.088  -2.317   3.162  1.00  0.00    -0.058 NA
HETATM   24  O3  UNL     1      -2.531  -4.212   1.938  1.00  0.00    -0.272 OA
ENDBRANCH   1  22
TORSDOF 7
ENDMDL
MODEL 4
REMARK VINA RESULT: -5.936405172      1.057      1.162
REMARK  7 active torsions:
REMARK  status: ('A' for Active; 'I' for Inactive)
REMARK    1  A    between atoms: C2_2  and  O1_3 
REMARK    2  A    between atoms: O1_3  and  C3_4 
REMARK       I    between atoms: C3_4  and  N1_6 
REMARK    3  A    between atoms: N1_6  and  C4_8 
REMARK    4  A    between atoms: C4_8  and  N2_9 
REMARK    5  A    between atoms: C4_8  and  C5_13 
REMARK    6  A    between atoms: C4_8  and  C7_22 
REMARK    7  A    between atoms: C5_13  and  N3_14 
ROOT
HETATM    1  C4  UNL     1      -0.720  -2.451   3.811  1.00  0.00     0.296 C 
ENDROOT
BRANCH   1   2
HETATM    2  N1  UNL     1      -0.409  -2.635   5.218  1.00  0.00    -0.295 N 
HETATM    3  C3  UNL     1       0.340  -3.761   5.625  1.00  0.00     0.362 C 
HETATM    4  O2  UNL     1       0.726  -4.589   4.774  1.00  0.00    -0.238 OA
ATOM      5  H1  UNL     1      -0.730  -1.954   5.907  1.00  0.00     0.167 HD
BRANCH   3   6
HETATM    6  O1  UNL     1       0.665  -3.980   6.952  1.00  0.00    -0.304 OA
BRANCH   6   7
HETATM    7  C2  UNL     1       1.793  -3.399   7.564  1.00  0.00     0.176 C 
HETATM    8  C1  UNL     1       1.350  -2.736   8.840  1.00  0.00     0.034 C 
ENDBRANCH   6   7
ENDBRANCH   3   6
ENDBRANCH   1   2
BRANCH   1   9
HETATM    9  N2  UNL     1       0.477  -2.389   3.059  1.00  0.00    -0.042 N 
ATOM     10  H23 UNL     1       0.876  -3.314   2.898  1.00  0.00     0.278 HD
ATOM     11  H22 UNL     1       0.306  -2.131   2.087  1.00  0.00     0.278 HD
ATOM     12  H21 UNL     1       1.139  -1.760   3.512  1.00  0.00     0.278 HD
ENDBRANCH   1   9
BRANCH   1  13
HETATM   13  C5  UNL     1      -1.689  -3.526   3.360  1.00  0.00     0.238 C 
BRANCH  13  14
HETATM   14  N3  UNL     1      -1.474  -3.859   1.950  1.00  0.00    -0.211 N 
HETATM   15  N4  UNL     1      -0.910  -5.037   1.452  1.00  0.00    -0.257 N 
HETATM   16  C6  UNL     1      -0.417  -4.800   0.259  1.00  0.00     0.221 C 
ATOM     17  H4  UNL     1      -0.887  -5.934   1.937  1.00  0.00     0.191 HD
HETATM   18  N5  UNL     1       0.240  -5.722  -0.591  1.00  0.00    -0.061 NA
HETATM   19  N6  UNL     1      -0.674  -3.428  -0.015  1.00  0.00    -0.255 N 
HETATM   20  N7  UNL     1      -1.776  -3.095   0.817  1.00  0.00    -0.002 NA
ATOM     21  H6  UNL     1      -0.177  -2.818  -0.664  1.00  0.00     0.187 HD
ENDBRANCH  13  14
ENDBRANCH   1  13
BRANCH   1  22
HETATM   22  C7  UNL     1      -1.444  -1.169   3.665  1.00  0.00     0.290 C 
HETATM   23  N8  UNL     1      -0.709   0.036   3.744  1.00  0.00    -0.058 NA
HETATM   24  O3  UNL     1      -2.670  -1.133   3.476  1.00  0.00    -0.272 OA
ENDBRANCH   1  22
TORSDOF 7
ENDMDL
MODEL 5
REMARK VINA RESULT: -5.816442312      1.620      2.068
REMARK  7 active torsions:
REMARK  status: ('A' for Active; 'I' for Inactive)
REMARK    1  A    between atoms: C2_2  and  O1_3 
REMARK    2  A    between atoms: O1_3  and  C3_4 
REMARK       I    between atoms: C3_4  and  N1_6 
REMARK    3  A    between atoms: N1_6  and  C4_8 
REMARK    4  A    between atoms: C4_8  and  N2_9 
REMARK    5  A    between atoms: C4_8  and  C5_13 
REMARK    6  A    between atoms: C4_8  and  C7_22 
REMARK    7  A    between atoms: C5_13  and  N3_14 
ROOT
HETATM    1  C4  UNL     1      -0.638  -3.700   2.520  1.00  0.00     0.296 C 
ENDROOT
BRANCH   1   2
HETATM    2  N1  UNL     1      -0.583  -4.256   3.860  1.00  0.00    -0.295 N 
HETATM    3  C3  UNL     1       0.267  -3.669   4.824  1.00  0.00     0.362 C 
HETATM    4  O2  UNL     1       0.966  -2.681   4.515  1.00  0.00    -0.238 OA
ATOM      5  H1  UNL     1      -1.155  -5.064   4.105  1.00  0.00     0.167 HD
BRANCH   3   6
HETATM    6  O1  UNL     1       0.353  -4.158   6.116  1.00  0.00    -0.304 OA
BRANCH   6   7
HETATM    7  C2  UNL     1       0.916  -3.417   7.173  1.00  0.00     0.176 C 
HETATM    8  C1  UNL     1       1.996  -4.248   7.810  1.00  0.00     0.034 C 
ENDBRANCH   6   7
ENDBRANCH   3   6
ENDBRANCH   1   2
BRANCH   1   9
HETATM    9  N2  UNL     1       0.657  -3.303   2.111  1.00  0.00    -0.042 N 
ATOM     10  H23 UNL     1       1.222  -2.975   2.893  1.00  0.00     0.278 HD
ATOM     11  H22 UNL     1       1.232  -4.099   1.836  1.00  0.00     0.278 HD
ATOM     12  H21 UNL     1       0.587  -2.606   1.369  1.00  0.00     0.278 HD
ENDBRANCH   1   9
BRANCH   1  13
HETATM   13  C5  UNL     1      -1.314  -4.687   1.588  1.00  0.00     0.238 C 
BRANCH  13  14
HETATM   14  N3  UNL     1      -0.633  -4.728   0.293  1.00  0.00    -0.211 N 
HETATM   15  N4  UNL     1      -0.775  -3.807  -0.749  1.00  0.00    -0.257 N 
HETATM   16  C6  UNL     1      -0.449  -4.391  -1.878  1.00  0.00     0.221 C 
ATOM     17  H4  UNL     1      -1.081  -2.840  -0.648  1.00  0.00     0.191 HD
HETATM   18  N5  UNL     1      -0.454  -3.813  -3.171  1.00  0.00    -0.061 NA
HETATM   19  N6  UNL     1      -0.086  -5.726  -1.548  1.00  0.00    -0.255 N 
HETATM   20  N7  UNL     1       0.288  -5.669  -0.180  1.00  0.00    -0.002 NA
ATOM     21  H6  UNL     1      -0.093  -6.544  -2.159  1.00  0.00     0.187 HD
ENDBRANCH  13  14
ENDBRANCH   1  13
BRANCH   1  22
HETATM   22  C7  UNL     1      -1.517  -2.510   2.551  1.00  0.00     0.290 C 
HETATM   23  N8  UNL     1      -2.127  -2.153   3.776  1.00  0.00    -0.058 NA
HETATM   24  O3  UNL     1      -1.726  -1.830   1.535  1.00  0.00    -0.272 OA
ENDBRANCH   1  22
TORSDOF 7
ENDMDL
