MODEL 1
REMARK VINA RESULT: -5.710497170      0.000      0.000
REMARK  5 active torsions:
REMARK  status: ('A' for Active; 'I' for Inactive)
REMARK    1  A    between atoms: N1_2  and  S1_4 
REMARK    2  A    between atoms: S1_4  and  N2_7 
REMARK    3  A    between atoms: N2_7  and  C2_9 
REMARK    4  A    between atoms: C5_12  and  S2_13 
REMARK    5  A    between atoms: S2_13  and  N3_14 
ROOT
HETATM    1  C2  UNL     1       3.332  42.710   3.670  1.00  0.00     0.044 A 
HETATM    2  C3  UNL     1       2.346  41.988   3.036  1.00  0.00     0.031 A 
HETATM    3  C4  UNL     1       1.310  42.575   2.339  1.00  0.00     0.027 A 
HETATM    4  C5  UNL     1       1.250  43.945   2.269  1.00  0.00     0.079 A 
HETATM    5  C6  UNL     1       2.198  44.710   2.877  1.00  0.00     0.027 A 
HETATM    6  C7  UNL     1       3.236  44.097   3.576  1.00  0.00     0.031 A 
ENDROOT
BRANCH   1   7
HETATM    7  N2  UNL     1       4.377  42.088   4.374  1.00  0.00    -0.268 N 
ATOM      8  H2  UNL     1       5.239  41.918   3.855  1.00  0.00     0.180 HD
BRANCH   7   9
HETATM    9  S1  UNL     1       4.356  41.593   5.995  1.00  0.00     0.319 S 
HETATM   10  O1  UNL     1       4.902  42.607   6.951  1.00  0.00    -0.183 OA
HETATM   11  O2  UNL     1       2.918  41.340   6.429  1.00  0.00    -0.183 OA
BRANCH   9  12
HETATM   12  N1  UNL     1       5.215  40.122   6.261  1.00  0.00    -0.307 N 
HETATM   13  C1  UNL     1       6.098  40.317   7.395  1.00  0.00     0.161 C 
ATOM     14  H1  UNL     1       5.119  39.265   5.717  1.00  0.00     0.173 HD
ENDBRANCH   9  12
ENDBRANCH   7   9
ENDBRANCH   1   7
BRANCH   4  15
HETATM   15  S2  UNL     1      -0.074  44.662   1.379  1.00  0.00     0.256 S 
HETATM   16  O3  UNL     1       0.440  45.366   0.153  1.00  0.00    -0.201 OA
HETATM   17  O4  UNL     1      -0.732  45.734   2.231  1.00  0.00    -0.201 OA
BRANCH  15  18
HETATM   18  N3  UNL     1      -1.238  43.453   0.936  1.00  0.00    -0.324 N 
ATOM     19  H32 UNL     1      -1.867  42.999   1.599  1.00  0.00     0.169 HD
ATOM     20  H31 UNL     1      -1.200  43.268  -0.066  1.00  0.00     0.169 HD
ENDBRANCH  15  18
ENDBRANCH   4  15
TORSDOF 5
ENDMDL
MODEL 2
REMARK VINA RESULT: -5.710486871      0.265      1.210
REMARK  5 active torsions:
REMARK  status: ('A' for Active; 'I' for Inactive)
REMARK    1  A    between atoms: N1_2  and  S1_4 
REMARK    2  A    between atoms: S1_4  and  N2_7 
REMARK    3  A    between atoms: N2_7  and  C2_9 
REMARK    4  A    between atoms: C5_12  and  S2_13 
REMARK    5  A    between atoms: S2_13  and  N3_14 
ROOT
HETATM    1  C2  UNL     1       3.194  42.509   3.517  1.00  0.00     0.044 A 
HETATM    2  C3  UNL     1       3.154  43.881   3.406  1.00  0.00     0.031 A 
HETATM    3  C4  UNL     1       2.175  44.554   2.703  1.00  0.00     0.027 A 
HETATM    4  C5  UNL     1       1.190  43.828   2.079  1.00  0.00     0.079 A 
HETATM    5  C6  UNL     1       1.179  42.469   2.156  1.00  0.00     0.027 A 
HETATM    6  C7  UNL     1       2.176  41.809   2.871  1.00  0.00     0.031 A 
ENDROOT
BRANCH   1   7
HETATM    7  N2  UNL     1       4.201  41.848   4.240  1.00  0.00    -0.268 N 
ATOM      8  H2  UNL     1       4.990  41.489   3.702  1.00  0.00     0.180 HD
BRANCH   7   9
HETATM    9  S1  UNL     1       4.242  41.585   5.914  1.00  0.00     0.319 S 
HETATM   10  O1  UNL     1       4.722  42.761   6.707  1.00  0.00    -0.183 OA
HETATM   11  O2  UNL     1       2.834  41.289   6.417  1.00  0.00    -0.183 OA
BRANCH   9  12
HETATM   12  N1  UNL     1       5.216  40.234   6.361  1.00  0.00    -0.307 N 
HETATM   13  C1  UNL     1       6.035  40.626   7.491  1.00  0.00     0.161 C 
ATOM     14  H1  UNL     1       5.215  39.319   5.909  1.00  0.00     0.173 HD
ENDBRANCH   9  12
ENDBRANCH   7   9
ENDBRANCH   1   7
BRANCH   4  15
HETATM   15  S2  UNL     1      -0.037  44.705   1.195  1.00  0.00     0.256 S 
HETATM   16  O3  UNL     1       0.593  45.540   0.113  1.00  0.00    -0.201 OA
HETATM   17  O4  UNL     1      -0.730  45.683   2.127  1.00  0.00    -0.201 OA
BRANCH  15  18
HETATM   18  N3  UNL     1      -1.198  43.610   0.509  1.00  0.00    -0.324 N 
ATOM     19  H32 UNL     1      -0.972  42.911  -0.199  1.00  0.00     0.169 HD
ATOM     20  H31 UNL     1      -2.121  43.766   0.914  1.00  0.00     0.169 HD
ENDBRANCH  15  18
ENDBRANCH   4  15
TORSDOF 5
ENDMDL
MODEL 3
REMARK VINA RESULT: -5.436443211      1.816      2.271
REMARK  5 active torsions:
REMARK  status: ('A' for Active; 'I' for Inactive)
REMARK    1  A    between atoms: N1_2  and  S1_4 
REMARK    2  A    between atoms: S1_4  and  N2_7 
REMARK    3  A    between atoms: N2_7  and  C2_9 
REMARK    4  A    between atoms: C5_12  and  S2_13 
REMARK    5  A    between atoms: S2_13  and  N3_14 
ROOT
HETATM    1  C2  UNL     1       2.888  42.664   3.210  1.00  0.00     0.044 A 
HETATM    2  C3  UNL     1       2.704  43.976   2.835  1.00  0.00     0.031 A 
HETATM    3  C4  UNL     1       1.680  44.389   2.007  1.00  0.00     0.027 A 
HETATM    4  C5  UNL     1       0.795  43.453   1.530  1.00  0.00     0.079 A 
HETATM    5  C6  UNL     1       0.928  42.141   1.868  1.00  0.00     0.027 A 
HETATM    6  C7  UNL     1       1.970  41.745   2.704  1.00  0.00     0.031 A 
ENDROOT
BRANCH   1   7
HETATM    7  N2  UNL     1       3.939  42.270   4.055  1.00  0.00    -0.268 N 
ATOM      8  H2  UNL     1       4.839  42.086   3.609  1.00  0.00     0.180 HD
BRANCH   7   9
HETATM    9  S1  UNL     1       3.868  42.067   5.736  1.00  0.00     0.319 S 
HETATM   10  O1  UNL     1       2.494  41.784   6.260  1.00  0.00    -0.183 OA
HETATM   11  O2  UNL     1       4.724  40.874   6.141  1.00  0.00    -0.183 OA
BRANCH   9  12
HETATM   12  N1  UNL     1       4.477  43.425   6.605  1.00  0.00    -0.307 N 
HETATM   13  C1  UNL     1       3.581  44.543   6.377  1.00  0.00     0.161 C 
ATOM     14  H1  UNL     1       5.321  43.441   7.179  1.00  0.00     0.173 HD
ENDBRANCH   9  12
ENDBRANCH   7   9
ENDBRANCH   1   7
BRANCH   4  15
HETATM   15  S2  UNL     1      -0.493  44.003   0.483  1.00  0.00     0.256 S 
HETATM   16  O3  UNL     1      -0.052  45.209  -0.301  1.00  0.00    -0.201 OA
HETATM   17  O4  UNL     1      -1.670  44.460   1.327  1.00  0.00    -0.201 OA
BRANCH  15  18
HETATM   18  N3  UNL     1      -0.989  42.734  -0.595  1.00  0.00    -0.324 N 
ATOM     19  H32 UNL     1      -1.231  41.792  -0.290  1.00  0.00     0.169 HD
ATOM     20  H31 UNL     1      -1.001  43.067  -1.559  1.00  0.00     0.169 HD
ENDBRANCH  15  18
ENDBRANCH   4  15
TORSDOF 5
ENDMDL
MODEL 4
REMARK VINA RESULT: -5.413178882      1.796      1.915
REMARK  5 active torsions:
REMARK  status: ('A' for Active; 'I' for Inactive)
REMARK    1  A    between atoms: N1_2  and  S1_4 
REMARK    2  A    between atoms: S1_4  and  N2_7 
REMARK    3  A    between atoms: N2_7  and  C2_9 
REMARK    4  A    between atoms: C5_12  and  S2_13 
REMARK    5  A    between atoms: S2_13  and  N3_14 
ROOT
HETATM    1  C2  UNL     1       2.931  42.722   3.219  1.00  0.00     0.044 A 
HETATM    2  C3  UNL     1       1.986  41.854   2.719  1.00  0.00     0.031 A 
HETATM    3  C4  UNL     1       0.954  42.254   1.895  1.00  0.00     0.027 A 
HETATM    4  C5  UNL     1       0.856  43.580   1.552  1.00  0.00     0.079 A 
HETATM    5  C6  UNL     1       1.762  44.483   2.016  1.00  0.00     0.027 A 
HETATM    6  C7  UNL     1       2.796  44.058   2.847  1.00  0.00     0.031 A 
ENDROOT
BRANCH   1   7
HETATM    7  N2  UNL     1       3.973  42.289   4.056  1.00  0.00    -0.268 N 
ATOM      8  H2  UNL     1       4.866  42.085   3.606  1.00  0.00     0.180 HD
BRANCH   7   9
HETATM    9  S1  UNL     1       3.901  42.071   5.736  1.00  0.00     0.319 S 
HETATM   10  O1  UNL     1       2.525  41.794   6.258  1.00  0.00    -0.183 OA
HETATM   11  O2  UNL     1       4.747  40.867   6.129  1.00  0.00    -0.183 OA
BRANCH   9  12
HETATM   12  N1  UNL     1       4.522  43.416   6.617  1.00  0.00    -0.307 N 
HETATM   13  C1  UNL     1       3.624  44.538   6.416  1.00  0.00     0.161 C 
ATOM     14  H1  UNL     1       5.372  43.422   7.181  1.00  0.00     0.173 HD
ENDBRANCH   9  12
ENDBRANCH   7   9
ENDBRANCH   1   7
BRANCH   4  15
HETATM   15  S2  UNL     1      -0.462  44.059   0.506  1.00  0.00     0.256 S 
HETATM   16  O3  UNL     1      -0.064  45.246  -0.328  1.00  0.00    -0.201 OA
HETATM   17  O4  UNL     1      -1.636  44.519   1.353  1.00  0.00    -0.201 OA
BRANCH  15  18
HETATM   18  N3  UNL     1      -0.943  42.740  -0.515  1.00  0.00    -0.324 N 
ATOM     19  H32 UNL     1      -1.427  42.857  -1.405  1.00  0.00     0.169 HD
ATOM     20  H31 UNL     1      -0.674  41.848  -0.099  1.00  0.00     0.169 HD
ENDBRANCH  15  18
ENDBRANCH   4  15
TORSDOF 5
ENDMDL
MODEL 5
REMARK VINA RESULT: -5.238506267      2.138      2.519
REMARK  5 active torsions:
REMARK  status: ('A' for Active; 'I' for Inactive)
REMARK    1  A    between atoms: N1_2  and  S1_4 
REMARK    2  A    between atoms: S1_4  and  N2_7 
REMARK    3  A    between atoms: N2_7  and  C2_9 
REMARK    4  A    between atoms: C5_12  and  S2_13 
REMARK    5  A    between atoms: S2_13  and  N3_14 
ROOT
HETATM    1  C2  UNL     1       2.464  43.836   2.881  1.00  0.00     0.044 A 
HETATM    2  C3  UNL     1       2.157  45.028   2.265  1.00  0.00     0.031 A 
HETATM    3  C4  UNL     1       1.170  45.152   1.308  1.00  0.00     0.027 A 
HETATM    4  C5  UNL     1       0.454  44.037   0.945  1.00  0.00     0.079 A 
HETATM    5  C6  UNL     1       0.715  42.832   1.521  1.00  0.00     0.027 A 
HETATM    6  C7  UNL     1       1.715  42.728   2.485  1.00  0.00     0.031 A 
ENDROOT
BRANCH   1   7
HETATM    7  N2  UNL     1       3.473  43.736   3.853  1.00  0.00    -0.268 N 
ATOM      8  H2  UNL     1       4.428  43.913   3.540  1.00  0.00     0.180 HD
BRANCH   7   9
HETATM    9  S1  UNL     1       3.269  43.352   5.491  1.00  0.00     0.319 S 
HETATM   10  O1  UNL     1       4.326  43.918   6.388  1.00  0.00    -0.183 OA
HETATM   11  O2  UNL     1       1.948  43.927   5.987  1.00  0.00    -0.183 OA
BRANCH   9  12
HETATM   12  N1  UNL     1       3.205  41.654   5.782  1.00  0.00    -0.307 N 
HETATM   13  C1  UNL     1       1.833  41.219   5.602  1.00  0.00     0.161 C 
ATOM     14  H1  UNL     1       3.994  41.059   6.037  1.00  0.00     0.173 HD
ENDBRANCH   9  12
ENDBRANCH   7   9
ENDBRANCH   1   7
BRANCH   4  15
HETATM   15  S2  UNL     1      -0.790  44.222  -0.270  1.00  0.00     0.256 S 
HETATM   16  O3  UNL     1      -0.552  45.469  -1.077  1.00  0.00    -0.201 OA
HETATM   17  O4  UNL     1      -2.134  44.414   0.409  1.00  0.00    -0.201 OA
BRANCH  15  18
HETATM   18  N3  UNL     1      -0.840  42.832  -1.310  1.00  0.00    -0.324 N 
ATOM     19  H32 UNL     1      -0.400  41.939  -1.087  1.00  0.00     0.169 HD
ATOM     20  H31 UNL     1      -1.364  43.039  -2.160  1.00  0.00     0.169 HD
ENDBRANCH  15  18
ENDBRANCH   4  15
TORSDOF 5
ENDMDL
