MODEL 1
REMARK VINA RESULT: -7.297575046      0.000      0.000
REMARK  2 active torsions:
REMARK  status: ('A' for Active; 'I' for Inactive)
REMARK    1  A    between atoms: N3_8  and  N4_10 
REMARK    2  A    between atoms: N4_10  and  N5_12 
ROOT
HETATM    1  C1  UNL     1      13.267  39.610  43.847  1.00  0.00     0.065 C 
HETATM    2  C2  UNL     1      13.847  38.604  43.216  1.00  0.00     0.113 A 
HETATM    3  N1  UNL     1      15.251  38.531  43.037  1.00  0.00    -0.284 N 
ATOM      4  H1  UNL     1      15.835  39.281  43.408  1.00  0.00     0.188 HD
HETATM    5  N2  UNL     1      15.862  37.465  42.367  1.00  0.00    -0.278 N 
ATOM      6  H2  UNL     1      16.875  37.446  42.255  1.00  0.00     0.189 HD
HETATM    7  C3  UNL     1      15.077  36.420  41.850  1.00  0.00     0.205 A 
HETATM    8  N3  UNL     1      15.622  35.435  41.234  1.00  0.00    -0.264 N 
ATOM      9  H3  UNL     1      15.051  34.678  40.858  1.00  0.00     0.190 HD
HETATM   10  C4  UNL     1      13.629  36.427  41.998  1.00  0.00     0.293 A 
HETATM   11  O1  UNL     1      12.909  35.501  41.540  1.00  0.00    -0.264 OA
HETATM   12  N7  UNL     1      13.054  37.531  42.683  1.00  0.00    -0.306 N 
ATOM     13  H7  UNL     1      12.041  37.563  42.802  1.00  0.00     0.170 HD
ENDROOT
BRANCH   8  14
HETATM   14  N4  UNL     1      17.009  35.420  41.089  1.00  0.00    -0.227 N 
ATOM     15  H4  UNL     1      17.616  35.659  41.872  1.00  0.00     0.210 HD
BRANCH  14  16
HETATM   16  N5  UNL     1      17.551  35.071  39.846  1.00  0.00    -0.235 N 
HETATM   17  N6  UNL     1      18.510  34.253  39.714  1.00  0.00    -0.330 N 
ATOM     18  H62 UNL     1      18.894  33.840  40.564  1.00  0.00     0.178 HD
ATOM     19  H61 UNL     1      18.905  33.999  38.809  1.00  0.00     0.178 HD
ATOM     20  H5  UNL     1      17.155  35.495  39.007  1.00  0.00     0.209 HD
ENDBRANCH  14  16
ENDBRANCH   8  14
TORSDOF 2
ENDMDL
MODEL 2
REMARK VINA RESULT: -7.091792013      3.154      4.326
REMARK  2 active torsions:
REMARK  status: ('A' for Active; 'I' for Inactive)
REMARK    1  A    between atoms: N3_8  and  N4_10 
REMARK    2  A    between atoms: N4_10  and  N5_12 
ROOT
HETATM    1  C1  UNL     1      13.187  33.620  42.898  1.00  0.00     0.065 C 
HETATM    2  C2  UNL     1      13.300  34.937  42.861  1.00  0.00     0.113 A 
HETATM    3  N1  UNL     1      14.084  35.656  43.798  1.00  0.00    -0.284 N 
ATOM      4  H1  UNL     1      14.580  35.141  44.525  1.00  0.00     0.188 HD
HETATM    5  N2  UNL     1      14.200  37.050  43.756  1.00  0.00    -0.278 N 
ATOM      6  H2  UNL     1      14.772  37.535  44.447  1.00  0.00     0.189 HD
HETATM    7  C3  UNL     1      13.528  37.779  42.761  1.00  0.00     0.205 A 
HETATM    8  N3  UNL     1      13.625  39.058  42.709  1.00  0.00    -0.264 N 
ATOM      9  H3  UNL     1      13.136  39.587  41.987  1.00  0.00     0.190 HD
HETATM   10  C4  UNL     1      12.706  37.108  41.766  1.00  0.00     0.293 A 
HETATM   11  O1  UNL     1      12.095  37.745  40.868  1.00  0.00    -0.264 OA
HETATM   12  N7  UNL     1      12.616  35.692  41.849  1.00  0.00    -0.306 N 
ATOM     13  H7  UNL     1      12.047  35.194  41.165  1.00  0.00     0.170 HD
ENDROOT
BRANCH   8  14
HETATM   14  N4  UNL     1      14.411  39.710  43.658  1.00  0.00    -0.227 N 
ATOM     15  H4  UNL     1      14.199  39.631  44.652  1.00  0.00     0.210 HD
BRANCH  14  16
HETATM   16  N5  UNL     1      15.499  40.476  43.219  1.00  0.00    -0.235 N 
HETATM   17  N6  UNL     1      16.242  40.131  42.252  1.00  0.00    -0.330 N 
ATOM     18  H62 UNL     1      16.024  39.253  41.782  1.00  0.00     0.178 HD
ATOM     19  H61 UNL     1      17.034  40.689  41.932  1.00  0.00     0.178 HD
ATOM     20  H5  UNL     1      15.703  41.351  43.701  1.00  0.00     0.209 HD
ENDBRANCH  14  16
ENDBRANCH   8  14
TORSDOF 2
ENDMDL
MODEL 3
REMARK VINA RESULT: -7.087434680      3.260      3.923
REMARK  2 active torsions:
REMARK  status: ('A' for Active; 'I' for Inactive)
REMARK    1  A    between atoms: N3_8  and  N4_10 
REMARK    2  A    between atoms: N4_10  and  N5_12 
ROOT
HETATM    1  C1  UNL     1      15.796  41.642  41.843  1.00  0.00     0.065 C 
HETATM    2  C2  UNL     1      15.243  40.583  42.409  1.00  0.00     0.113 A 
HETATM    3  N1  UNL     1      15.887  39.321  42.445  1.00  0.00    -0.284 N 
ATOM      4  H1  UNL     1      16.810  39.226  42.022  1.00  0.00     0.188 HD
HETATM    5  N2  UNL     1      15.298  38.202  43.044  1.00  0.00    -0.278 N 
ATOM      6  H2  UNL     1      15.790  37.308  43.051  1.00  0.00     0.189 HD
HETATM    7  C3  UNL     1      14.028  38.311  43.636  1.00  0.00     0.205 A 
HETATM    8  N3  UNL     1      13.475  37.294  44.190  1.00  0.00    -0.264 N 
ATOM      9  H3  UNL     1      12.553  37.373  44.618  1.00  0.00     0.190 HD
HETATM   10  C4  UNL     1      13.308  39.575  43.638  1.00  0.00     0.293 A 
HETATM   11  O1  UNL     1      12.169  39.691  44.161  1.00  0.00    -0.264 OA
HETATM   12  N7  UNL     1      13.945  40.683  43.016  1.00  0.00    -0.306 N 
ATOM     13  H7  UNL     1      13.464  41.583  43.002  1.00  0.00     0.170 HD
ENDROOT
BRANCH   8  14
HETATM   14  N4  UNL     1      14.158  36.078  44.194  1.00  0.00    -0.227 N 
ATOM     15  H4  UNL     1      14.946  35.927  44.823  1.00  0.00     0.210 HD
BRANCH  14  16
HETATM   16  N5  UNL     1      13.740  35.069  43.317  1.00  0.00    -0.235 N 
HETATM   17  N6  UNL     1      13.323  33.939  43.712  1.00  0.00    -0.330 N 
ATOM     18  H62 UNL     1      13.298  33.773  44.718  1.00  0.00     0.178 HD
ATOM     19  H61 UNL     1      13.019  33.204  43.073  1.00  0.00     0.178 HD
ATOM     20  H5  UNL     1      13.773  35.252  42.315  1.00  0.00     0.209 HD
ENDBRANCH  14  16
ENDBRANCH   8  14
TORSDOF 2
ENDMDL
MODEL 4
REMARK VINA RESULT: -7.068435567      2.844      3.508
REMARK  2 active torsions:
REMARK  status: ('A' for Active; 'I' for Inactive)
REMARK    1  A    between atoms: N3_8  and  N4_10 
REMARK    2  A    between atoms: N4_10  and  N5_12 
ROOT
HETATM    1  C1  UNL     1      15.462  40.775  42.111  1.00  0.00     0.065 C 
HETATM    2  C2  UNL     1      14.925  39.572  42.222  1.00  0.00     0.113 A 
HETATM    3  N1  UNL     1      15.515  38.548  43.005  1.00  0.00    -0.284 N 
ATOM      4  H1  UNL     1      16.383  38.746  43.502  1.00  0.00     0.188 HD
HETATM    5  N2  UNL     1      14.944  37.276  43.120  1.00  0.00    -0.278 N 
ATOM      6  H2  UNL     1      15.397  36.563  43.691  1.00  0.00     0.189 HD
HETATM    7  C3  UNL     1      13.746  36.982  42.446  1.00  0.00     0.205 A 
HETATM    8  N3  UNL     1      13.210  35.820  42.541  1.00  0.00    -0.264 N 
ATOM      9  H3  UNL     1      12.341  35.607  42.051  1.00  0.00     0.190 HD
HETATM   10  C4  UNL     1      13.083  37.983  41.624  1.00  0.00     0.293 A 
HETATM   11  O1  UNL     1      12.011  37.738  41.012  1.00  0.00    -0.264 OA
HETATM   12  N7  UNL     1      13.701  39.261  41.537  1.00  0.00    -0.306 N 
ATOM     13  H7  UNL     1      13.259  39.983  40.968  1.00  0.00     0.170 HD
ENDROOT
BRANCH   8  14
HETATM   14  N4  UNL     1      13.838  34.854  43.327  1.00  0.00    -0.227 N 
ATOM     15  H4  UNL     1      14.840  34.904  43.509  1.00  0.00     0.210 HD
BRANCH  14  16
HETATM   16  N5  UNL     1      13.065  33.816  43.861  1.00  0.00    -0.235 N 
HETATM   17  N6  UNL     1      11.956  33.453  43.366  1.00  0.00    -0.330 N 
ATOM     18  H62 UNL     1      11.625  33.952  42.540  1.00  0.00     0.178 HD
ATOM     19  H61 UNL     1      11.393  32.696  43.755  1.00  0.00     0.178 HD
ATOM     20  H5  UNL     1      13.411  33.328  44.688  1.00  0.00     0.209 HD
ENDBRANCH  14  16
ENDBRANCH   8  14
TORSDOF 2
ENDMDL
MODEL 5
REMARK VINA RESULT: -7.061699514      2.904      4.714
REMARK  2 active torsions:
REMARK  status: ('A' for Active; 'I' for Inactive)
REMARK    1  A    between atoms: N3_8  and  N4_10 
REMARK    2  A    between atoms: N4_10  and  N5_12 
ROOT
HETATM    1  C1  UNL     1      13.377  35.416  38.519  1.00  0.00     0.065 C 
HETATM    2  C2  UNL     1      13.542  35.573  39.821  1.00  0.00     0.113 A 
HETATM    3  N1  UNL     1      13.979  36.797  40.387  1.00  0.00    -0.284 N 
ATOM      4  H1  UNL     1      14.172  37.585  39.769  1.00  0.00     0.188 HD
HETATM    5  N2  UNL     1      14.153  36.959  41.766  1.00  0.00    -0.278 N 
ATOM      6  H2  UNL     1      14.470  37.854  42.139  1.00  0.00     0.189 HD
HETATM    7  C3  UNL     1      13.890  35.887  42.636  1.00  0.00     0.205 A 
HETATM    8  N3  UNL     1      14.045  36.020  43.904  1.00  0.00    -0.264 N 
ATOM      9  H3  UNL     1      13.855  35.242  44.534  1.00  0.00     0.190 HD
HETATM   10  C4  UNL     1      13.438  34.602  42.127  1.00  0.00     0.293 A 
HETATM   11  O1  UNL     1      13.199  33.630  42.891  1.00  0.00    -0.264 OA
HETATM   12  N7  UNL     1      13.276  34.484  40.720  1.00  0.00    -0.306 N 
ATOM     13  H7  UNL     1      12.960  33.594  40.334  1.00  0.00     0.170 HD
ENDROOT
BRANCH   8  14
HETATM   14  N4  UNL     1      14.477  37.249  44.401  1.00  0.00    -0.227 N 
ATOM     15  H4  UNL     1      15.439  37.558  44.259  1.00  0.00     0.210 HD
BRANCH  14  16
HETATM   16  N5  UNL     1      13.565  38.051  45.098  1.00  0.00    -0.235 N 
HETATM   17  N6  UNL     1      12.724  38.804  44.522  1.00  0.00    -0.330 N 
ATOM     18  H62 UNL     1      12.725  38.815  43.502  1.00  0.00     0.178 HD
ATOM     19  H61 UNL     1      12.060  39.388  45.030  1.00  0.00     0.178 HD
ATOM     20  H5  UNL     1      13.579  38.028  46.118  1.00  0.00     0.209 HD
ENDBRANCH  14  16
ENDBRANCH   8  14
TORSDOF 2
ENDMDL
