MODEL 1
REMARK VINA RESULT: -7.402252963      0.000      0.000
REMARK  7 active torsions:
REMARK  status: ('A' for Active; 'I' for Inactive)
REMARK       I    between atoms: C1_4  and  N3_6 
REMARK    1  A    between atoms: C4_9  and  N4_10 
REMARK    2  A    between atoms: N4_10  and  C5_12 
REMARK    3  A    between atoms: C5_12  and  C6_13 
REMARK       I    between atoms: C6_13  and  N5_15 
REMARK    4  A    between atoms: N5_15  and  C7_17 
REMARK    5  A    between atoms: C7_17  and  C8_18 
REMARK    6  A    between atoms: C7_17  and  C16_26 
REMARK    7  A    between atoms: C9_19  and  C10_20 
ROOT
HETATM    1  C6  UNL     1      16.115  17.405  14.237  1.00  0.00     0.235 C 
HETATM    2  O1  UNL     1      15.855  18.626  14.373  1.00  0.00    -0.272 OA
HETATM    3  N5  UNL     1      16.322  16.616  15.375  1.00  0.00    -0.344 N 
ATOM      4  H5  UNL     1      16.522  15.624  15.246  1.00  0.00     0.163 HD
ENDROOT
BRANCH   1   5
HETATM    5  C5  UNL     1      16.186  16.853  12.882  1.00  0.00     0.217 C 
BRANCH   5   6
HETATM    6  N4  UNL     1      17.485  16.757  12.307  1.00  0.00    -0.409 N 
ATOM      7  H4  UNL     1      18.134  16.011  12.560  1.00  0.00     0.154 HD
BRANCH   6   8
HETATM    8  C4  UNL     1      17.831  17.775  11.349  1.00  0.00     0.080 C 
HETATM    9  C3  UNL     1      18.597  17.187  10.170  1.00  0.00     0.044 C 
HETATM   10  C2  UNL     1      20.048  17.653  10.268  1.00  0.00     0.127 C 
HETATM   11  N3  UNL     1      20.577  17.545  11.605  1.00  0.00    -0.356 N 
HETATM   12  C1  UNL     1      21.799  16.884  11.820  1.00  0.00     0.183 C 
HETATM   13  C18 UNL     1      19.830  18.126  12.699  1.00  0.00     0.127 C 
HETATM   14  N1  UNL     1      21.797  15.647  12.155  1.00  0.00    -0.374 N 
HETATM   15  N2  UNL     1      23.029  17.556  11.674  1.00  0.00    -0.064 NA
ATOM     16  H12 UNL     1      22.684  15.167  12.311  1.00  0.00     0.158 HD
ATOM     17  H11 UNL     1      20.907  15.160  12.260  1.00  0.00     0.158 HD
HETATM   18  C17 UNL     1      18.641  18.833  12.072  1.00  0.00     0.044 C 
ENDBRANCH   6   8
ENDBRANCH   5   6
ENDBRANCH   1   5
BRANCH   3  19
HETATM   19  C7  UNL     1      16.267  17.140  16.732  1.00  0.00     0.196 C 
BRANCH  19  20
HETATM   20  C8  UNL     1      15.245  16.455  17.547  1.00  0.00     0.003 C 
HETATM   21  C9  UNL     1      13.971  16.435  17.179  1.00  0.00    -0.024 C 
BRANCH  21  22
HETATM   22  C10 UNL     1      12.898  15.766  17.954  1.00  0.00     0.008 C 
HETATM   23  C11 UNL     1      11.687  16.646  18.179  1.00  0.00     0.008 C 
HETATM   24  C12 UNL     1      11.156  17.139  16.874  1.00  0.00     0.001 C 
HETATM   25  C13 UNL     1      11.186  16.202  15.748  1.00  0.00     0.000 C 
HETATM   26  C14 UNL     1      11.901  14.929  15.891  1.00  0.00     0.001 C 
HETATM   27  C15 UNL     1      12.366  14.543  17.254  1.00  0.00     0.008 C 
ENDBRANCH  21  22
ENDBRANCH  19  20
BRANCH  19  28
HETATM   28  C16 UNL     1      17.563  17.081  17.407  1.00  0.00     0.257 C 
HETATM   29  N6  UNL     1      18.765  17.533  16.808  1.00  0.00    -0.060 NA
HETATM   30  O2  UNL     1      17.608  16.602  18.584  1.00  0.00    -0.274 OA
ENDBRANCH  19  28
ENDBRANCH   3  19
TORSDOF 7
ENDMDL
MODEL 2
REMARK VINA RESULT: -6.987874604      4.681      8.115
REMARK  7 active torsions:
REMARK  status: ('A' for Active; 'I' for Inactive)
REMARK       I    between atoms: C1_4  and  N3_6 
REMARK    1  A    between atoms: C4_9  and  N4_10 
REMARK    2  A    between atoms: N4_10  and  C5_12 
REMARK    3  A    between atoms: C5_12  and  C6_13 
REMARK       I    between atoms: C6_13  and  N5_15 
REMARK    4  A    between atoms: N5_15  and  C7_17 
REMARK    5  A    between atoms: C7_17  and  C8_18 
REMARK    6  A    between atoms: C7_17  and  C16_26 
REMARK    7  A    between atoms: C9_19  and  C10_20 
ROOT
HETATM    1  C6  UNL     1      11.265  18.504  15.665  1.00  0.00     0.235 C 
HETATM    2  O1  UNL     1      12.323  19.013  15.220  1.00  0.00    -0.272 OA
HETATM    3  N5  UNL     1      10.125  18.469  14.853  1.00  0.00    -0.344 N 
ATOM      4  H5  UNL     1       9.277  18.042  15.227  1.00  0.00     0.163 HD
ENDROOT
BRANCH   1   5
HETATM    5  C5  UNL     1      11.270  17.959  17.025  1.00  0.00     0.217 C 
BRANCH   5   6
HETATM    6  N4  UNL     1      10.941  16.580  17.151  1.00  0.00    -0.409 N 
ATOM      7  H4  UNL     1      10.048  16.206  16.829  1.00  0.00     0.154 HD
BRANCH   6   8
HETATM    8  C4  UNL     1      11.942  15.743  17.763  1.00  0.00     0.080 C 
HETATM    9  C3  UNL     1      13.286  16.456  17.839  1.00  0.00     0.044 C 
HETATM   10  C2  UNL     1      14.230  15.797  16.835  1.00  0.00     0.127 C 
HETATM   11  N3  UNL     1      13.605  15.561  15.558  1.00  0.00    -0.356 N 
HETATM   12  C1  UNL     1      14.236  16.002  14.381  1.00  0.00     0.183 C 
HETATM   13  C18 UNL     1      12.334  14.870  15.520  1.00  0.00     0.127 C 
HETATM   14  N1  UNL     1      13.910  17.134  13.876  1.00  0.00    -0.374 N 
HETATM   15  N2  UNL     1      15.220  15.221  13.744  1.00  0.00    -0.064 NA
ATOM     16  H12 UNL     1      14.368  17.454  13.023  1.00  0.00     0.158 HD
ATOM     17  H11 UNL     1      13.198  17.700  14.338  1.00  0.00     0.158 HD
HETATM   18  C17 UNL     1      12.031  14.464  16.952  1.00  0.00     0.044 C 
ENDBRANCH   6   8
ENDBRANCH   5   6
ENDBRANCH   1   5
BRANCH   3  19
HETATM   19  C7  UNL     1      10.088  19.010  13.502  1.00  0.00     0.196 C 
BRANCH  19  20
HETATM   20  C8  UNL     1       8.850  18.638  12.791  1.00  0.00     0.003 C 
HETATM   21  C9  UNL     1       8.819  17.611  11.952  1.00  0.00    -0.024 C 
BRANCH  21  22
HETATM   22  C10 UNL     1       7.608  17.188  11.209  1.00  0.00     0.008 C 
HETATM   23  C11 UNL     1       7.361  18.005   9.958  1.00  0.00     0.008 C 
HETATM   24  C12 UNL     1       8.558  17.964   9.067  1.00  0.00     0.001 C 
HETATM   25  C13 UNL     1       9.281  16.692   8.985  1.00  0.00     0.000 C 
HETATM   26  C14 UNL     1       8.933  15.606   9.907  1.00  0.00     0.001 C 
HETATM   27  C15 UNL     1       7.699  15.763  10.731  1.00  0.00     0.008 C 
ENDBRANCH  21  22
ENDBRANCH  19  20
BRANCH  19  28
HETATM   28  C16 UNL     1      10.258  20.462  13.477  1.00  0.00     0.257 C 
HETATM   29  N6  UNL     1      11.209  21.112  12.651  1.00  0.00    -0.060 NA
HETATM   30  O2  UNL     1       9.518  21.169  14.231  1.00  0.00    -0.274 OA
ENDBRANCH  19  28
ENDBRANCH   3  19
TORSDOF 7
ENDMDL
MODEL 3
REMARK VINA RESULT: -6.987817606      1.299      1.813
REMARK  7 active torsions:
REMARK  status: ('A' for Active; 'I' for Inactive)
REMARK       I    between atoms: C1_4  and  N3_6 
REMARK    1  A    between atoms: C4_9  and  N4_10 
REMARK    2  A    between atoms: N4_10  and  C5_12 
REMARK    3  A    between atoms: C5_12  and  C6_13 
REMARK       I    between atoms: C6_13  and  N5_15 
REMARK    4  A    between atoms: N5_15  and  C7_17 
REMARK    5  A    between atoms: C7_17  and  C8_18 
REMARK    6  A    between atoms: C7_17  and  C16_26 
REMARK    7  A    between atoms: C9_19  and  C10_20 
ROOT
HETATM    1  C6  UNL     1      16.526  17.394  12.529  1.00  0.00     0.235 C 
HETATM    2  O1  UNL     1      15.920  18.493  12.504  1.00  0.00    -0.272 OA
HETATM    3  N5  UNL     1      16.478  16.609  13.687  1.00  0.00    -0.344 N 
ATOM      4  H5  UNL     1      16.967  15.714  13.686  1.00  0.00     0.163 HD
ENDROOT
BRANCH   1   5
HETATM    5  C5  UNL     1      17.260  16.974  11.332  1.00  0.00     0.217 C 
BRANCH   5   6
HETATM    6  N4  UNL     1      18.680  17.043  11.408  1.00  0.00    -0.409 N 
ATOM      7  H4  UNL     1      19.213  16.486  12.076  1.00  0.00     0.154 HD
BRANCH   6   8
HETATM    8  C4  UNL     1      19.320  17.947  10.486  1.00  0.00     0.080 C 
HETATM    9  C3  UNL     1      20.198  17.194   9.495  1.00  0.00     0.044 C 
HETATM   10  C2  UNL     1      21.657  17.485   9.837  1.00  0.00     0.127 C 
HETATM   11  N3  UNL     1      21.923  17.402  11.252  1.00  0.00    -0.356 N 
HETATM   12  C1  UNL     1      22.991  16.611  11.715  1.00  0.00     0.183 C 
HETATM   13  C18 UNL     1      21.078  18.139  12.165  1.00  0.00     0.127 C 
HETATM   14  N1  UNL     1      22.767  15.409  12.096  1.00  0.00    -0.374 N 
HETATM   15  N2  UNL     1      24.304  17.118  11.769  1.00  0.00    -0.064 NA
ATOM     16  H12 UNL     1      23.541  14.836  12.432  1.00  0.00     0.158 HD
ATOM     17  H11 UNL     1      21.816  15.042  12.057  1.00  0.00     0.158 HD
HETATM   18  C17 UNL     1      20.122  18.944  11.301  1.00  0.00     0.044 C 
ENDBRANCH   6   8
ENDBRANCH   5   6
ENDBRANCH   1   5
BRANCH   3  19
HETATM   19  C7  UNL     1      15.764  17.005  14.892  1.00  0.00     0.196 C 
BRANCH  19  20
HETATM   20  C8  UNL     1      14.798  15.976  15.326  1.00  0.00     0.003 C 
HETATM   21  C9  UNL     1      13.491  16.197  15.281  1.00  0.00    -0.024 C 
BRANCH  21  22
HETATM   22  C10 UNL     1      12.472  15.205  15.702  1.00  0.00     0.008 C 
HETATM   23  C11 UNL     1      12.477  14.942  17.193  1.00  0.00     0.008 C 
HETATM   24  C12 UNL     1      12.302  16.218  17.946  1.00  0.00     0.001 C 
HETATM   25  C13 UNL     1      11.379  17.204  17.376  1.00  0.00     0.000 C 
HETATM   26  C14 UNL     1      10.840  16.990  16.029  1.00  0.00     0.001 C 
HETATM   27  C15 UNL     1      11.071  15.660  15.392  1.00  0.00     0.008 C 
ENDBRANCH  21  22
ENDBRANCH  19  20
BRANCH  19  28
HETATM   28  C16 UNL     1      16.667  17.333  15.994  1.00  0.00     0.257 C 
HETATM   29  N6  UNL     1      17.885  18.035  15.809  1.00  0.00    -0.060 NA
HETATM   30  O2  UNL     1      16.342  16.972  17.169  1.00  0.00    -0.274 OA
ENDBRANCH  19  28
ENDBRANCH   3  19
TORSDOF 7
ENDMDL
MODEL 4
REMARK VINA RESULT: -6.947980162      1.232      1.730
REMARK  7 active torsions:
REMARK  status: ('A' for Active; 'I' for Inactive)
REMARK       I    between atoms: C1_4  and  N3_6 
REMARK    1  A    between atoms: C4_9  and  N4_10 
REMARK    2  A    between atoms: N4_10  and  C5_12 
REMARK    3  A    between atoms: C5_12  and  C6_13 
REMARK       I    between atoms: C6_13  and  N5_15 
REMARK    4  A    between atoms: N5_15  and  C7_17 
REMARK    5  A    between atoms: C7_17  and  C8_18 
REMARK    6  A    between atoms: C7_17  and  C16_26 
REMARK    7  A    between atoms: C9_19  and  C10_20 
ROOT
HETATM    1  C6  UNL     1      15.817  17.058  14.423  1.00  0.00     0.235 C 
HETATM    2  O1  UNL     1      16.012  18.271  14.677  1.00  0.00    -0.272 OA
HETATM    3  N5  UNL     1      15.359  16.208  15.437  1.00  0.00    -0.344 N 
ATOM      4  H5  UNL     1      15.195  15.228  15.210  1.00  0.00     0.163 HD
ENDROOT
BRANCH   1   5
HETATM    5  C5  UNL     1      16.074  16.579  13.062  1.00  0.00     0.217 C 
BRANCH   5   6
HETATM    6  N4  UNL     1      17.415  16.695  12.596  1.00  0.00    -0.409 N 
ATOM      7  H4  UNL     1      18.160  16.089  12.939  1.00  0.00     0.154 HD
BRANCH   6   8
HETATM    8  C4  UNL     1      17.657  17.721  11.614  1.00  0.00     0.080 C 
HETATM    9  C3  UNL     1      18.349  17.151  10.381  1.00  0.00     0.044 C 
HETATM   10  C2  UNL     1      19.789  17.659  10.368  1.00  0.00     0.127 C 
HETATM   11  N3  UNL     1      20.420  17.571  11.662  1.00  0.00    -0.356 N 
HETATM   12  C1  UNL     1      21.674  16.945  11.783  1.00  0.00     0.183 C 
HETATM   13  C18 UNL     1      19.742  18.132  12.809  1.00  0.00     0.127 C 
HETATM   14  N1  UNL     1      21.733  15.709  12.118  1.00  0.00    -0.374 N 
HETATM   15  N2  UNL     1      22.869  17.652  11.545  1.00  0.00    -0.064 NA
ATOM     16  H12 UNL     1      22.642  15.256  12.207  1.00  0.00     0.158 HD
ATOM     17  H11 UNL     1      20.868  15.197  12.291  1.00  0.00     0.158 HD
HETATM   18  C17 UNL     1      18.489  18.803  12.273  1.00  0.00     0.044 C 
ENDBRANCH   6   8
ENDBRANCH   5   6
ENDBRANCH   1   5
BRANCH   3  19
HETATM   19  C7  UNL     1      15.103  16.655  16.799  1.00  0.00     0.196 C 
BRANCH  19  20
HETATM   20  C8  UNL     1      13.690  16.471  17.184  1.00  0.00     0.003 C 
HETATM   21  C9  UNL     1      12.711  17.067  16.517  1.00  0.00    -0.024 C 
BRANCH  21  22
HETATM   22  C10 UNL     1      11.275  16.922  16.855  1.00  0.00     0.008 C 
HETATM   23  C11 UNL     1      10.683  18.164  17.486  1.00  0.00     0.008 C 
HETATM   24  C12 UNL     1      10.892  19.346  16.599  1.00  0.00     0.001 C 
HETATM   25  C13 UNL     1      10.768  19.123  15.156  1.00  0.00     0.000 C 
HETATM   26  C14 UNL     1      10.650  17.753  14.647  1.00  0.00     0.001 C 
HETATM   27  C15 UNL     1      10.425  16.661  15.639  1.00  0.00     0.008 C 
ENDBRANCH  21  22
ENDBRANCH  19  20
BRANCH  19  28
HETATM   28  C16 UNL     1      15.974  16.000  17.774  1.00  0.00     0.257 C 
HETATM   29  N6  UNL     1      15.688  14.727  18.328  1.00  0.00    -0.060 NA
HETATM   30  O2  UNL     1      17.032  16.603  18.138  1.00  0.00    -0.274 OA
ENDBRANCH  19  28
ENDBRANCH   3  19
TORSDOF 7
ENDMDL
MODEL 5
REMARK VINA RESULT: -6.939906680      2.240      3.779
REMARK  7 active torsions:
REMARK  status: ('A' for Active; 'I' for Inactive)
REMARK       I    between atoms: C1_4  and  N3_6 
REMARK    1  A    between atoms: C4_9  and  N4_10 
REMARK    2  A    between atoms: N4_10  and  C5_12 
REMARK    3  A    between atoms: C5_12  and  C6_13 
REMARK       I    between atoms: C6_13  and  N5_15 
REMARK    4  A    between atoms: N5_15  and  C7_17 
REMARK    5  A    between atoms: C7_17  and  C8_18 
REMARK    6  A    between atoms: C7_17  and  C16_26 
REMARK    7  A    between atoms: C9_19  and  C10_20 
ROOT
HETATM    1  C6  UNL     1      17.450  17.609  15.684  1.00  0.00     0.235 C 
HETATM    2  O1  UNL     1      16.328  18.048  15.330  1.00  0.00    -0.272 OA
HETATM    3  N5  UNL     1      17.587  17.010  16.942  1.00  0.00    -0.344 N 
ATOM      4  H5  UNL     1      18.503  16.649  17.209  1.00  0.00     0.163 HD
ENDROOT
BRANCH   1   5
HETATM    5  C5  UNL     1      18.575  17.739  14.756  1.00  0.00     0.217 C 
BRANCH   5   6
HETATM    6  N4  UNL     1      18.284  17.523  13.379  1.00  0.00    -0.409 N 
ATOM      7  H4  UNL     1      17.837  16.667  13.050  1.00  0.00     0.154 HD
BRANCH   6   8
HETATM    8  C4  UNL     1      18.658  18.583  12.478  1.00  0.00     0.080 C 
HETATM    9  C3  UNL     1      18.498  19.948  13.135  1.00  0.00     0.044 C 
HETATM   10  C2  UNL     1      17.306  20.649  12.486  1.00  0.00     0.127 C 
HETATM   11  N3  UNL     1      16.167  19.779  12.330  1.00  0.00    -0.356 N 
HETATM   12  C1  UNL     1      14.907  20.191  12.799  1.00  0.00     0.183 C 
HETATM   13  C18 UNL     1      16.353  18.495  11.691  1.00  0.00     0.127 C 
HETATM   14  N1  UNL     1      14.516  19.828  13.964  1.00  0.00    -0.374 N 
HETATM   15  N2  UNL     1      14.062  20.997  12.010  1.00  0.00    -0.064 NA
ATOM     16  H12 UNL     1      13.602  20.126  14.304  1.00  0.00     0.158 HD
ATOM     17  H11 UNL     1      15.128  19.245  14.536  1.00  0.00     0.158 HD
HETATM   18  C17 UNL     1      17.801  18.455  11.234  1.00  0.00     0.044 C 
ENDBRANCH   6   8
ENDBRANCH   5   6
ENDBRANCH   1   5
BRANCH   3  19
HETATM   19  C7  UNL     1      16.489  16.874  17.888  1.00  0.00     0.196 C 
BRANCH  19  20
HETATM   20  C8  UNL     1      15.478  15.903  17.425  1.00  0.00     0.003 C 
HETATM   21  C9  UNL     1      14.206  16.251  17.276  1.00  0.00    -0.024 C 
BRANCH  21  22
HETATM   22  C10 UNL     1      13.146  15.322  16.816  1.00  0.00     0.008 C 
HETATM   23  C11 UNL     1      11.792  15.613  17.430  1.00  0.00     0.008 C 
HETATM   24  C12 UNL     1      11.396  17.027  17.165  1.00  0.00     0.001 C 
HETATM   25  C13 UNL     1      11.743  17.580  15.853  1.00  0.00     0.000 C 
HETATM   26  C14 UNL     1      12.617  16.814  14.959  1.00  0.00     0.001 C 
HETATM   27  C15 UNL     1      12.923  15.402  15.329  1.00  0.00     0.008 C 
ENDBRANCH  21  22
ENDBRANCH  19  20
BRANCH  19  28
HETATM   28  C16 UNL     1      16.947  16.514  19.229  1.00  0.00     0.257 C 
HETATM   29  N6  UNL     1      16.077  16.019  20.232  1.00  0.00    -0.060 NA
HETATM   30  O2  UNL     1      18.181  16.653  19.502  1.00  0.00    -0.274 OA
ENDBRANCH  19  28
ENDBRANCH   3  19
TORSDOF 7
ENDMDL
