MODEL 1
REMARK VINA RESULT: -8.003787392      0.000      0.000
REMARK  7 active torsions:
REMARK  status: ('A' for Active; 'I' for Inactive)
REMARK    1  A    between atoms: C2_2  and  N1_3 
REMARK    2  A    between atoms: C2_2  and  C18_28 
REMARK       I    between atoms: N1_3  and  C3_5 
REMARK    3  A    between atoms: C3_5  and  C4_7 
REMARK    4  A    between atoms: C4_7  and  N2_8 
REMARK    5  A    between atoms: N2_8  and  C5_10 
REMARK    6  A    between atoms: C5_10  and  C6_14 
REMARK    7  A    between atoms: C9_17  and  C10_18 
ROOT
HETATM    1  C4  UNL     1      13.965  16.464  15.257  1.00  0.00     0.120 C 
HETATM    2  C13 UNL     1      14.173  16.050  13.812  1.00  0.00     0.024 C 
HETATM    3  C14 UNL     1      15.665  15.829  13.743  1.00  0.00     0.008 C 
HETATM    4  C15 UNL     1      16.138  17.039  14.537  1.00  0.00     0.008 C 
HETATM    5  C16 UNL     1      14.792  17.644  14.859  1.00  0.00     0.024 C 
HETATM    6  C17 UNL     1      14.142  17.544  13.490  1.00  0.00     0.015 C 
ENDROOT
BRANCH   1   7
HETATM    7  C3  UNL     1      12.585  16.873  15.621  1.00  0.00     0.247 C 
HETATM    8  N1  UNL     1      12.219  18.017  16.353  1.00  0.00    -0.345 N 
ATOM      9  H1  UNL     1      12.961  18.637  16.677  1.00  0.00     0.163 HD
HETATM   10  O1  UNL     1      11.642  16.134  15.249  1.00  0.00    -0.271 OA
BRANCH   8  11
HETATM   11  C2  UNL     1      10.852  18.369  16.674  1.00  0.00     0.181 C 
HETATM   12  C1  UNL     1      10.687  19.840  16.317  1.00  0.00     0.043 C 
BRANCH  11  13
HETATM   13  C18 UNL     1      10.668  18.260  18.137  1.00  0.00     0.196 C 
HETATM   14  O4  UNL     1       9.780  18.932  18.711  1.00  0.00    -0.646 OA
HETATM   15  O5  UNL     1      11.453  17.426  18.928  1.00  0.00    -0.646 OA
ENDBRANCH  11  13
ENDBRANCH   8  11
ENDBRANCH   1   7
BRANCH   1  16
HETATM   16  N2  UNL     1      14.587  15.553  16.178  1.00  0.00    -0.361 N 
ATOM     17  H2  UNL     1      15.091  14.777  15.751  1.00  0.00     0.162 HD
BRANCH  16  18
HETATM   18  C5  UNL     1      14.600  15.577  17.576  1.00  0.00     0.075 C 
HETATM   19  N3  UNL     1      13.552  14.978  18.127  1.00  0.00    -0.389 N 
ATOM     20  H32 UNL     1      12.884  14.557  17.479  1.00  0.00     0.157 HD
ATOM     21  H31 UNL     1      13.561  14.995  19.146  1.00  0.00     0.157 HD
BRANCH  18  22
HETATM   22  C6  UNL     1      15.551  16.176  18.498  1.00  0.00     0.052 C 
HETATM   23  C7  UNL     1      16.803  16.739  17.865  1.00  0.00     0.013 C 
HETATM   24  C8  UNL     1      17.970  16.730  18.808  1.00  0.00     0.016 C 
HETATM   25  C9  UNL     1      17.577  17.150  20.210  1.00  0.00     0.087 C 
HETATM   26  C11 UNL     1      16.472  16.287  20.754  1.00  0.00     0.016 C 
HETATM   27  C12 UNL     1      15.992  15.321  19.655  1.00  0.00     0.013 C 
BRANCH  25  28
HETATM   28  C10 UNL     1      18.760  17.105  21.084  1.00  0.00     0.177 C 
HETATM   29  O2  UNL     1      18.710  17.262  22.331  1.00  0.00    -0.648 OA
HETATM   30  O3  UNL     1      20.016  16.879  20.530  1.00  0.00    -0.648 OA
ENDBRANCH  25  28
ENDBRANCH  18  22
ENDBRANCH  16  18
ENDBRANCH   1  16
TORSDOF 7
ENDMDL
MODEL 2
REMARK VINA RESULT: -7.932047168      2.216      4.114
REMARK  7 active torsions:
REMARK  status: ('A' for Active; 'I' for Inactive)
REMARK    1  A    between atoms: C2_2  and  N1_3 
REMARK    2  A    between atoms: C2_2  and  C18_28 
REMARK       I    between atoms: N1_3  and  C3_5 
REMARK    3  A    between atoms: C3_5  and  C4_7 
REMARK    4  A    between atoms: C4_7  and  N2_8 
REMARK    5  A    between atoms: N2_8  and  C5_10 
REMARK    6  A    between atoms: C5_10  and  C6_14 
REMARK    7  A    between atoms: C9_17  and  C10_18 
ROOT
HETATM    1  C4  UNL     1      13.076  16.833  15.810  1.00  0.00     0.120 C 
HETATM    2  C13 UNL     1      12.229  18.089  15.701  1.00  0.00     0.024 C 
HETATM    3  C14 UNL     1      11.036  17.757  16.564  1.00  0.00     0.008 C 
HETATM    4  C15 UNL     1      10.794  16.320  16.123  1.00  0.00     0.008 C 
HETATM    5  C16 UNL     1      11.914  16.196  15.118  1.00  0.00     0.024 C 
HETATM    6  C17 UNL     1      11.729  17.509  14.378  1.00  0.00     0.015 C 
ENDROOT
BRANCH   1   7
HETATM    7  C3  UNL     1      14.293  16.799  14.960  1.00  0.00     0.247 C 
HETATM    8  N1  UNL     1      15.135  17.886  14.663  1.00  0.00    -0.345 N 
ATOM      9  H1  UNL     1      14.901  18.796  15.060  1.00  0.00     0.163 HD
HETATM   10  O1  UNL     1      14.612  15.700  14.446  1.00  0.00    -0.271 OA
BRANCH   8  11
HETATM   11  C2  UNL     1      16.315  17.791  13.830  1.00  0.00     0.181 C 
HETATM   12  C1  UNL     1      17.514  17.902  14.761  1.00  0.00     0.043 C 
BRANCH  11  13
HETATM   13  C18 UNL     1      16.356  18.968  12.935  1.00  0.00     0.196 C 
HETATM   14  O4  UNL     1      16.793  20.064  13.358  1.00  0.00    -0.646 OA
HETATM   15  O5  UNL     1      15.923  18.917  11.613  1.00  0.00    -0.646 OA
ENDBRANCH  11  13
ENDBRANCH   8  11
ENDBRANCH   1   7
BRANCH   1  16
HETATM   16  N2  UNL     1      13.282  16.433  17.174  1.00  0.00    -0.361 N 
ATOM     17  H2  UNL     1      12.514  16.644  17.811  1.00  0.00     0.162 HD
BRANCH  16  18
HETATM   18  C5  UNL     1      14.382  15.797  17.755  1.00  0.00     0.075 C 
HETATM   19  N3  UNL     1      14.433  14.494  17.508  1.00  0.00    -0.389 N 
ATOM     20  H32 UNL     1      13.691  14.121  16.915  1.00  0.00     0.157 HD
ATOM     21  H31 UNL     1      15.236  14.030  17.932  1.00  0.00     0.157 HD
BRANCH  18  22
HETATM   22  C6  UNL     1      15.440  16.329  18.600  1.00  0.00     0.052 C 
HETATM   23  C7  UNL     1      16.674  16.809  17.870  1.00  0.00     0.013 C 
HETATM   24  C8  UNL     1      17.907  16.720  18.719  1.00  0.00     0.016 C 
HETATM   25  C9  UNL     1      17.652  17.162  20.146  1.00  0.00     0.087 C 
HETATM   26  C11 UNL     1      16.539  16.372  20.777  1.00  0.00     0.016 C 
HETATM   27  C12 UNL     1      15.912  15.443  19.720  1.00  0.00     0.013 C 
BRANCH  25  28
HETATM   28  C10 UNL     1      18.894  17.036  20.927  1.00  0.00     0.177 C 
HETATM   29  O2  UNL     1      20.020  16.813  20.413  1.00  0.00    -0.648 OA
HETATM   30  O3  UNL     1      18.852  17.165  22.312  1.00  0.00    -0.648 OA
ENDBRANCH  25  28
ENDBRANCH  18  22
ENDBRANCH  16  18
ENDBRANCH   1  16
TORSDOF 7
ENDMDL
MODEL 3
REMARK VINA RESULT: -7.796465703      0.524      1.096
REMARK  7 active torsions:
REMARK  status: ('A' for Active; 'I' for Inactive)
REMARK    1  A    between atoms: C2_2  and  N1_3 
REMARK    2  A    between atoms: C2_2  and  C18_28 
REMARK       I    between atoms: N1_3  and  C3_5 
REMARK    3  A    between atoms: C3_5  and  C4_7 
REMARK    4  A    between atoms: C4_7  and  N2_8 
REMARK    5  A    between atoms: N2_8  and  C5_10 
REMARK    6  A    between atoms: C5_10  and  C6_14 
REMARK    7  A    between atoms: C9_17  and  C10_18 
ROOT
HETATM    1  C4  UNL     1      14.242  16.479  14.974  1.00  0.00     0.120 C 
HETATM    2  C13 UNL     1      14.497  16.292  13.490  1.00  0.00     0.024 C 
HETATM    3  C14 UNL     1      15.997  16.125  13.432  1.00  0.00     0.008 C 
HETATM    4  C15 UNL     1      16.412  17.214  14.410  1.00  0.00     0.008 C 
HETATM    5  C16 UNL     1      15.041  17.727  14.780  1.00  0.00     0.024 C 
HETATM    6  C17 UNL     1      14.428  17.816  13.394  1.00  0.00     0.015 C 
ENDROOT
BRANCH   1   7
HETATM    7  C3  UNL     1      12.841  16.791  15.355  1.00  0.00     0.247 C 
HETATM    8  N1  UNL     1      12.380  17.988  15.931  1.00  0.00    -0.345 N 
ATOM      9  H1  UNL     1      13.060  18.726  16.115  1.00  0.00     0.163 HD
HETATM   10  O1  UNL     1      11.974  15.907  15.154  1.00  0.00    -0.271 OA
BRANCH   8  11
HETATM   11  C2  UNL     1      10.997  18.239  16.278  1.00  0.00     0.181 C 
HETATM   12  C1  UNL     1      10.726  19.702  15.952  1.00  0.00     0.043 C 
BRANCH  11  13
HETATM   13  C18 UNL     1      10.843  18.090  17.740  1.00  0.00     0.196 C 
HETATM   14  O4  UNL     1      10.066  18.844  18.371  1.00  0.00    -0.646 OA
HETATM   15  O5  UNL     1      11.536  17.129  18.470  1.00  0.00    -0.646 OA
ENDBRANCH  11  13
ENDBRANCH   8  11
ENDBRANCH   1   7
BRANCH   1  16
HETATM   16  N2  UNL     1      14.869  15.457  15.766  1.00  0.00    -0.361 N 
ATOM     17  H2  UNL     1      15.354  14.732  15.239  1.00  0.00     0.162 HD
BRANCH  16  18
HETATM   18  C5  UNL     1      14.911  15.314  17.156  1.00  0.00     0.075 C 
HETATM   19  N3  UNL     1      13.774  14.870  17.678  1.00  0.00    -0.389 N 
ATOM     20  H32 UNL     1      13.026  14.667  17.015  1.00  0.00     0.157 HD
ATOM     21  H31 UNL     1      13.805  14.765  18.692  1.00  0.00     0.157 HD
BRANCH  18  22
HETATM   22  C6  UNL     1      15.978  15.603  18.101  1.00  0.00     0.052 C 
HETATM   23  C7  UNL     1      15.603  15.480  19.561  1.00  0.00     0.013 C 
HETATM   24  C8  UNL     1      16.437  16.366  20.437  1.00  0.00     0.016 C 
HETATM   25  C9  UNL     1      17.897  16.368  20.028  1.00  0.00     0.087 C 
HETATM   26  C11 UNL     1      18.065  16.768  18.588  1.00  0.00     0.016 C 
HETATM   27  C12 UNL     1      16.677  16.925  17.938  1.00  0.00     0.013 C 
BRANCH  25  28
HETATM   28  C10 UNL     1      18.653  17.265  20.916  1.00  0.00     0.177 C 
HETATM   29  O2  UNL     1      18.455  17.349  22.155  1.00  0.00    -0.648 OA
HETATM   30  O3  UNL     1      19.648  18.081  20.384  1.00  0.00    -0.648 OA
ENDBRANCH  25  28
ENDBRANCH  18  22
ENDBRANCH  16  18
ENDBRANCH   1  16
TORSDOF 7
ENDMDL
MODEL 4
REMARK VINA RESULT: -7.575739293      0.925      1.042
REMARK  7 active torsions:
REMARK  status: ('A' for Active; 'I' for Inactive)
REMARK    1  A    between atoms: C2_2  and  N1_3 
REMARK    2  A    between atoms: C2_2  and  C18_28 
REMARK       I    between atoms: N1_3  and  C3_5 
REMARK    3  A    between atoms: C3_5  and  C4_7 
REMARK    4  A    between atoms: C4_7  and  N2_8 
REMARK    5  A    between atoms: N2_8  and  C5_10 
REMARK    6  A    between atoms: C5_10  and  C6_14 
REMARK    7  A    between atoms: C9_17  and  C10_18 
ROOT
HETATM    1  C4  UNL     1      14.454  16.893  14.709  1.00  0.00     0.120 C 
HETATM    2  C13 UNL     1      14.923  16.562  13.303  1.00  0.00     0.024 C 
HETATM    3  C14 UNL     1      16.418  16.445  13.473  1.00  0.00     0.008 C 
HETATM    4  C15 UNL     1      16.667  17.645  14.377  1.00  0.00     0.008 C 
HETATM    5  C16 UNL     1      15.246  18.143  14.494  1.00  0.00     0.024 C 
HETATM    6  C17 UNL     1      14.835  18.065  13.034  1.00  0.00     0.015 C 
ENDROOT
BRANCH   1   7
HETATM    7  C3  UNL     1      13.007  17.192  14.855  1.00  0.00     0.247 C 
HETATM    8  N1  UNL     1      12.444  18.419  15.249  1.00  0.00    -0.345 N 
ATOM      9  H1  UNL     1      13.077  19.191  15.462  1.00  0.00     0.163 HD
HETATM   10  O1  UNL     1      12.195  16.268  14.610  1.00  0.00    -0.271 OA
BRANCH   8  11
HETATM   11  C2  UNL     1      11.021  18.655  15.369  1.00  0.00     0.181 C 
HETATM   12  C1  UNL     1      10.860  20.059  15.938  1.00  0.00     0.043 C 
BRANCH  11  13
HETATM   13  C18 UNL     1      10.471  17.720  16.374  1.00  0.00     0.196 C 
HETATM   14  O4  UNL     1       9.399  17.113  16.148  1.00  0.00    -0.646 OA
HETATM   15  O5  UNL     1      11.103  17.476  17.591  1.00  0.00    -0.646 OA
ENDBRANCH  11  13
ENDBRANCH   8  11
ENDBRANCH   1   7
BRANCH   1  16
HETATM   16  N2  UNL     1      14.984  15.983  15.686  1.00  0.00    -0.361 N 
ATOM     17  H2  UNL     1      15.553  15.224  15.313  1.00  0.00     0.162 HD
BRANCH  16  18
HETATM   18  C5  UNL     1      14.832  15.988  17.076  1.00  0.00     0.075 C 
HETATM   19  N3  UNL     1      13.656  15.526  17.483  1.00  0.00    -0.389 N 
ATOM     20  H32 UNL     1      13.023  15.206  16.750  1.00  0.00     0.157 HD
ATOM     21  H31 UNL     1      13.546  15.529  18.496  1.00  0.00     0.157 HD
BRANCH  18  22
HETATM   22  C6  UNL     1      15.735  16.444  18.120  1.00  0.00     0.052 C 
HETATM   23  C7  UNL     1      17.059  16.994  17.639  1.00  0.00     0.013 C 
HETATM   24  C8  UNL     1      18.146  16.832  18.659  1.00  0.00     0.016 C 
HETATM   25  C9  UNL     1      17.665  17.140  20.063  1.00  0.00     0.087 C 
HETATM   26  C11 UNL     1      16.481  16.291  20.438  1.00  0.00     0.016 C 
HETATM   27  C12 UNL     1      16.043  15.460  19.216  1.00  0.00     0.013 C 
BRANCH  25  28
HETATM   28  C10 UNL     1      18.772  16.947  21.014  1.00  0.00     0.177 C 
HETATM   29  O2  UNL     1      18.636  17.009  22.263  1.00  0.00    -0.648 OA
HETATM   30  O3  UNL     1      20.051  16.681  20.534  1.00  0.00    -0.648 OA
ENDBRANCH  25  28
ENDBRANCH  18  22
ENDBRANCH  16  18
ENDBRANCH   1  16
TORSDOF 7
ENDMDL
MODEL 5
REMARK VINA RESULT: -7.276357597      2.194      3.231
REMARK  7 active torsions:
REMARK  status: ('A' for Active; 'I' for Inactive)
REMARK    1  A    between atoms: C2_2  and  N1_3 
REMARK    2  A    between atoms: C2_2  and  C18_28 
REMARK       I    between atoms: N1_3  and  C3_5 
REMARK    3  A    between atoms: C3_5  and  C4_7 
REMARK    4  A    between atoms: C4_7  and  N2_8 
REMARK    5  A    between atoms: N2_8  and  C5_10 
REMARK    6  A    between atoms: C5_10  and  C6_14 
REMARK    7  A    between atoms: C9_17  and  C10_18 
ROOT
HETATM    1  C4  UNL     1      12.952  16.583  15.895  1.00  0.00     0.120 C 
HETATM    2  C13 UNL     1      12.242  16.871  17.205  1.00  0.00     0.024 C 
HETATM    3  C14 UNL     1      12.380  15.565  17.950  1.00  0.00     0.008 C 
HETATM    4  C15 UNL     1      12.079  14.594  16.817  1.00  0.00     0.008 C 
HETATM    5  C16 UNL     1      11.845  15.594  15.711  1.00  0.00     0.024 C 
HETATM    6  C17 UNL     1      10.948  16.573  16.448  1.00  0.00     0.015 C 
ENDROOT
BRANCH   1   7
HETATM    7  C3  UNL     1      12.888  17.658  14.874  1.00  0.00     0.247 C 
HETATM    8  N1  UNL     1      12.298  18.926  15.033  1.00  0.00    -0.345 N 
ATOM      9  H1  UNL     1      11.865  19.144  15.930  1.00  0.00     0.163 HD
HETATM   10  O1  UNL     1      13.401  17.428  13.753  1.00  0.00    -0.271 OA
BRANCH   8  11
HETATM   11  C2  UNL     1      12.270  19.940  14.000  1.00  0.00     0.181 C 
HETATM   12  C1  UNL     1      12.282  21.285  14.713  1.00  0.00     0.043 C 
BRANCH  11  13
HETATM   13  C18 UNL     1      10.980  19.847  13.283  1.00  0.00     0.196 C 
HETATM   14  O4  UNL     1      10.029  20.600  13.598  1.00  0.00    -0.646 OA
HETATM   15  O5  UNL     1      10.765  18.941  12.248  1.00  0.00    -0.646 OA
ENDBRANCH  11  13
ENDBRANCH   8  11
ENDBRANCH   1   7
BRANCH   1  16
HETATM   16  N2  UNL     1      14.259  16.020  16.097  1.00  0.00    -0.361 N 
ATOM     17  H2  UNL     1      14.296  15.002  16.127  1.00  0.00     0.162 HD
BRANCH  16  18
HETATM   18  C5  UNL     1      15.487  16.668  16.260  1.00  0.00     0.075 C 
HETATM   19  N3  UNL     1      16.018  17.092  15.120  1.00  0.00    -0.389 N 
ATOM     20  H32 UNL     1      15.468  16.921  14.278  1.00  0.00     0.157 HD
ATOM     21  H31 UNL     1      16.914  17.564  15.239  1.00  0.00     0.157 HD
BRANCH  18  22
HETATM   22  C6  UNL     1      16.270  16.912  17.460  1.00  0.00     0.052 C 
HETATM   23  C7  UNL     1      17.685  17.393  17.226  1.00  0.00     0.013 C 
HETATM   24  C8  UNL     1      18.607  17.013  18.346  1.00  0.00     0.016 C 
HETATM   25  C9  UNL     1      17.962  17.193  19.705  1.00  0.00     0.087 C 
HETATM   26  C11 UNL     1      16.678  16.417  19.814  1.00  0.00     0.016 C 
HETATM   27  C12 UNL     1      16.351  15.781  18.449  1.00  0.00     0.013 C 
BRANCH  25  28
HETATM   28  C10 UNL     1      18.911  16.789  20.755  1.00  0.00     0.177 C 
HETATM   29  O2  UNL     1      18.622  16.749  21.978  1.00  0.00    -0.648 OA
HETATM   30  O3  UNL     1      20.209  16.427  20.406  1.00  0.00    -0.648 OA
ENDBRANCH  25  28
ENDBRANCH  18  22
ENDBRANCH  16  18
ENDBRANCH   1  16
TORSDOF 7
ENDMDL
