MODEL 1
REMARK VINA RESULT: -6.466623334      0.000      0.000
REMARK  5 active torsions:
REMARK  status: ('A' for Active; 'I' for Inactive)
REMARK    1  A    between atoms: N1_1  and  C1_5 
REMARK    2  A    between atoms: N2_7  and  C3_8 
REMARK    3  A    between atoms: C8_13  and  C9_14 
REMARK    4  A    between atoms: C10_17  and  O3_18 
REMARK    5  A    between atoms: C10_17  and  C11_20 
ROOT
HETATM    1  C1  UNL     1      12.654  14.743  17.801  1.00  0.00     0.204 C 
HETATM    2  C2  UNL     1      14.174  14.580  17.954  1.00  0.00     0.151 C 
HETATM    3  N2  UNL     1      14.750  15.726  17.353  1.00  0.00    -0.390 N 
HETATM    4  C8  UNL     1      14.069  16.332  16.281  1.00  0.00     0.227 C 
HETATM    5  C10 UNL     1      13.095  15.491  15.519  1.00  0.00     0.177 C 
HETATM    6  C12 UNL     1      12.387  14.441  16.358  1.00  0.00     0.086 C 
ENDROOT
BRANCH   3   7
HETATM    7  C3  UNL     1      15.466  16.600  18.208  1.00  0.00     0.080 C 
HETATM    8  C4  UNL     1      16.868  16.836  17.706  1.00  0.00     0.025 C 
HETATM    9  C5  UNL     1      17.762  16.400  18.844  1.00  0.00     0.002 C 
HETATM   10  C6  UNL     1      16.927  16.757  20.055  1.00  0.00     0.002 C 
HETATM   11  C7  UNL     1      15.580  16.147  19.633  1.00  0.00     0.025 C 
ENDBRANCH   3   7
BRANCH   4  12
HETATM   12  C9  UNL     1      15.098  16.764  15.266  1.00  0.00     0.200 C 
HETATM   13  O1  UNL     1      15.799  15.921  14.662  1.00  0.00    -0.646 OA
HETATM   14  O2  UNL     1      15.278  18.111  14.992  1.00  0.00    -0.646 OA
ENDBRANCH   4  12
BRANCH   1  15
HETATM   15  N1  UNL     1      11.938  13.870  18.701  1.00  0.00    -0.073 N 
ATOM     16  H13 UNL     1      11.831  14.292  19.624  1.00  0.00     0.274 HD
ATOM     17  H12 UNL     1      10.953  13.797  18.446  1.00  0.00     0.274 HD
ATOM     18  H11 UNL     1      12.379  12.953  18.759  1.00  0.00     0.274 HD
ENDBRANCH   1  15
BRANCH   5  19
HETATM   19  O3  UNL     1      13.732  14.876  14.431  1.00  0.00    -0.376 OA
ATOM     20  H3  UNL     1      14.675  14.950  14.516  1.00  0.00     0.211 HD
ENDBRANCH   5  19
BRANCH   5  21
HETATM   21  C11 UNL     1      12.021  16.358  14.981  1.00  0.00     0.211 C 
HETATM   22  O4  UNL     1      12.312  17.419  14.401  1.00  0.00    -0.646 OA
HETATM   23  O5  UNL     1      10.693  16.009  15.112  1.00  0.00    -0.646 OA
ENDBRANCH   5  21
TORSDOF 5
ENDMDL
MODEL 2
REMARK VINA RESULT: -6.319823242      4.769      6.907
REMARK  5 active torsions:
REMARK  status: ('A' for Active; 'I' for Inactive)
REMARK    1  A    between atoms: N1_1  and  C1_5 
REMARK    2  A    between atoms: N2_7  and  C3_8 
REMARK    3  A    between atoms: C8_13  and  C9_14 
REMARK    4  A    between atoms: C10_17  and  O3_18 
REMARK    5  A    between atoms: C10_17  and  C11_20 
ROOT
HETATM    1  C1  UNL     1      18.346  17.714  14.418  1.00  0.00     0.204 C 
HETATM    2  C2  UNL     1      16.923  18.264  14.235  1.00  0.00     0.151 C 
HETATM    3  N2  UNL     1      16.494  17.815  12.963  1.00  0.00    -0.390 N 
HETATM    4  C8  UNL     1      17.461  17.624  11.960  1.00  0.00     0.227 C 
HETATM    5  C10 UNL     1      18.755  18.362  12.100  1.00  0.00     0.177 C 
HETATM    6  C12 UNL     1      19.199  18.575  13.537  1.00  0.00     0.086 C 
ENDROOT
BRANCH   3   7
HETATM    7  C3  UNL     1      15.393  16.921  12.943  1.00  0.00     0.080 C 
HETATM    8  C4  UNL     1      14.185  17.521  13.618  1.00  0.00     0.025 C 
HETATM    9  C5  UNL     1      13.837  16.546  14.719  1.00  0.00     0.002 C 
HETATM   10  C6  UNL     1      14.241  15.222  14.106  1.00  0.00     0.002 C 
HETATM   11  C7  UNL     1      15.641  15.590  13.588  1.00  0.00     0.025 C 
ENDBRANCH   3   7
BRANCH   4  12
HETATM   12  C9  UNL     1      16.873  18.102  10.655  1.00  0.00     0.200 C 
HETATM   13  O1  UNL     1      17.044  17.455   9.597  1.00  0.00    -0.646 OA
HETATM   14  O2  UNL     1      16.133  19.274  10.617  1.00  0.00    -0.646 OA
ENDBRANCH   4  12
BRANCH   1  15
HETATM   15  N1  UNL     1      18.751  17.751  15.804  1.00  0.00    -0.073 N 
ATOM     16  H13 UNL     1      17.946  17.730  16.429  1.00  0.00     0.274 HD
ATOM     17  H12 UNL     1      19.193  16.876  16.088  1.00  0.00     0.274 HD
ATOM     18  H11 UNL     1      19.351  18.552  15.995  1.00  0.00     0.274 HD
ENDBRANCH   1  15
BRANCH   5  19
HETATM   19  O3  UNL     1      18.684  19.597  11.439  1.00  0.00    -0.376 OA
ATOM     20  H3  UNL     1      19.096  19.537  10.585  1.00  0.00     0.211 HD
ENDBRANCH   5  19
BRANCH   5  21
HETATM   21  C11 UNL     1      19.836  17.572  11.465  1.00  0.00     0.211 C 
HETATM   22  O4  UNL     1      19.723  16.338  11.361  1.00  0.00    -0.646 OA
HETATM   23  O5  UNL     1      20.974  18.183  10.983  1.00  0.00    -0.646 OA
ENDBRANCH   5  21
TORSDOF 5
ENDMDL
MODEL 3
REMARK VINA RESULT: -6.274944610      9.828     11.913
REMARK  5 active torsions:
REMARK  status: ('A' for Active; 'I' for Inactive)
REMARK    1  A    between atoms: N1_1  and  C1_5 
REMARK    2  A    between atoms: N2_7  and  C3_8 
REMARK    3  A    between atoms: C8_13  and  C9_14 
REMARK    4  A    between atoms: C10_17  and  O3_18 
REMARK    5  A    between atoms: C10_17  and  C11_20 
ROOT
HETATM    1  C1  UNL     1      22.413  20.467  10.180  1.00  0.00     0.204 C 
HETATM    2  C2  UNL     1      22.713  19.216   9.340  1.00  0.00     0.151 C 
HETATM    3  N2  UNL     1      23.007  18.187  10.266  1.00  0.00    -0.390 N 
HETATM    4  C8  UNL     1      23.597  18.541  11.493  1.00  0.00     0.227 C 
HETATM    5  C10 UNL     1      24.332  19.842  11.556  1.00  0.00     0.177 C 
HETATM    6  C12 UNL     1      23.756  20.927  10.661  1.00  0.00     0.086 C 
ENDROOT
BRANCH   3   7
HETATM    7  C3  UNL     1      22.112  17.088  10.301  1.00  0.00     0.080 C 
HETATM    8  C4  UNL     1      21.244  17.046   9.069  1.00  0.00     0.025 C 
HETATM    9  C5  UNL     1      19.828  17.094   9.595  1.00  0.00     0.002 C 
HETATM   10  C6  UNL     1      19.954  16.350  10.907  1.00  0.00     0.002 C 
HETATM   11  C7  UNL     1      21.194  17.050  11.486  1.00  0.00     0.025 C 
ENDBRANCH   3   7
BRANCH   4  12
HETATM   12  C9  UNL     1      24.625  17.490  11.831  1.00  0.00     0.200 C 
HETATM   13  O1  UNL     1      24.745  17.060  13.001  1.00  0.00    -0.646 OA
HETATM   14  O2  UNL     1      25.455  16.989  10.840  1.00  0.00    -0.646 OA
ENDBRANCH   4  12
BRANCH   1  15
HETATM   15  N1  UNL     1      21.719  21.469   9.405  1.00  0.00    -0.073 N 
ATOM     16  H13 UNL     1      21.196  22.108  10.003  1.00  0.00     0.274 HD
ATOM     17  H12 UNL     1      22.369  22.137   8.990  1.00  0.00     0.274 HD
ATOM     18  H11 UNL     1      21.120  21.042   8.699  1.00  0.00     0.274 HD
ENDBRANCH   1  15
BRANCH   5  19
HETATM   19  O3  UNL     1      25.688  19.649  11.252  1.00  0.00    -0.376 OA
ATOM     20  H3  UNL     1      25.873  19.947  10.370  1.00  0.00     0.211 HD
ENDBRANCH   5  19
BRANCH   5  21
HETATM   21  C11 UNL     1      24.250  20.381  12.933  1.00  0.00     0.211 C 
HETATM   22  O4  UNL     1      25.265  20.406  13.650  1.00  0.00    -0.646 OA
HETATM   23  O5  UNL     1      23.060  20.859  13.440  1.00  0.00    -0.646 OA
ENDBRANCH   5  21
TORSDOF 5
ENDMDL
MODEL 4
REMARK VINA RESULT: -6.272431013      2.637      5.548
REMARK  5 active torsions:
REMARK  status: ('A' for Active; 'I' for Inactive)
REMARK    1  A    between atoms: N1_1  and  C1_5 
REMARK    2  A    between atoms: N2_7  and  C3_8 
REMARK    3  A    between atoms: C8_13  and  C9_14 
REMARK    4  A    between atoms: C10_17  and  O3_18 
REMARK    5  A    between atoms: C10_17  and  C11_20 
ROOT
HETATM    1  C1  UNL     1      15.529  18.116  14.604  1.00  0.00     0.204 C 
HETATM    2  C2  UNL     1      14.370  17.863  13.628  1.00  0.00     0.151 C 
HETATM    3  N2  UNL     1      13.305  17.359  14.413  1.00  0.00    -0.390 N 
HETATM    4  C8  UNL     1      13.617  16.614  15.565  1.00  0.00     0.227 C 
HETATM    5  C10 UNL     1      14.966  15.971  15.626  1.00  0.00     0.177 C 
HETATM    6  C12 UNL     1      16.062  16.751  14.919  1.00  0.00     0.086 C 
ENDROOT
BRANCH   3   7
HETATM    7  C3  UNL     1      12.137  18.159  14.488  1.00  0.00     0.080 C 
HETATM    8  C4  UNL     1      11.278  17.996  13.259  1.00  0.00     0.025 C 
HETATM    9  C5  UNL     1      11.144  19.392  12.697  1.00  0.00     0.002 C 
HETATM   10  C6  UNL     1      11.163  20.240  13.951  1.00  0.00     0.002 C 
HETATM   11  C7  UNL     1      12.381  19.629  14.662  1.00  0.00     0.025 C 
ENDBRANCH   3   7
BRANCH   4  12
HETATM   12  C9  UNL     1      12.632  15.476  15.660  1.00  0.00     0.200 C 
HETATM   13  O1  UNL     1      12.135  15.145  16.760  1.00  0.00    -0.646 OA
HETATM   14  O2  UNL     1      12.268  14.778  14.518  1.00  0.00    -0.646 OA
ENDBRANCH   4  12
BRANCH   1  15
HETATM   15  N1  UNL     1      16.524  18.989  14.025  1.00  0.00    -0.073 N 
ATOM     16  H13 UNL     1      16.537  18.918  13.008  1.00  0.00     0.274 HD
ATOM     17  H12 UNL     1      16.256  19.970  14.111  1.00  0.00     0.274 HD
ATOM     18  H11 UNL     1      17.447  18.817  14.423  1.00  0.00     0.274 HD
ENDBRANCH   1  15
BRANCH   5  19
HETATM   19  O3  UNL     1      14.907  14.668  15.111  1.00  0.00    -0.376 OA
ATOM     20  H3  UNL     1      15.781  14.346  14.928  1.00  0.00     0.211 HD
ENDBRANCH   5  19
BRANCH   5  21
HETATM   21  C11 UNL     1      15.397  15.878  17.040  1.00  0.00     0.211 C 
HETATM   22  O4  UNL     1      15.862  16.879  17.613  1.00  0.00    -0.646 OA
HETATM   23  O5  UNL     1      15.292  14.694  17.739  1.00  0.00    -0.646 OA
ENDBRANCH   5  21
TORSDOF 5
ENDMDL
MODEL 5
REMARK VINA RESULT: -6.254422020      1.190      1.695
REMARK  5 active torsions:
REMARK  status: ('A' for Active; 'I' for Inactive)
REMARK    1  A    between atoms: N1_1  and  C1_5 
REMARK    2  A    between atoms: N2_7  and  C3_8 
REMARK    3  A    between atoms: C8_13  and  C9_14 
REMARK    4  A    between atoms: C10_17  and  O3_18 
REMARK    5  A    between atoms: C10_17  and  C11_20 
ROOT
HETATM    1  C1  UNL     1      12.868  15.134  16.294  1.00  0.00     0.204 C 
HETATM    2  C2  UNL     1      14.329  14.918  16.718  1.00  0.00     0.151 C 
HETATM    3  N2  UNL     1      14.964  16.176  16.578  1.00  0.00    -0.390 N 
HETATM    4  C8  UNL     1      14.493  17.056  15.587  1.00  0.00     0.227 C 
HETATM    5  C10 UNL     1      13.739  16.462  14.440  1.00  0.00     0.177 C 
HETATM    6  C12 UNL     1      12.921  15.234  14.800  1.00  0.00     0.086 C 
ENDROOT
BRANCH   3   7
HETATM    7  C3  UNL     1      15.446  16.780  17.767  1.00  0.00     0.080 C 
HETATM    8  C4  UNL     1      16.947  16.917  17.745  1.00  0.00     0.025 C 
HETATM    9  C5  UNL     1      17.419  16.169  18.971  1.00  0.00     0.002 C 
HETATM   10  C6  UNL     1      16.282  16.407  19.942  1.00  0.00     0.002 C 
HETATM   11  C7  UNL     1      15.088  16.065  19.036  1.00  0.00     0.025 C 
ENDBRANCH   3   7
BRANCH   4  12
HETATM   12  C9  UNL     1      15.689  17.733  14.965  1.00  0.00     0.200 C 
HETATM   13  O1  UNL     1      15.670  18.956  14.699  1.00  0.00    -0.646 OA
HETATM   14  O2  UNL     1      16.830  16.998  14.679  1.00  0.00    -0.646 OA
ENDBRANCH   4  12
BRANCH   1  15
HETATM   15  N1  UNL     1      12.022  14.059  16.757  1.00  0.00    -0.073 N 
ATOM     16  H13 UNL     1      11.693  14.226  17.708  1.00  0.00     0.274 HD
ATOM     17  H12 UNL     1      11.122  14.059  16.277  1.00  0.00     0.274 HD
ATOM     18  H11 UNL     1      12.489  13.157  16.677  1.00  0.00     0.274 HD
ENDBRANCH   1  15
BRANCH   5  19
HETATM   19  O3  UNL     1      14.616  16.155  13.389  1.00  0.00    -0.376 OA
ATOM     20  H3  UNL     1      14.348  15.351  12.961  1.00  0.00     0.211 HD
ENDBRANCH   5  19
BRANCH   5  21
HETATM   21  C11 UNL     1      12.761  17.454  13.935  1.00  0.00     0.211 C 
HETATM   22  O4  UNL     1      11.617  17.497  14.419  1.00  0.00    -0.646 OA
HETATM   23  O5  UNL     1      13.098  18.338  12.932  1.00  0.00    -0.646 OA
ENDBRANCH   5  21
TORSDOF 5
ENDMDL
