MODEL 1
REMARK VINA RESULT: -7.269645324      0.000      0.000
REMARK  5 active torsions:
REMARK  status: ('A' for Active; 'I' for Inactive)
REMARK    1  A    between atoms: C1_2  and  O1_3 
REMARK    2  A    between atoms: O1_3  and  C2_4 
REMARK    3  A    between atoms: C5_8  and  C6_9 
REMARK    4  A    between atoms: C7_10  and  C8_11 
REMARK    5  A    between atoms: N6_29  and  C15_31 
ROOT
HETATM    1  C6  UNL     1     -19.901   4.995  20.523  1.00  0.00     0.051 A 
HETATM    2  C7  UNL     1     -18.562   5.319  20.452  1.00  0.00     0.090 A 
HETATM    3  N4  UNL     1     -18.117   5.071  19.183  1.00  0.00    -0.296 N 
ATOM      4  H4  UNL     1     -17.172   5.213  18.828  1.00  0.00     0.187 HD
HETATM    5  N5  UNL     1     -19.136   4.621  18.521  1.00  0.00    -0.284 N 
ATOM      6  H5  UNL     1     -19.092   4.351  17.539  1.00  0.00     0.188 HD
HETATM    7  C14 UNL     1     -20.253   4.543  19.255  1.00  0.00     0.129 A 
HETATM    8  N6  UNL     1     -21.432   4.139  18.905  1.00  0.00    -0.370 N 
ATOM      9  H6  UNL     1     -22.208   4.129  19.568  1.00  0.00     0.161 HD
ENDROOT
BRANCH   2  10
HETATM   10  C8  UNL     1     -17.692   5.861  21.481  1.00  0.00     0.078 A 
HETATM   11  N1  UNL     1     -17.347   5.137  22.565  1.00  0.00    -0.350 N 
HETATM   12  C9  UNL     1     -16.561   5.602  23.532  1.00  0.00     0.182 A 
ATOM     13  H1  UNL     1     -17.708   4.186  22.648  1.00  0.00     0.166 HD
HETATM   14  N2  UNL     1     -16.082   6.856  23.430  1.00  0.00    -0.338 N 
HETATM   15  C10 UNL     1     -16.361   7.655  22.400  1.00  0.00     0.120 A 
ATOM     16  H2  UNL     1     -15.479   7.210  24.173  1.00  0.00     0.168 HD
HETATM   17  N3  UNL     1     -15.990   8.913  22.113  1.00  0.00    -0.350 N 
HETATM   18  C13 UNL     1     -17.192   7.143  21.391  1.00  0.00     0.060 A 
HETATM   19  C11 UNL     1     -16.540   9.276  20.947  1.00  0.00     0.114 A 
ATOM     20  H3  UNL     1     -15.387   9.498  22.691  1.00  0.00     0.166 HD
HETATM   21  C12 UNL     1     -17.285   8.189  20.490  1.00  0.00     0.065 A 
HETATM   22 CL2  UNL     1     -18.214   8.106  19.012  1.00  0.00    -0.082 Cl
ENDBRANCH   2  10
BRANCH   1  23
HETATM   23  C5  UNL     1     -20.771   5.114  21.689  1.00  0.00     0.005 A 
HETATM   24  C4  UNL     1     -21.289   6.352  22.067  1.00  0.00     0.048 A 
HETATM   25  C3  UNL     1     -22.109   6.492  23.165  1.00  0.00     0.064 A 
HETATM   26 CL1  UNL     1     -20.871   7.776  21.114  1.00  0.00    -0.083 Cl
HETATM   27  C2  UNL     1     -22.430   5.383  23.914  1.00  0.00     0.112 A 
HETATM   28  C20 UNL     1     -21.932   4.151  23.564  1.00  0.00     0.150 A 
HETATM   29  C19 UNL     1     -21.122   4.037  22.471  1.00  0.00     0.059 A 
HETATM   30  F2  UNL     1     -22.286   3.090  24.344  1.00  0.00    -0.203 F 
BRANCH  27  31
HETATM   31  O1  UNL     1     -23.267   5.520  25.036  1.00  0.00    -0.319 OA
BRANCH  31  32
HETATM   32  C1  UNL     1     -22.956   6.468  26.039  1.00  0.00     0.398 C 
HETATM   33  F1  UNL     1     -23.976   6.537  26.948  1.00  0.00    -0.227 F 
ENDBRANCH  31  32
ENDBRANCH  27  31
ENDBRANCH   1  23
BRANCH   8  34
HETATM   34  C15 UNL     1     -21.607   3.707  17.546  1.00  0.00     0.083 C 
HETATM   35  C16 UNL     1     -22.016   2.303  17.317  1.00  0.00     0.025 C 
HETATM   36  C17 UNL     1     -23.046   2.816  16.302  1.00  0.00     0.004 C 
HETATM   37  C18 UNL     1     -22.976   4.154  17.034  1.00  0.00     0.025 C 
ENDBRANCH   8  34
TORSDOF 5
ENDMDL
MODEL 2
REMARK VINA RESULT: -6.926262019      4.079      5.866
REMARK  5 active torsions:
REMARK  status: ('A' for Active; 'I' for Inactive)
REMARK    1  A    between atoms: C1_2  and  O1_3 
REMARK    2  A    between atoms: O1_3  and  C2_4 
REMARK    3  A    between atoms: C5_8  and  C6_9 
REMARK    4  A    between atoms: C7_10  and  C8_11 
REMARK    5  A    between atoms: N6_29  and  C15_31 
ROOT
HETATM    1  C6  UNL     1     -21.728   2.997  21.090  1.00  0.00     0.051 A 
HETATM    2  C7  UNL     1     -21.056   3.537  22.167  1.00  0.00     0.090 A 
HETATM    3  N4  UNL     1     -21.169   2.682  23.228  1.00  0.00    -0.296 N 
ATOM      4  H4  UNL     1     -20.777   2.810  24.161  1.00  0.00     0.187 HD
HETATM    5  N5  UNL     1     -21.874   1.677  22.813  1.00  0.00    -0.284 N 
ATOM      6  H5  UNL     1     -22.117   0.881  23.402  1.00  0.00     0.188 HD
HETATM    7  C14 UNL     1     -22.252   1.787  21.533  1.00  0.00     0.129 A 
HETATM    8  N6  UNL     1     -22.956   0.968  20.818  1.00  0.00    -0.370 N 
ATOM      9  H6  UNL     1     -23.177   1.172  19.843  1.00  0.00     0.161 HD
ENDROOT
BRANCH   2  10
HETATM   10  C8  UNL     1     -20.305   4.777  22.254  1.00  0.00     0.078 A 
HETATM   11  N1  UNL     1     -19.203   4.989  21.508  1.00  0.00    -0.350 N 
HETATM   12  C9  UNL     1     -18.485   6.107  21.568  1.00  0.00     0.182 A 
ATOM     13  H1  UNL     1     -18.904   4.254  20.866  1.00  0.00     0.166 HD
HETATM   14  N2  UNL     1     -18.873   7.081  22.413  1.00  0.00    -0.338 N 
HETATM   15  C10 UNL     1     -19.947   6.973  23.195  1.00  0.00     0.120 A 
ATOM     16  H2  UNL     1     -18.321   7.937  22.457  1.00  0.00     0.168 HD
HETATM   17  N3  UNL     1     -20.496   7.812  24.089  1.00  0.00    -0.350 N 
HETATM   18  C13 UNL     1     -20.691   5.784  23.115  1.00  0.00     0.060 A 
HETATM   19  C11 UNL     1     -21.582   7.237  24.620  1.00  0.00     0.114 A 
ATOM     20  H3  UNL     1     -20.141   8.738  24.326  1.00  0.00     0.166 HD
HETATM   21  C12 UNL     1     -21.713   5.982  24.025  1.00  0.00     0.065 A 
HETATM   22 CL2  UNL     1     -22.961   4.799  24.342  1.00  0.00    -0.082 Cl
ENDBRANCH   2  10
BRANCH   1  23
HETATM   23  C5  UNL     1     -21.852   3.574  19.755  1.00  0.00     0.005 A 
HETATM   24  C4  UNL     1     -22.626   4.715  19.542  1.00  0.00     0.048 A 
HETATM   25  C3  UNL     1     -22.762   5.277  18.292  1.00  0.00     0.064 A 
HETATM   26 CL1  UNL     1     -23.457   5.447  20.914  1.00  0.00    -0.083 Cl
HETATM   27  C2  UNL     1     -22.120   4.702  17.219  1.00  0.00     0.112 A 
HETATM   28  C20 UNL     1     -21.352   3.577  17.401  1.00  0.00     0.150 A 
HETATM   29  C19 UNL     1     -21.231   3.038  18.649  1.00  0.00     0.059 A 
HETATM   30  F2  UNL     1     -20.741   3.055  16.300  1.00  0.00    -0.203 F 
BRANCH  27  31
HETATM   31  O1  UNL     1     -22.257   5.272  15.940  1.00  0.00    -0.319 OA
BRANCH  31  32
HETATM   32  C1  UNL     1     -23.438   5.056  15.192  1.00  0.00     0.398 C 
HETATM   33  F1  UNL     1     -24.055   3.911  15.613  1.00  0.00    -0.227 F 
ENDBRANCH  31  32
ENDBRANCH  27  31
ENDBRANCH   1  23
BRANCH   8  34
HETATM   34  C15 UNL     1     -23.413  -0.238  21.450  1.00  0.00     0.083 C 
HETATM   35  C16 UNL     1     -24.700  -0.809  20.994  1.00  0.00     0.025 C 
HETATM   36  C17 UNL     1     -24.027  -2.188  20.967  1.00  0.00     0.004 C 
HETATM   37  C18 UNL     1     -22.700  -1.443  20.839  1.00  0.00     0.025 C 
ENDBRANCH   8  34
TORSDOF 5
ENDMDL
MODEL 3
REMARK VINA RESULT: -6.743166142      4.283      6.035
REMARK  5 active torsions:
REMARK  status: ('A' for Active; 'I' for Inactive)
REMARK    1  A    between atoms: C1_2  and  O1_3 
REMARK    2  A    between atoms: O1_3  and  C2_4 
REMARK    3  A    between atoms: C5_8  and  C6_9 
REMARK    4  A    between atoms: C7_10  and  C8_11 
REMARK    5  A    between atoms: N6_29  and  C15_31 
ROOT
HETATM    1  C6  UNL     1     -21.569   3.815  17.949  1.00  0.00     0.051 A 
HETATM    2  C7  UNL     1     -22.011   4.375  16.768  1.00  0.00     0.090 A 
HETATM    3  N4  UNL     1     -22.780   3.457  16.108  1.00  0.00    -0.296 N 
ATOM      4  H4  UNL     1     -23.244   3.582  15.208  1.00  0.00     0.187 HD
HETATM    5  N5  UNL     1     -22.802   2.397  16.852  1.00  0.00    -0.284 N 
ATOM      6  H5  UNL     1     -23.306   1.546  16.602  1.00  0.00     0.188 HD
HETATM    7  C14 UNL     1     -22.096   2.528  17.982  1.00  0.00     0.129 A 
HETATM    8  N6  UNL     1     -21.913   1.669  18.933  1.00  0.00    -0.370 N 
ATOM      9  H6  UNL     1     -21.347   1.895  19.751  1.00  0.00     0.161 HD
ENDROOT
BRANCH   2  10
HETATM   10  C8  UNL     1     -21.777   5.707  16.238  1.00  0.00     0.078 A 
HETATM   11  N1  UNL     1     -22.622   6.726  16.493  1.00  0.00    -0.350 N 
HETATM   12  C9  UNL     1     -22.446   7.955  16.018  1.00  0.00     0.182 A 
ATOM     13  H1  UNL     1     -23.437   6.544  17.079  1.00  0.00     0.166 HD
HETATM   14  N2  UNL     1     -21.373   8.203  15.243  1.00  0.00    -0.338 N 
HETATM   15  C10 UNL     1     -20.477   7.267  14.931  1.00  0.00     0.120 A 
ATOM     16  H2  UNL     1     -21.240   9.147  14.881  1.00  0.00     0.168 HD
HETATM   17  N3  UNL     1     -19.358   7.307  14.188  1.00  0.00    -0.350 N 
HETATM   18  C13 UNL     1     -20.682   5.976  15.443  1.00  0.00     0.060 A 
HETATM   19  C11 UNL     1     -18.797   6.091  14.177  1.00  0.00     0.114 A 
ATOM     20  H3  UNL     1     -18.995   8.131  13.710  1.00  0.00     0.166 HD
HETATM   21  C12 UNL     1     -19.607   5.259  14.950  1.00  0.00     0.065 A 
HETATM   22 CL2  UNL     1     -19.349   3.562  15.281  1.00  0.00    -0.082 Cl
ENDBRANCH   2  10
BRANCH   1  23
HETATM   23  C5  UNL     1     -20.730   4.450  18.960  1.00  0.00     0.005 A 
HETATM   24  C4  UNL     1     -21.295   5.012  20.104  1.00  0.00     0.048 A 
HETATM   25  C3  UNL     1     -20.525   5.620  21.071  1.00  0.00     0.064 A 
HETATM   26 CL1  UNL     1     -23.045   4.947  20.308  1.00  0.00    -0.083 Cl
HETATM   27  C2  UNL     1     -19.159   5.679  20.910  1.00  0.00     0.112 A 
HETATM   28  C20 UNL     1     -18.577   5.133  19.791  1.00  0.00     0.150 A 
HETATM   29  C19 UNL     1     -19.360   4.535  18.846  1.00  0.00     0.059 A 
HETATM   30  F2  UNL     1     -17.220   5.222  19.688  1.00  0.00    -0.203 F 
BRANCH  27  31
HETATM   31  O1  UNL     1     -18.369   6.299  21.894  1.00  0.00    -0.319 OA
BRANCH  31  32
HETATM   32  C1  UNL     1     -17.886   5.548  22.991  1.00  0.00     0.398 C 
HETATM   33  F1  UNL     1     -16.769   4.850  22.623  1.00  0.00    -0.227 F 
ENDBRANCH  31  32
ENDBRANCH  27  31
ENDBRANCH   1  23
BRANCH   8  34
HETATM   34  C15 UNL     1     -22.540   0.383  18.793  1.00  0.00     0.083 C 
HETATM   35  C16 UNL     1     -21.662  -0.806  18.716  1.00  0.00     0.025 C 
HETATM   36  C17 UNL     1     -22.592  -1.502  19.718  1.00  0.00     0.004 C 
HETATM   37  C18 UNL     1     -23.025  -0.106  20.158  1.00  0.00     0.025 C 
ENDBRANCH   8  34
TORSDOF 5
ENDMDL
MODEL 4
REMARK VINA RESULT: -6.740611057      4.152      5.960
REMARK  5 active torsions:
REMARK  status: ('A' for Active; 'I' for Inactive)
REMARK    1  A    between atoms: C1_2  and  O1_3 
REMARK    2  A    between atoms: O1_3  and  C2_4 
REMARK    3  A    between atoms: C5_8  and  C6_9 
REMARK    4  A    between atoms: C7_10  and  C8_11 
REMARK    5  A    between atoms: N6_29  and  C15_31 
ROOT
HETATM    1  C6  UNL     1     -21.096   5.242  20.295  1.00  0.00     0.051 A 
HETATM    2  C7  UNL     1     -21.841   6.346  20.655  1.00  0.00     0.090 A 
HETATM    3  N4  UNL     1     -23.083   5.930  21.045  1.00  0.00    -0.296 N 
ATOM      4  H4  UNL     1     -23.852   6.518  21.366  1.00  0.00     0.187 HD
HETATM    5  N5  UNL     1     -23.089   4.640  20.928  1.00  0.00    -0.284 N 
ATOM      6  H5  UNL     1     -23.897   4.059  21.153  1.00  0.00     0.188 HD
HETATM    7  C14 UNL     1     -21.929   4.143  20.481  1.00  0.00     0.129 A 
HETATM    8  N6  UNL     1     -21.603   2.910  20.254  1.00  0.00    -0.370 N 
ATOM      9  H6  UNL     1     -20.675   2.662  19.910  1.00  0.00     0.161 HD
ENDROOT
BRANCH   2  10
HETATM   10  C8  UNL     1     -21.456   7.747  20.676  1.00  0.00     0.078 A 
HETATM   11  N1  UNL     1     -21.670   8.552  19.616  1.00  0.00    -0.350 N 
HETATM   12  C9  UNL     1     -21.323   9.836  19.595  1.00  0.00     0.182 A 
ATOM     13  H1  UNL     1     -22.120   8.158  18.790  1.00  0.00     0.166 HD
HETATM   14  N2  UNL     1     -20.728  10.365  20.681  1.00  0.00    -0.338 N 
HETATM   15  C10 UNL     1     -20.471   9.656  21.780  1.00  0.00     0.120 A 
ATOM     16  H2  UNL     1     -20.464  11.349  20.662  1.00  0.00     0.168 HD
HETATM   17  N3  UNL     1     -19.898   9.987  22.949  1.00  0.00    -0.350 N 
HETATM   18  C13 UNL     1     -20.846   8.303  21.781  1.00  0.00     0.060 A 
HETATM   19  C11 UNL     1     -19.869   8.909  23.743  1.00  0.00     0.114 A 
ATOM     20  H3  UNL     1     -19.542  10.911  23.192  1.00  0.00     0.166 HD
HETATM   21  C12 UNL     1     -20.454   7.861  23.032  1.00  0.00     0.065 A 
HETATM   22 CL2  UNL     1     -20.681   6.219  23.587  1.00  0.00    -0.082 Cl
ENDBRANCH   2  10
BRANCH   1  23
HETATM   23  C5  UNL     1     -19.714   5.231  19.827  1.00  0.00     0.005 A 
HETATM   24  C4  UNL     1     -19.423   5.094  18.470  1.00  0.00     0.048 A 
HETATM   25  C3  UNL     1     -18.128   5.077  18.002  1.00  0.00     0.064 A 
HETATM   26 CL1  UNL     1     -20.757   4.929  17.327  1.00  0.00    -0.083 Cl
HETATM   27  C2  UNL     1     -17.086   5.198  18.894  1.00  0.00     0.112 A 
HETATM   28  C20 UNL     1     -17.345   5.333  20.237  1.00  0.00     0.150 A 
HETATM   29  C19 UNL     1     -18.637   5.348  20.676  1.00  0.00     0.059 A 
HETATM   30  F2  UNL     1     -16.272   5.450  21.070  1.00  0.00    -0.203 F 
BRANCH  27  31
HETATM   31  O1  UNL     1     -15.762   5.181  18.422  1.00  0.00    -0.319 OA
BRANCH  31  32
HETATM   32  C1  UNL     1     -15.457   4.557  17.190  1.00  0.00     0.398 C 
HETATM   33  F1  UNL     1     -14.588   3.521  17.393  1.00  0.00    -0.227 F 
ENDBRANCH  31  32
ENDBRANCH  27  31
ENDBRANCH   1  23
BRANCH   8  34
HETATM   34  C15 UNL     1     -22.599   1.906  20.504  1.00  0.00     0.083 C 
HETATM   35  C16 UNL     1     -22.396   0.569  19.903  1.00  0.00     0.025 C 
HETATM   36  C17 UNL     1     -22.776  -0.048  21.256  1.00  0.00     0.004 C 
HETATM   37  C18 UNL     1     -22.370   1.284  21.882  1.00  0.00     0.025 C 
ENDBRANCH   8  34
TORSDOF 5
ENDMDL
MODEL 5
REMARK VINA RESULT: -6.683851267      3.052      5.879
REMARK  5 active torsions:
REMARK  status: ('A' for Active; 'I' for Inactive)
REMARK    1  A    between atoms: C1_2  and  O1_3 
REMARK    2  A    between atoms: O1_3  and  C2_4 
REMARK    3  A    between atoms: C5_8  and  C6_9 
REMARK    4  A    between atoms: C7_10  and  C8_11 
REMARK    5  A    between atoms: N6_29  and  C15_31 
ROOT
HETATM    1  C6  UNL     1     -20.884   7.988  24.182  1.00  0.00     0.051 A 
HETATM    2  C7  UNL     1     -19.549   8.171  24.480  1.00  0.00     0.090 A 
HETATM    3  N4  UNL     1     -19.441   9.156  25.422  1.00  0.00    -0.296 N 
ATOM      4  H4  UNL     1     -18.580   9.511  25.838  1.00  0.00     0.187 HD
HETATM    5  N5  UNL     1     -20.648   9.548  25.680  1.00  0.00    -0.284 N 
ATOM      6  H5  UNL     1     -20.867  10.282  26.353  1.00  0.00     0.188 HD
HETATM    7  C14 UNL     1     -21.580   8.895  24.975  1.00  0.00     0.129 A 
HETATM    8  N6  UNL     1     -22.867   9.041  24.992  1.00  0.00    -0.370 N 
ATOM      9  H6  UNL     1     -23.472   8.474  24.399  1.00  0.00     0.161 HD
ENDROOT
BRANCH   2  10
HETATM   10  C8  UNL     1     -18.387   7.472  23.959  1.00  0.00     0.078 A 
HETATM   11  N1  UNL     1     -18.107   6.204  24.318  1.00  0.00    -0.350 N 
HETATM   12  C9  UNL     1     -17.048   5.536  23.869  1.00  0.00     0.182 A 
ATOM     13  H1  UNL     1     -18.738   5.733  24.966  1.00  0.00     0.166 HD
HETATM   14  N2  UNL     1     -16.210   6.151  23.013  1.00  0.00    -0.338 N 
HETATM   15  C10 UNL     1     -16.395   7.403  22.595  1.00  0.00     0.120 A 
ATOM     16  H2  UNL     1     -15.399   5.636  22.670  1.00  0.00     0.168 HD
HETATM   17  N3  UNL     1     -15.691   8.184  21.759  1.00  0.00    -0.350 N 
HETATM   18  C13 UNL     1     -17.519   8.089  23.081  1.00  0.00     0.060 A 
HETATM   19  C11 UNL     1     -16.295   9.375  21.660  1.00  0.00     0.114 A 
ATOM     20  H3  UNL     1     -14.834   7.913  21.277  1.00  0.00     0.166 HD
HETATM   21  C12 UNL     1     -17.428   9.328  22.473  1.00  0.00     0.065 A 
HETATM   22 CL2  UNL     1     -18.590  10.610  22.723  1.00  0.00    -0.082 Cl
ENDBRANCH   2  10
BRANCH   1  23
HETATM   23  C5  UNL     1     -21.448   7.031  23.236  1.00  0.00     0.005 A 
HETATM   24  C4  UNL     1     -21.677   7.392  21.909  1.00  0.00     0.048 A 
HETATM   25  C3  UNL     1     -22.212   6.508  20.998  1.00  0.00     0.064 A 
HETATM   26 CL1  UNL     1     -21.278   9.030  21.392  1.00  0.00    -0.083 Cl
HETATM   27  C2  UNL     1     -22.531   5.231  21.402  1.00  0.00     0.112 A 
HETATM   28  C20 UNL     1     -22.316   4.850  22.704  1.00  0.00     0.150 A 
HETATM   29  C19 UNL     1     -21.785   5.743  23.589  1.00  0.00     0.059 A 
HETATM   30  F2  UNL     1     -22.652   3.573  23.043  1.00  0.00    -0.203 F 
BRANCH  27  31
HETATM   31  O1  UNL     1     -23.078   4.325  20.475  1.00  0.00    -0.319 OA
BRANCH  31  32
HETATM   32  C1  UNL     1     -22.236   3.415  19.795  1.00  0.00     0.398 C 
HETATM   33  F1  UNL     1     -22.287   2.190  20.401  1.00  0.00    -0.227 F 
ENDBRANCH  31  32
ENDBRANCH  27  31
ENDBRANCH   1  23
BRANCH   8  34
HETATM   34  C15 UNL     1     -23.408  10.033  25.880  1.00  0.00     0.083 C 
HETATM   35  C16 UNL     1     -24.666  10.702  25.479  1.00  0.00     0.025 C 
HETATM   36  C17 UNL     1     -25.181  10.490  26.909  1.00  0.00     0.004 C 
HETATM   37  C18 UNL     1     -24.172   9.349  27.013  1.00  0.00     0.025 C 
ENDBRANCH   8  34
TORSDOF 5
ENDMDL
