MODEL 1
REMARK VINA RESULT: -6.573158871      0.000      0.000
REMARK  8 active torsions:
REMARK  status: ('A' for Active; 'I' for Inactive)
REMARK    1  A    between atoms: C2_2  and  N1_3 
REMARK    2  A    between atoms: C2_2  and  C12_18 
REMARK       I    between atoms: N1_3  and  C3_5 
REMARK       I    between atoms: C3_5  and  N3_12 
REMARK    3  A    between atoms: N2_6  and  C4_8 
REMARK    4  A    between atoms: N3_12  and  C8_14 
REMARK       I    between atoms: C12_18  and  N4_20 
REMARK    5  A    between atoms: N4_20  and  C13_22 
REMARK    6  A    between atoms: C13_22  and  C14_23 
REMARK    7  A    between atoms: C13_22  and  C16_27 
REMARK    8  A    between atoms: C14_23  and  C15_24 
ROOT
HETATM    1  N1  UNL     1      14.422  15.612  15.633  1.00  0.00    -0.214 N 
ATOM      2  H1  UNL     1      15.120  14.869  15.628  1.00  0.00     0.178 HD
HETATM    3  C3  UNL     1      13.967  15.993  16.911  1.00  0.00     0.671 C 
HETATM    4  N2  UNL     1      12.864  15.821  17.368  1.00  0.00    -0.218 N 
ATOM      5  H2  UNL     1      12.913  16.227  18.302  1.00  0.00     0.178 HD
HETATM    6  N3  UNL     1      14.953  16.639  17.746  1.00  0.00    -0.218 N 
ATOM      7  H3  UNL     1      15.092  17.643  17.626  1.00  0.00     0.178 HD
ENDROOT
BRANCH   1   8
HETATM    8  C2  UNL     1      14.062  16.101  14.359  1.00  0.00     0.187 C 
HETATM    9  C1  UNL     1      13.267  17.395  14.399  1.00  0.00     0.043 C 
BRANCH   8  10
HETATM   10  C12 UNL     1      15.323  16.468  13.604  1.00  0.00     0.241 C 
HETATM   11  O1  UNL     1      15.827  15.711  12.756  1.00  0.00    -0.271 OA
HETATM   12  N4  UNL     1      15.931  17.719  13.891  1.00  0.00    -0.344 N 
ATOM     13  H4  UNL     1      15.518  18.346  14.583  1.00  0.00     0.163 HD
BRANCH  12  14
HETATM   14  C13 UNL     1      17.165  18.105  13.181  1.00  0.00     0.194 C 
BRANCH  14  15
HETATM   15  C14 UNL     1      16.994  19.465  12.569  1.00  0.00     0.135 C 
BRANCH  15  16
HETATM   16  C15 UNL     1      15.857  20.162  13.184  1.00  0.00     0.233 C 
HETATM   17  N5  UNL     1      14.639  20.200  12.433  1.00  0.00    -0.062 NA
HETATM   18  O2  UNL     1      15.928  20.711  14.322  1.00  0.00    -0.277 OA
ENDBRANCH  15  16
ENDBRANCH  14  15
BRANCH  14  19
HETATM   19  C16 UNL     1      18.308  18.114  14.110  1.00  0.00     0.197 C 
HETATM   20  O3  UNL     1      19.492  18.089  13.676  1.00  0.00    -0.646 OA
HETATM   21  O4  UNL     1      18.108  18.152  15.469  1.00  0.00    -0.646 OA
ENDBRANCH  14  19
ENDBRANCH  12  14
ENDBRANCH   8  10
ENDBRANCH   1   8
BRANCH   4  22
HETATM   22  C4  UNL     1      11.584  15.362  17.270  1.00  0.00     0.036 C 
HETATM   23  C5  UNL     1      10.633  16.022  16.300  1.00  0.00     0.038 C 
HETATM   24  C6  UNL     1      11.442  13.866  16.973  1.00  0.00     0.038 C 
HETATM   25  C7  UNL     1      10.912  15.529  18.648  1.00  0.00     0.038 C 
ENDBRANCH   4  22
BRANCH   6  26
HETATM   26  C8  UNL     1      15.736  15.977  18.718  1.00  0.00     0.036 C 
HETATM   27  C9  UNL     1      17.193  16.320  18.523  1.00  0.00     0.038 C 
HETATM   28  C10 UNL     1      15.399  16.317  20.142  1.00  0.00     0.038 C 
HETATM   29  C11 UNL     1      15.626  14.450  18.618  1.00  0.00     0.038 C 
ENDBRANCH   6  26
TORSDOF 8
ENDMDL
MODEL 2
REMARK VINA RESULT: -6.236613842      1.445      1.887
REMARK  8 active torsions:
REMARK  status: ('A' for Active; 'I' for Inactive)
REMARK    1  A    between atoms: C2_2  and  N1_3 
REMARK    2  A    between atoms: C2_2  and  C12_18 
REMARK       I    between atoms: N1_3  and  C3_5 
REMARK       I    between atoms: C3_5  and  N3_12 
REMARK    3  A    between atoms: N2_6  and  C4_8 
REMARK    4  A    between atoms: N3_12  and  C8_14 
REMARK       I    between atoms: C12_18  and  N4_20 
REMARK    5  A    between atoms: N4_20  and  C13_22 
REMARK    6  A    between atoms: C13_22  and  C14_23 
REMARK    7  A    between atoms: C13_22  and  C16_27 
REMARK    8  A    between atoms: C14_23  and  C15_24 
ROOT
HETATM    1  N1  UNL     1      14.559  15.633  15.651  1.00  0.00    -0.214 N 
ATOM      2  H1  UNL     1      15.241  14.874  15.679  1.00  0.00     0.178 HD
HETATM    3  C3  UNL     1      14.060  16.030  16.907  1.00  0.00     0.671 C 
HETATM    4  N2  UNL     1      12.935  15.884  17.319  1.00  0.00    -0.218 N 
ATOM      5  H2  UNL     1      12.955  16.294  18.253  1.00  0.00     0.178 HD
HETATM    6  N3  UNL     1      15.024  16.660  17.779  1.00  0.00    -0.218 N 
ATOM      7  H3  UNL     1      15.190  17.660  17.660  1.00  0.00     0.178 HD
ENDROOT
BRANCH   1   8
HETATM    8  C2  UNL     1      14.263  16.122  14.361  1.00  0.00     0.187 C 
HETATM    9  C1  UNL     1      13.714  17.538  14.351  1.00  0.00     0.043 C 
BRANCH   8  10
HETATM   10  C12 UNL     1      15.550  16.221  13.570  1.00  0.00     0.241 C 
HETATM   11  O1  UNL     1      16.069  15.230  13.028  1.00  0.00    -0.271 OA
HETATM   12  N4  UNL     1      16.166  17.497  13.458  1.00  0.00    -0.344 N 
ATOM     13  H4  UNL     1      15.741  18.314  13.897  1.00  0.00     0.163 HD
BRANCH  12  14
HETATM   14  C13 UNL     1      17.426  17.630  12.702  1.00  0.00     0.194 C 
BRANCH  14  15
HETATM   15  C14 UNL     1      17.163  18.312  11.392  1.00  0.00     0.135 C 
BRANCH  15  16
HETATM   16  C15 UNL     1      17.712  17.519  10.285  1.00  0.00     0.233 C 
HETATM   17  N5  UNL     1      16.789  17.085   9.280  1.00  0.00    -0.062 NA
HETATM   18  O2  UNL     1      18.940  17.221  10.202  1.00  0.00    -0.277 OA
ENDBRANCH  15  16
ENDBRANCH  14  15
BRANCH  14  19
HETATM   19  C16 UNL     1      18.410  18.401  13.481  1.00  0.00     0.197 C 
HETATM   20  O3  UNL     1      19.648  18.241  13.296  1.00  0.00    -0.646 OA
HETATM   21  O4  UNL     1      18.000  19.313  14.422  1.00  0.00    -0.646 OA
ENDBRANCH  14  19
ENDBRANCH  12  14
ENDBRANCH   8  10
ENDBRANCH   1   8
BRANCH   4  22
HETATM   22  C4  UNL     1      11.651  15.451  17.170  1.00  0.00     0.036 C 
HETATM   23  C5  UNL     1      10.759  16.118  16.150  1.00  0.00     0.038 C 
HETATM   24  C6  UNL     1      11.489  13.954  16.886  1.00  0.00     0.038 C 
HETATM   25  C7  UNL     1      10.923  15.652  18.515  1.00  0.00     0.038 C 
ENDBRANCH   4  22
BRANCH   6  26
HETATM   26  C8  UNL     1      15.753  15.987  18.786  1.00  0.00     0.036 C 
HETATM   27  C9  UNL     1      17.223  16.295  18.647  1.00  0.00     0.038 C 
HETATM   28  C10 UNL     1      15.367  16.345  20.192  1.00  0.00     0.038 C 
HETATM   29  C11 UNL     1      15.611  14.462  18.692  1.00  0.00     0.038 C 
ENDBRANCH   6  26
TORSDOF 8
ENDMDL
MODEL 3
REMARK VINA RESULT: -6.156645003      3.342      6.226
REMARK  8 active torsions:
REMARK  status: ('A' for Active; 'I' for Inactive)
REMARK    1  A    between atoms: C2_2  and  N1_3 
REMARK    2  A    between atoms: C2_2  and  C12_18 
REMARK       I    between atoms: N1_3  and  C3_5 
REMARK       I    between atoms: C3_5  and  N3_12 
REMARK    3  A    between atoms: N2_6  and  C4_8 
REMARK    4  A    between atoms: N3_12  and  C8_14 
REMARK       I    between atoms: C12_18  and  N4_20 
REMARK    5  A    between atoms: N4_20  and  C13_22 
REMARK    6  A    between atoms: C13_22  and  C14_23 
REMARK    7  A    between atoms: C13_22  and  C16_27 
REMARK    8  A    between atoms: C14_23  and  C15_24 
ROOT
HETATM    1  N1  UNL     1      14.578  16.248  17.770  1.00  0.00    -0.214 N 
ATOM      2  H1  UNL     1      14.921  17.208  17.739  1.00  0.00     0.178 HD
HETATM    3  C3  UNL     1      14.019  15.778  16.565  1.00  0.00     0.671 C 
HETATM    4  N2  UNL     1      12.860  15.514  16.358  1.00  0.00    -0.218 N 
ATOM      5  H2  UNL     1      12.843  15.207  15.386  1.00  0.00     0.178 HD
HETATM    6  N3  UNL     1      14.954  15.621  15.475  1.00  0.00    -0.218 N 
ATOM      7  H3  UNL     1      15.489  14.753  15.430  1.00  0.00     0.178 HD
ENDROOT
BRANCH   1   8
HETATM    8  C2  UNL     1      14.737  15.597  19.011  1.00  0.00     0.187 C 
HETATM    9  C1  UNL     1      14.678  14.081  18.923  1.00  0.00     0.043 C 
BRANCH   8  10
HETATM   10  C12 UNL     1      16.129  15.881  19.536  1.00  0.00     0.241 C 
HETATM   11  O1  UNL     1      17.139  15.771  18.818  1.00  0.00    -0.271 OA
HETATM   12  N4  UNL     1      16.260  16.282  20.892  1.00  0.00    -0.344 N 
ATOM     13  H4  UNL     1      15.434  16.378  21.483  1.00  0.00     0.163 HD
BRANCH  12  14
HETATM   14  C13 UNL     1      17.602  16.558  21.440  1.00  0.00     0.194 C 
BRANCH  14  15
HETATM   15  C14 UNL     1      18.224  17.709  20.703  1.00  0.00     0.135 C 
BRANCH  15  16
HETATM   16  C15 UNL     1      19.659  17.469  20.501  1.00  0.00     0.233 C 
HETATM   17  N5  UNL     1      20.106  16.112  20.584  1.00  0.00    -0.062 NA
HETATM   18  O2  UNL     1      20.481  18.403  20.265  1.00  0.00    -0.277 OA
ENDBRANCH  15  16
ENDBRANCH  14  15
BRANCH  14  19
HETATM   19  C16 UNL     1      17.513  16.871  22.876  1.00  0.00     0.197 C 
HETATM   20  O3  UNL     1      16.400  16.870  23.469  1.00  0.00    -0.646 OA
HETATM   21  O4  UNL     1      18.642  17.169  23.600  1.00  0.00    -0.646 OA
ENDBRANCH  14  19
ENDBRANCH  12  14
ENDBRANCH   8  10
ENDBRANCH   1   8
BRANCH   4  22
HETATM   22  C4  UNL     1      11.562  15.417  16.764  1.00  0.00     0.036 C 
HETATM   23  C5  UNL     1      11.159  15.995  18.100  1.00  0.00     0.038 C 
HETATM   24  C6  UNL     1      10.523  15.975  15.787  1.00  0.00     0.038 C 
HETATM   25  C7  UNL     1      11.206  13.919  16.865  1.00  0.00     0.038 C 
ENDBRANCH   4  22
BRANCH   6  26
HETATM   26  C8  UNL     1      15.179  16.586  14.468  1.00  0.00     0.036 C 
HETATM   27  C9  UNL     1      15.838  15.939  13.275  1.00  0.00     0.038 C 
HETATM   28  C10 UNL     1      13.942  17.271  13.960  1.00  0.00     0.038 C 
HETATM   29  C11 UNL     1      16.114  17.710  14.932  1.00  0.00     0.038 C 
ENDBRANCH   6  26
TORSDOF 8
ENDMDL
MODEL 4
REMARK VINA RESULT: -6.118496271      3.780      7.564
REMARK  8 active torsions:
REMARK  status: ('A' for Active; 'I' for Inactive)
REMARK    1  A    between atoms: C2_2  and  N1_3 
REMARK    2  A    between atoms: C2_2  and  C12_18 
REMARK       I    between atoms: N1_3  and  C3_5 
REMARK       I    between atoms: C3_5  and  N3_12 
REMARK    3  A    between atoms: N2_6  and  C4_8 
REMARK    4  A    between atoms: N3_12  and  C8_14 
REMARK       I    between atoms: C12_18  and  N4_20 
REMARK    5  A    between atoms: N4_20  and  C13_22 
REMARK    6  A    between atoms: C13_22  and  C14_23 
REMARK    7  A    between atoms: C13_22  and  C16_27 
REMARK    8  A    between atoms: C14_23  and  C15_24 
ROOT
HETATM    1  N1  UNL     1      13.967  16.326  15.776  1.00  0.00    -0.214 N 
ATOM      2  H1  UNL     1      13.302  15.827  15.185  1.00  0.00     0.178 HD
HETATM    3  C3  UNL     1      14.279  17.632  15.350  1.00  0.00     0.671 C 
HETATM    4  N2  UNL     1      15.338  18.020  14.922  1.00  0.00    -0.218 N 
ATOM      5  H2  UNL     1      15.181  19.008  14.724  1.00  0.00     0.178 HD
HETATM    6  N3  UNL     1      13.192  18.579  15.429  1.00  0.00    -0.218 N 
ATOM      7  H3  UNL     1      13.026  19.037  16.325  1.00  0.00     0.178 HD
ENDROOT
BRANCH   1   8
HETATM    8  C2  UNL     1      14.431  15.601  16.895  1.00  0.00     0.187 C 
HETATM    9  C1  UNL     1      15.075  16.467  17.964  1.00  0.00     0.043 C 
BRANCH   8  10
HETATM   10  C12 UNL     1      13.244  14.975  17.596  1.00  0.00     0.241 C 
HETATM   11  O1  UNL     1      13.351  13.940  18.277  1.00  0.00    -0.271 OA
HETATM   12  N4  UNL     1      11.978  15.606  17.456  1.00  0.00    -0.344 N 
ATOM     13  H4  UNL     1      11.887  16.459  16.903  1.00  0.00     0.163 HD
BRANCH  12  14
HETATM   14  C13 UNL     1      10.798  15.019  18.118  1.00  0.00     0.194 C 
BRANCH  14  15
HETATM   15  C14 UNL     1      10.352  15.908  19.243  1.00  0.00     0.135 C 
BRANCH  15  16
HETATM   16  C15 UNL     1       9.137  15.369  19.867  1.00  0.00     0.233 C 
HETATM   17  N5  UNL     1       8.141  16.316  20.267  1.00  0.00    -0.062 NA
HETATM   18  O2  UNL     1       8.956  14.129  20.053  1.00  0.00    -0.277 OA
ENDBRANCH  15  16
ENDBRANCH  14  15
BRANCH  14  19
HETATM   19  C16 UNL     1       9.701  14.847  17.149  1.00  0.00     0.197 C 
HETATM   20  O3  UNL     1       9.328  15.807  16.421  1.00  0.00    -0.646 OA
HETATM   21  O4  UNL     1       9.065  13.637  17.018  1.00  0.00    -0.646 OA
ENDBRANCH  14  19
ENDBRANCH  12  14
ENDBRANCH   8  10
ENDBRANCH   1   8
BRANCH   4  22
HETATM   22  C4  UNL     1      16.639  17.810  14.570  1.00  0.00     0.036 C 
HETATM   23  C5  UNL     1      17.656  17.504  15.643  1.00  0.00     0.038 C 
HETATM   24  C6  UNL     1      16.869  16.722  13.516  1.00  0.00     0.038 C 
HETATM   25  C7  UNL     1      17.161  19.095  13.893  1.00  0.00     0.038 C 
ENDBRANCH   4  22
BRANCH   6  26
HETATM   26  C8  UNL     1      12.343  18.915  14.350  1.00  0.00     0.036 C 
HETATM   27  C9  UNL     1      11.195  17.940  14.278  1.00  0.00     0.038 C 
HETATM   28  C10 UNL     1      11.741  20.289  14.423  1.00  0.00     0.038 C 
HETATM   29  C11 UNL     1      13.063  18.849  12.996  1.00  0.00     0.038 C 
ENDBRANCH   6  26
TORSDOF 8
ENDMDL
MODEL 5
REMARK VINA RESULT: -6.090957277      5.847      7.961
REMARK  8 active torsions:
REMARK  status: ('A' for Active; 'I' for Inactive)
REMARK    1  A    between atoms: C2_2  and  N1_3 
REMARK    2  A    between atoms: C2_2  and  C12_18 
REMARK       I    between atoms: N1_3  and  C3_5 
REMARK       I    between atoms: C3_5  and  N3_12 
REMARK    3  A    between atoms: N2_6  and  C4_8 
REMARK    4  A    between atoms: N3_12  and  C8_14 
REMARK       I    between atoms: C12_18  and  N4_20 
REMARK    5  A    between atoms: N4_20  and  C13_22 
REMARK    6  A    between atoms: C13_22  and  C14_23 
REMARK    7  A    between atoms: C13_22  and  C16_27 
REMARK    8  A    between atoms: C14_23  and  C15_24 
ROOT
HETATM    1  N1  UNL     1      10.789  18.211  13.229  1.00  0.00    -0.214 N 
ATOM      2  H1  UNL     1      11.419  18.312  12.433  1.00  0.00     0.178 HD
HETATM    3  C3  UNL     1      11.334  18.592  14.471  1.00  0.00     0.671 C 
HETATM    4  N2  UNL     1      11.600  17.868  15.398  1.00  0.00    -0.218 N 
ATOM      5  H2  UNL     1      11.968  18.498  16.111  1.00  0.00     0.178 HD
HETATM    6  N3  UNL     1      11.609  20.003  14.613  1.00  0.00    -0.218 N 
ATOM      7  H3  UNL     1      10.839  20.610  14.896  1.00  0.00     0.178 HD
ENDROOT
BRANCH   1   8
HETATM    8  C2  UNL     1       9.508  17.710  12.916  1.00  0.00     0.187 C 
HETATM    9  C1  UNL     1       8.368  18.528  13.500  1.00  0.00     0.043 C 
BRANCH   8  10
HETATM   10  C12 UNL     1       9.299  17.807  11.419  1.00  0.00     0.241 C 
HETATM   11  O1  UNL     1      10.132  18.348  10.671  1.00  0.00    -0.271 OA
HETATM   12  N4  UNL     1       8.108  17.256  10.876  1.00  0.00    -0.344 N 
ATOM     13  H4  UNL     1       7.424  16.806  11.485  1.00  0.00     0.163 HD
BRANCH  12  14
HETATM   14  C13 UNL     1       7.867  17.339   9.423  1.00  0.00     0.194 C 
BRANCH  14  15
HETATM   15  C14 UNL     1       7.356  16.022   8.916  1.00  0.00     0.135 C 
BRANCH  15  16
HETATM   16  C15 UNL     1       8.098  14.915   9.533  1.00  0.00     0.233 C 
HETATM   17  N5  UNL     1       7.378  14.085  10.451  1.00  0.00    -0.062 NA
HETATM   18  O2  UNL     1       9.319  14.688   9.283  1.00  0.00    -0.277 OA
ENDBRANCH  15  16
ENDBRANCH  14  15
BRANCH  14  19
HETATM   19  C16 UNL     1       6.892  18.403   9.126  1.00  0.00     0.197 C 
HETATM   20  O3  UNL     1       5.673  18.131   8.955  1.00  0.00    -0.646 OA
HETATM   21  O4  UNL     1       7.292  19.714   9.033  1.00  0.00    -0.646 OA
ENDBRANCH  14  19
ENDBRANCH  12  14
ENDBRANCH   8  10
ENDBRANCH   1   8
BRANCH   4  22
HETATM   22  C4  UNL     1      11.658  16.636  15.979  1.00  0.00     0.036 C 
HETATM   23  C5  UNL     1      10.379  15.866  16.211  1.00  0.00     0.038 C 
HETATM   24  C6  UNL     1      12.582  15.626  15.291  1.00  0.00     0.038 C 
HETATM   25  C7  UNL     1      12.273  16.801  17.384  1.00  0.00     0.038 C 
ENDBRANCH   4  22
BRANCH   6  26
HETATM   26  C8  UNL     1      12.870  20.600  14.387  1.00  0.00     0.036 C 
HETATM   27  C9  UNL     1      12.915  21.192  12.999  1.00  0.00     0.038 C 
HETATM   28  C10 UNL     1      13.227  21.704  15.340  1.00  0.00     0.038 C 
HETATM   29  C11 UNL     1      14.020  19.588  14.472  1.00  0.00     0.038 C 
ENDBRANCH   6  26
TORSDOF 8
ENDMDL
