MODEL 1
REMARK VINA RESULT: -3.723983685      0.000      0.000
REMARK  2 active torsions:
REMARK  status: ('A' for Active; 'I' for Inactive)
REMARK    1  A    between atoms: C2_2  and  C3_3 
REMARK    2  A    between atoms: C7_7  and  N1_8 
ROOT
HETATM    1  C3  UNL     1       1.925  -2.740 -22.908  1.00  0.00     0.188 C 
HETATM    2  C4  UNL     1       1.875  -4.205 -22.780  1.00  0.00     0.033 C 
HETATM    3  C5  UNL     1       1.445  -4.995 -23.946  1.00  0.00     0.006 C 
HETATM    4  C6  UNL     1       1.162  -4.132 -25.184  1.00  0.00     0.062 C 
HETATM    5  C7  UNL     1       2.342  -3.164 -25.193  1.00  0.00     0.380 C 
HETATM    6  N2  UNL     1       2.034  -2.186 -24.206  1.00  0.00    -0.042 N 
ATOM      7  H21 UNL     1       2.709  -1.422 -24.224  1.00  0.00     0.280 HD
ATOM      8  H22 UNL     1       1.192  -1.667 -24.455  1.00  0.00     0.280 HD
ENDROOT
BRANCH   5   9
HETATM    9  N1  UNL     1       2.602  -2.646 -26.496  1.00  0.00    -0.050 N 
ATOM     10  H13 UNL     1       2.222  -3.257 -27.219  1.00  0.00     0.276 HD
ATOM     11  H12 UNL     1       2.046  -1.811 -26.679  1.00  0.00     0.276 HD
ATOM     12  H11 UNL     1       3.595  -2.468 -26.647  1.00  0.00     0.276 HD
ENDBRANCH   5   9
BRANCH   1  13
HETATM   13  C2  UNL     1       3.103  -2.199 -22.081  1.00  0.00     0.028 C 
HETATM   14  C1  UNL     1       2.667  -1.124 -21.134  1.00  0.00     0.007 C 
ENDBRANCH   1  13
TORSDOF 2
ENDMDL
MODEL 2
REMARK VINA RESULT: -3.679678047      0.907      1.042
REMARK  2 active torsions:
REMARK  status: ('A' for Active; 'I' for Inactive)
REMARK    1  A    between atoms: C2_2  and  C3_3 
REMARK    2  A    between atoms: C7_7  and  N1_8 
ROOT
HETATM    1  C3  UNL     1       1.033  -2.209 -22.831  1.00  0.00     0.188 C 
HETATM    2  C4  UNL     1       1.248  -3.519 -22.197  1.00  0.00     0.033 C 
HETATM    3  C5  UNL     1       1.591  -4.663 -23.058  1.00  0.00     0.006 C 
HETATM    4  C6  UNL     1       1.734  -4.280 -24.537  1.00  0.00     0.062 C 
HETATM    5  C7  UNL     1       2.543  -2.988 -24.470  1.00  0.00     0.380 C 
HETATM    6  N2  UNL     1       1.609  -1.979 -24.104  1.00  0.00    -0.042 N 
ATOM      7  H21 UNL     1       2.031  -1.052 -24.153  1.00  0.00     0.280 HD
ATOM      8  H22 UNL     1       0.888  -1.869 -24.817  1.00  0.00     0.280 HD
ENDROOT
BRANCH   5   9
HETATM    9  N1  UNL     1       3.259  -2.738 -25.678  1.00  0.00    -0.050 N 
ATOM     10  H13 UNL     1       4.062  -2.130 -25.512  1.00  0.00     0.276 HD
ATOM     11  H12 UNL     1       3.750  -3.573 -25.996  1.00  0.00     0.276 HD
ATOM     12  H11 UNL     1       2.657  -2.361 -26.411  1.00  0.00     0.276 HD
ENDBRANCH   5   9
BRANCH   1  13
HETATM   13  C2  UNL     1       1.543  -1.102 -21.893  1.00  0.00     0.028 C 
HETATM   14  C1  UNL     1       2.914  -1.405 -21.373  1.00  0.00     0.007 C 
ENDBRANCH   1  13
TORSDOF 2
ENDMDL
MODEL 3
REMARK VINA RESULT: -3.545629410      6.234      7.306
REMARK  2 active torsions:
REMARK  status: ('A' for Active; 'I' for Inactive)
REMARK    1  A    between atoms: C2_2  and  C3_3 
REMARK    2  A    between atoms: C7_7  and  N1_8 
ROOT
HETATM    1  C3  UNL     1       2.932   2.300 -29.060  1.00  0.00     0.188 C 
HETATM    2  C4  UNL     1       2.270   2.009 -30.342  1.00  0.00     0.033 C 
HETATM    3  C5  UNL     1       2.700   0.819 -31.095  1.00  0.00     0.006 C 
HETATM    4  C6  UNL     1       3.775   0.002 -30.365  1.00  0.00     0.062 C 
HETATM    5  C7  UNL     1       3.250  -0.036 -28.933  1.00  0.00     0.380 C 
HETATM    6  N2  UNL     1       3.571   1.236 -28.381  1.00  0.00    -0.042 N 
ATOM      7  H21 UNL     1       3.369   1.264 -27.382  1.00  0.00     0.280 HD
ATOM      8  H22 UNL     1       4.581   1.376 -28.348  1.00  0.00     0.280 HD
ENDROOT
BRANCH   5   9
HETATM    9  N1  UNL     1       3.752  -1.154 -28.204  1.00  0.00    -0.050 N 
ATOM     10  H13 UNL     1       3.236  -2.005 -28.432  1.00  0.00     0.276 HD
ATOM     11  H12 UNL     1       4.675  -1.429 -28.539  1.00  0.00     0.276 HD
ATOM     12  H11 UNL     1       3.760  -0.986 -27.198  1.00  0.00     0.276 HD
ENDBRANCH   5   9
BRANCH   1  13
HETATM   13  C2  UNL     1       1.908   2.912 -28.090  1.00  0.00     0.028 C 
HETATM   14  C1  UNL     1       2.576   3.637 -26.963  1.00  0.00     0.007 C 
ENDBRANCH   1  13
TORSDOF 2
ENDMDL
MODEL 4
REMARK VINA RESULT: -3.517176708      2.448      4.493
REMARK  2 active torsions:
REMARK  status: ('A' for Active; 'I' for Inactive)
REMARK    1  A    between atoms: C2_2  and  C3_3 
REMARK    2  A    between atoms: C7_7  and  N1_8 
ROOT
HETATM    1  C3  UNL     1       1.567  -2.902 -22.542  1.00  0.00     0.188 C 
HETATM    2  C4  UNL     1       2.939  -2.460 -22.244  1.00  0.00     0.033 C 
HETATM    3  C5  UNL     1       3.121  -1.283 -21.378  1.00  0.00     0.006 C 
HETATM    4  C6  UNL     1       1.796  -0.714 -20.852  1.00  0.00     0.062 C 
HETATM    5  C7  UNL     1       1.034  -1.970 -20.439  1.00  0.00     0.380 C 
HETATM    6  N2  UNL     1       0.534  -2.521 -21.652  1.00  0.00    -0.042 N 
ATOM      7  H21 UNL     1      -0.097  -3.301 -21.467  1.00  0.00     0.280 HD
ATOM      8  H22 UNL     1      -0.121  -1.883 -22.102  1.00  0.00     0.280 HD
ENDROOT
BRANCH   5   9
HETATM    9  N1  UNL     1       0.046  -1.698 -19.447  1.00  0.00    -0.050 N 
ATOM     10  H13 UNL     1       0.135  -0.747 -19.088  1.00  0.00     0.276 HD
ATOM     11  H12 UNL     1      -0.884  -1.627 -19.861  1.00  0.00     0.276 HD
ATOM     12  H11 UNL     1       0.062  -2.382 -18.691  1.00  0.00     0.276 HD
ENDBRANCH   5   9
BRANCH   1  13
HETATM   13  C2  UNL     1       1.539  -4.436 -22.643  1.00  0.00     0.028 C 
HETATM   14  C1  UNL     1       0.139  -4.967 -22.644  1.00  0.00     0.007 C 
ENDBRANCH   1  13
TORSDOF 2
ENDMDL
MODEL 5
REMARK VINA RESULT: -3.505394608      1.563      3.071
REMARK  2 active torsions:
REMARK  status: ('A' for Active; 'I' for Inactive)
REMARK    1  A    between atoms: C2_2  and  C3_3 
REMARK    2  A    between atoms: C7_7  and  N1_8 
ROOT
HETATM    1  C3  UNL     1       1.279  -3.913 -22.551  1.00  0.00     0.188 C 
HETATM    2  C4  UNL     1       1.583  -2.734 -21.724  1.00  0.00     0.033 C 
HETATM    3  C5  UNL     1       2.854  -2.027 -21.956  1.00  0.00     0.006 C 
HETATM    4  C6  UNL     1       3.668  -2.621 -23.114  1.00  0.00     0.062 C 
HETATM    5  C7  UNL     1       2.607  -2.847 -24.186  1.00  0.00     0.380 C 
HETATM    6  N2  UNL     1       1.931  -4.038 -23.801  1.00  0.00    -0.042 N 
ATOM      7  H21 UNL     1       1.280  -4.342 -24.526  1.00  0.00     0.280 HD
ATOM      8  H22 UNL     1       2.565  -4.837 -23.805  1.00  0.00     0.280 HD
ENDROOT
BRANCH   5   9
HETATM    9  N1  UNL     1       3.164  -2.867 -25.499  1.00  0.00    -0.050 N 
ATOM     10  H13 UNL     1       2.979  -1.992 -25.992  1.00  0.00     0.276 HD
ATOM     11  H12 UNL     1       4.182  -2.825 -25.469  1.00  0.00     0.276 HD
ATOM     12  H11 UNL     1       2.843  -3.670 -26.041  1.00  0.00     0.276 HD
ENDBRANCH   5   9
BRANCH   1  13
HETATM   13  C2  UNL     1      -0.235  -3.966 -22.819  1.00  0.00     0.028 C 
HETATM   14  C1  UNL     1      -0.826  -5.275 -22.396  1.00  0.00     0.007 C 
ENDBRANCH   1  13
TORSDOF 2
ENDMDL
