MODEL 1
REMARK VINA RESULT: -3.838328379      0.000      0.000
REMARK  2 active torsions:
REMARK  status: ('A' for Active; 'I' for Inactive)
REMARK    1  A    between atoms: C6_6  and  C7_7 
REMARK    2  A    between atoms: C7_7  and  N1_9 
ROOT
HETATM    1  C1  UNL     1       1.523  -5.823 -22.805  1.00  0.00     0.040 C 
HETATM    2  C2  UNL     1       0.085  -6.246 -23.028  1.00  0.00     0.182 C 
HETATM    3  C3  UNL     1      -0.231  -6.544 -24.453  1.00  0.00     0.032 C 
HETATM    4  C4  UNL     1      -1.186  -7.664 -24.666  1.00  0.00     0.004 C 
HETATM    5  C5  UNL     1      -2.130  -7.906 -23.530  1.00  0.00     0.035 C 
HETATM    6  C6  UNL     1      -1.523  -7.814 -22.181  1.00  0.00     0.216 C 
HETATM    7  N2  UNL     1      -0.128  -7.422 -22.207  1.00  0.00    -0.065 N 
ATOM      8  H21 UNL     1       0.238  -7.289 -21.264  1.00  0.00     0.278 HD
ATOM      9  H22 UNL     1       0.470  -8.194 -22.502  1.00  0.00     0.278 HD
ENDROOT
BRANCH   6  10
HETATM   10  C7  UNL     1      -1.597  -9.097 -21.381  1.00  0.00     0.209 C 
HETATM   11  C8  UNL     1      -1.330  -8.866 -19.915  1.00  0.00     0.042 C 
BRANCH  10  12
HETATM   12  N1  UNL     1      -0.596 -10.012 -21.876  1.00  0.00    -0.073 N 
ATOM     13  H13 UNL     1       0.261  -9.537 -22.158  1.00  0.00     0.274 HD
ATOM     14  H12 UNL     1      -0.199 -10.592 -21.136  1.00  0.00     0.274 HD
ATOM     15  H11 UNL     1      -1.001 -10.566 -22.630  1.00  0.00     0.274 HD
ENDBRANCH  10  12
ENDBRANCH   6  10
TORSDOF 2
ENDMDL
MODEL 2
REMARK VINA RESULT: -3.829639326      3.830      5.642
REMARK  2 active torsions:
REMARK  status: ('A' for Active; 'I' for Inactive)
REMARK    1  A    between atoms: C6_6  and  C7_7 
REMARK    2  A    between atoms: C7_7  and  N1_9 
ROOT
HETATM    1  C1  UNL     1       1.029  -1.925 -20.250  1.00  0.00     0.040 C 
HETATM    2  C2  UNL     1       1.453  -2.009 -21.701  1.00  0.00     0.182 C 
HETATM    3  C3  UNL     1       2.917  -1.820 -21.903  1.00  0.00     0.032 C 
HETATM    4  C4  UNL     1       3.517  -2.647 -22.984  1.00  0.00     0.004 C 
HETATM    5  C5  UNL     1       2.566  -3.042 -24.070  1.00  0.00     0.035 C 
HETATM    6  C6  UNL     1       1.220  -3.453 -23.604  1.00  0.00     0.216 C 
HETATM    7  N2  UNL     1       1.044  -3.318 -22.172  1.00  0.00    -0.065 N 
ATOM      8  H21 UNL     1       0.086  -3.532 -21.894  1.00  0.00     0.278 HD
ATOM      9  H22 UNL     1       1.526  -4.062 -21.667  1.00  0.00     0.278 HD
ENDROOT
BRANCH   6  10
HETATM   10  C7  UNL     1       0.856  -4.881 -23.952  1.00  0.00     0.209 C 
HETATM   11  C8  UNL     1       1.275  -5.851 -22.876  1.00  0.00     0.042 C 
BRANCH  10  12
HETATM   12  N1  UNL     1       1.536  -5.251 -25.171  1.00  0.00    -0.073 N 
ATOM     13  H13 UNL     1       2.551  -5.255 -25.065  1.00  0.00     0.274 HD
ATOM     14  H12 UNL     1       1.414  -6.237 -25.401  1.00  0.00     0.274 HD
ATOM     15  H11 UNL     1       1.226  -4.634 -25.922  1.00  0.00     0.274 HD
ENDBRANCH  10  12
ENDBRANCH   6  10
TORSDOF 2
ENDMDL
MODEL 3
REMARK VINA RESULT: -3.566723481      4.559      6.210
REMARK  2 active torsions:
REMARK  status: ('A' for Active; 'I' for Inactive)
REMARK    1  A    between atoms: C6_6  and  C7_7 
REMARK    2  A    between atoms: C7_7  and  N1_9 
ROOT
HETATM    1  C1  UNL     1       0.594  -2.459 -21.420  1.00  0.00     0.040 C 
HETATM    2  C2  UNL     1       1.517  -2.268 -22.606  1.00  0.00     0.182 C 
HETATM    3  C3  UNL     1       2.961  -2.283 -22.242  1.00  0.00     0.032 C 
HETATM    4  C4  UNL     1       3.857  -2.919 -23.243  1.00  0.00     0.004 C 
HETATM    5  C5  UNL     1       3.349  -2.883 -24.651  1.00  0.00     0.035 C 
HETATM    6  C6  UNL     1       1.900  -3.163 -24.800  1.00  0.00     0.216 C 
HETATM    7  N2  UNL     1       1.219  -3.342 -23.533  1.00  0.00    -0.065 N 
ATOM      8  H21 UNL     1       0.214  -3.452 -23.665  1.00  0.00     0.278 HD
ATOM      9  H22 UNL     1       1.427  -4.253 -23.125  1.00  0.00     0.278 HD
ENDROOT
BRANCH   6  10
HETATM   10  C7  UNL     1       1.591  -4.386 -25.635  1.00  0.00     0.209 C 
HETATM   11  C8  UNL     1       1.385  -5.615 -24.785  1.00  0.00     0.042 C 
BRANCH  10  12
HETATM   12  N1  UNL     1       2.704  -4.641 -26.519  1.00  0.00    -0.073 N 
ATOM     13  H13 UNL     1       2.800  -3.927 -27.240  1.00  0.00     0.274 HD
ATOM     14  H12 UNL     1       3.605  -4.501 -26.060  1.00  0.00     0.274 HD
ATOM     15  H11 UNL     1       2.607  -5.578 -26.909  1.00  0.00     0.274 HD
ENDBRANCH  10  12
ENDBRANCH   6  10
TORSDOF 2
ENDMDL
MODEL 4
REMARK VINA RESULT: -3.538299958      7.626      8.442
REMARK  2 active torsions:
REMARK  status: ('A' for Active; 'I' for Inactive)
REMARK    1  A    between atoms: C6_6  and  C7_7 
REMARK    2  A    between atoms: C7_7  and  N1_9 
ROOT
HETATM    1  C1  UNL     1       5.870  -8.782 -29.354  1.00  0.00     0.040 C 
HETATM    2  C2  UNL     1       4.451  -8.409 -28.978  1.00  0.00     0.182 C 
HETATM    3  C3  UNL     1       4.232  -6.939 -28.872  1.00  0.00     0.032 C 
HETATM    4  C4  UNL     1       2.900  -6.466 -29.334  1.00  0.00     0.004 C 
HETATM    5  C5  UNL     1       1.807  -7.484 -29.242  1.00  0.00     0.035 C 
HETATM    6  C6  UNL     1       2.192  -8.854 -29.657  1.00  0.00     0.216 C 
HETATM    7  N2  UNL     1       3.594  -8.975 -30.002  1.00  0.00    -0.065 N 
ATOM      8  H21 UNL     1       3.845  -9.942 -30.204  1.00  0.00     0.278 HD
ATOM      9  H22 UNL     1       3.788  -8.566 -30.916  1.00  0.00     0.278 HD
ENDROOT
BRANCH   6  10
HETATM   10  C7  UNL     1       1.408  -9.386 -30.837  1.00  0.00     0.209 C 
HETATM   11  C8  UNL     1       0.395  -8.388 -31.339  1.00  0.00     0.042 C 
BRANCH  10  12
HETATM   12  N1  UNL     1       0.695 -10.572 -30.426  1.00  0.00    -0.073 N 
ATOM     13  H13 UNL     1       0.026 -10.386 -29.680  1.00  0.00     0.274 HD
ATOM     14  H12 UNL     1       0.033 -10.893 -31.133  1.00  0.00     0.274 HD
ATOM     15  H11 UNL     1       1.372 -11.292 -30.172  1.00  0.00     0.274 HD
ENDBRANCH  10  12
ENDBRANCH   6  10
TORSDOF 2
ENDMDL
MODEL 5
REMARK VINA RESULT: -3.536504263      5.008      6.331
REMARK  2 active torsions:
REMARK  status: ('A' for Active; 'I' for Inactive)
REMARK    1  A    between atoms: C6_6  and  C7_7 
REMARK    2  A    between atoms: C7_7  and  N1_9 
ROOT
HETATM    1  C1  UNL     1       2.961  -1.217 -21.219  1.00  0.00     0.040 C 
HETATM    2  C2  UNL     1       2.347  -2.487 -21.771  1.00  0.00     0.182 C 
HETATM    3  C3  UNL     1       0.919  -2.671 -21.386  1.00  0.00     0.032 C 
HETATM    4  C4  UNL     1       0.061  -3.294 -22.428  1.00  0.00     0.004 C 
HETATM    5  C5  UNL     1       0.789  -4.178 -23.393  1.00  0.00     0.035 C 
HETATM    6  C6  UNL     1       2.099  -3.657 -23.852  1.00  0.00     0.216 C 
HETATM    7  N2  UNL     1       2.475  -2.412 -23.213  1.00  0.00    -0.065 N 
ATOM      8  H21 UNL     1       3.414  -2.122 -23.489  1.00  0.00     0.278 HD
ATOM      9  H22 UNL     1       1.948  -1.625 -23.592  1.00  0.00     0.278 HD
ENDROOT
BRANCH   6  10
HETATM   10  C7  UNL     1       2.180  -3.420 -25.345  1.00  0.00     0.209 C 
HETATM   11  C8  UNL     1       2.226  -4.712 -26.122  1.00  0.00     0.042 C 
BRANCH  10  12
HETATM   12  N1  UNL     1       3.389  -2.685 -25.634  1.00  0.00    -0.073 N 
ATOM     13  H13 UNL     1       3.432  -1.794 -25.140  1.00  0.00     0.274 HD
ATOM     14  H12 UNL     1       4.215  -3.117 -25.220  1.00  0.00     0.274 HD
ATOM     15  H11 UNL     1       3.473  -2.574 -26.645  1.00  0.00     0.274 HD
ENDBRANCH  10  12
ENDBRANCH   6  10
TORSDOF 2
ENDMDL
