MODEL 1
REMARK VINA RESULT: -2.981510006      0.000      0.000
REMARK  2 active torsions:
REMARK  status: ('A' for Active; 'I' for Inactive)
REMARK    1  A    between atoms: C2_2  and  C3_3 
REMARK    2  A    between atoms: C6_7  and  N1_8 
ROOT
HETATM    1  C1  UNL     1       2.919  -1.259 -21.190  1.00  0.00     0.018 C 
HETATM    2  C2  UNL     1       1.963  -1.820 -22.217  1.00  0.00    -0.007 C 
HETATM    3  C4  UNL     1       1.330  -3.146 -21.831  1.00  0.00     0.014 C 
HETATM    4  C5  UNL     1       2.400  -3.841 -22.636  1.00  0.00     0.034 C 
HETATM    5  C6  UNL     1       2.713  -2.520 -23.303  1.00  0.00     0.192 C 
ENDROOT
BRANCH   5   6
HETATM    6  N1  UNL     1       2.182  -2.416 -24.625  1.00  0.00    -0.074 N 
ATOM      7  H13 UNL     1       1.820  -3.322 -24.920  1.00  0.00     0.274 HD
ATOM      8  H12 UNL     1       1.323  -1.867 -24.605  1.00  0.00     0.274 HD
ATOM      9  H11 UNL     1       2.804  -2.047 -25.345  1.00  0.00     0.274 HD
ENDBRANCH   5   6
BRANCH   2  10
HETATM   10  C3  UNL     1       0.889  -0.861 -22.653  1.00  0.00     0.097 C 
HETATM   11  S1  UNL     1       0.337   0.250 -21.373  1.00  0.00    -0.097 SA
ENDBRANCH   2  10
TORSDOF 2
ENDMDL
MODEL 2
REMARK VINA RESULT: -2.980203189     11.706     12.431
REMARK  2 active torsions:
REMARK  status: ('A' for Active; 'I' for Inactive)
REMARK    1  A    between atoms: C2_2  and  C3_3 
REMARK    2  A    between atoms: C6_7  and  N1_8 
ROOT
HETATM    1  C1  UNL     1       7.301  -9.273 -28.892  1.00  0.00     0.018 C 
HETATM    2  C2  UNL     1       8.544  -8.977 -29.698  1.00  0.00    -0.007 C 
HETATM    3  C4  UNL     1       9.828  -9.532 -29.105  1.00  0.00     0.014 C 
HETATM    4  C5  UNL     1      10.069  -8.181 -28.477  1.00  0.00     0.034 C 
HETATM    5  C6  UNL     1       9.036  -7.595 -29.414  1.00  0.00     0.192 C 
ENDROOT
BRANCH   5   6
HETATM    6  N1  UNL     1       9.608  -6.876 -30.507  1.00  0.00    -0.074 N 
ATOM      7  H13 UNL     1      10.006  -6.000 -30.168  1.00  0.00     0.274 HD
ATOM      8  H12 UNL     1      10.450  -7.354 -30.826  1.00  0.00     0.274 HD
ATOM      9  H11 UNL     1       9.001  -6.687 -31.304  1.00  0.00     0.274 HD
ENDBRANCH   5   6
BRANCH   2  10
HETATM   10  C3  UNL     1       8.451  -9.372 -31.148  1.00  0.00     0.097 C 
HETATM   11  S1  UNL     1       6.826  -9.894 -31.661  1.00  0.00    -0.097 SA
ENDBRANCH   2  10
TORSDOF 2
ENDMDL
MODEL 3
REMARK VINA RESULT: -2.937924313      1.263      1.559
REMARK  2 active torsions:
REMARK  status: ('A' for Active; 'I' for Inactive)
REMARK    1  A    between atoms: C2_2  and  C3_3 
REMARK    2  A    between atoms: C6_7  and  N1_8 
ROOT
HETATM    1  C1  UNL     1       2.943  -1.164 -21.164  1.00  0.00     0.018 C 
HETATM    2  C2  UNL     1       2.169  -2.242 -21.888  1.00  0.00    -0.007 C 
HETATM    3  C4  UNL     1       2.983  -3.477 -22.237  1.00  0.00     0.014 C 
HETATM    4  C5  UNL     1       3.202  -2.890 -23.610  1.00  0.00     0.034 C 
HETATM    5  C6  UNL     1       2.068  -1.925 -23.345  1.00  0.00     0.192 C 
ENDROOT
BRANCH   5   6
HETATM    6  N1  UNL     1       0.852  -2.287 -24.002  1.00  0.00    -0.074 N 
ATOM      7  H13 UNL     1       0.730  -1.711 -24.835  1.00  0.00     0.274 HD
ATOM      8  H12 UNL     1       0.955  -3.209 -24.424  1.00  0.00     0.274 HD
ATOM      9  H11 UNL     1       0.000  -2.261 -23.442  1.00  0.00     0.274 HD
ENDBRANCH   5   6
BRANCH   2  10
HETATM   10  C3  UNL     1       0.897  -2.659 -21.202  1.00  0.00     0.097 C 
HETATM   11  S1  UNL     1       0.358  -1.543 -19.920  1.00  0.00    -0.097 SA
ENDBRANCH   2  10
TORSDOF 2
ENDMDL
MODEL 4
REMARK VINA RESULT: -2.917942543      1.775      2.579
REMARK  2 active torsions:
REMARK  status: ('A' for Active; 'I' for Inactive)
REMARK    1  A    between atoms: C2_2  and  C3_3 
REMARK    2  A    between atoms: C6_7  and  N1_8 
ROOT
HETATM    1  C1  UNL     1       1.480  -4.252 -22.696  1.00  0.00     0.018 C 
HETATM    2  C2  UNL     1       2.083  -3.047 -23.379  1.00  0.00    -0.007 C 
HETATM    3  C4  UNL     1       1.083  -1.962 -23.743  1.00  0.00     0.014 C 
HETATM    4  C5  UNL     1       1.014  -2.552 -25.129  1.00  0.00     0.034 C 
HETATM    5  C6  UNL     1       2.286  -3.316 -24.835  1.00  0.00     0.192 C 
ENDROOT
BRANCH   5   6
HETATM    6  N1  UNL     1       3.444  -2.741 -25.443  1.00  0.00    -0.074 N 
ATOM      7  H13 UNL     1       3.169  -1.940 -26.010  1.00  0.00     0.274 HD
ATOM      8  H12 UNL     1       4.010  -2.282 -24.730  1.00  0.00     0.274 HD
ATOM      9  H11 UNL     1       4.032  -3.364 -25.996  1.00  0.00     0.274 HD
ENDBRANCH   5   6
BRANCH   2  10
HETATM   10  C3  UNL     1       3.242  -2.432 -22.642  1.00  0.00     0.097 C 
HETATM   11  S1  UNL     1       2.769  -1.386 -21.278  1.00  0.00    -0.097 SA
ENDBRANCH   2  10
TORSDOF 2
ENDMDL
MODEL 5
REMARK VINA RESULT: -2.908691811      2.721      3.484
REMARK  2 active torsions:
REMARK  status: ('A' for Active; 'I' for Inactive)
REMARK    1  A    between atoms: C2_2  and  C3_3 
REMARK    2  A    between atoms: C6_7  and  N1_8 
ROOT
HETATM    1  C1  UNL     1       1.798  -4.685 -22.784  1.00  0.00     0.018 C 
HETATM    2  C2  UNL     1       2.150  -3.409 -23.513  1.00  0.00    -0.007 C 
HETATM    3  C4  UNL     1       3.434  -2.747 -23.042  1.00  0.00     0.014 C 
HETATM    4  C5  UNL     1       2.598  -1.858 -22.155  1.00  0.00     0.034 C 
HETATM    5  C6  UNL     1       1.378  -2.257 -22.956  1.00  0.00     0.192 C 
ENDROOT
BRANCH   5   6
HETATM    6  N1  UNL     1       0.957  -1.254 -23.881  1.00  0.00    -0.074 N 
ATOM      7  H13 UNL     1       1.772  -0.848 -24.339  1.00  0.00     0.274 HD
ATOM      8  H12 UNL     1       0.495  -1.696 -24.676  1.00  0.00     0.274 HD
ATOM      9  H11 UNL     1       0.365  -0.507 -23.516  1.00  0.00     0.274 HD
ENDBRANCH   5   6
BRANCH   2  10
HETATM   10  C3  UNL     1       2.174  -3.538 -25.012  1.00  0.00     0.097 C 
HETATM   11  S1  UNL     1       1.441  -5.042 -25.628  1.00  0.00    -0.097 SA
ENDBRANCH   2  10
TORSDOF 2
ENDMDL
