MODEL 1
REMARK VINA RESULT: -7.435354964      0.000      0.000
REMARK  13 active torsions:
REMARK  status: ('A' for Active; 'I' for Inactive)
REMARK    1  A    between atoms: C2_2  and  C3_3 
REMARK    2  A    between atoms: C3_3  and  C4_4 
REMARK    3  A    between atoms: C4_4  and  S1_5 
REMARK    4  A    between atoms: S1_5  and  N1_8 
REMARK       I    between atoms: N1_8  and  C5_10 
REMARK    5  A    between atoms: C5_10  and  C6_12 
REMARK    6  A    between atoms: C8_14  and  C9_15 
REMARK    7  A    between atoms: C8_14  and  C11_17 
REMARK    8  A    between atoms: C11_17  and  S2_18 
REMARK    9  A    between atoms: S2_18  and  C12_19 
REMARK   10  A    between atoms: C16_29  and  C17_30 
REMARK   11  A    between atoms: C16_29  and  N5_39 
REMARK   12  A    between atoms: C17_30  and  S4_31 
REMARK   13  A    between atoms: S4_31  and  N4_34 
ROOT
HETATM    1  C6  UNL     1      19.845  26.464   8.498  1.00  0.00     0.119 C 
HETATM    2  C7  UNL     1      19.738  26.298  10.019  1.00  0.00     0.027 C 
HETATM    3  C8  UNL     1      18.738  27.251  10.569  1.00  0.00    -0.031 C 
HETATM    4  C14 UNL     1      17.439  27.085   9.861  1.00  0.00     0.013 C 
HETATM    5  C15 UNL     1      17.395  26.005   8.852  1.00  0.00     0.044 C 
HETATM    6  C16 UNL     1      18.566  25.912   7.885  1.00  0.00     0.185 C 
ENDROOT
BRANCH   6   7
HETATM    7  C17 UNL     1      18.780  24.449   7.636  1.00  0.00     0.200 C 
BRANCH   7   8
HETATM    8  S4  UNL     1      17.409  23.400   7.583  1.00  0.00     0.214 S 
HETATM    9  O5  UNL     1      16.186  23.992   6.993  1.00  0.00    -0.211 OA
HETATM   10  O6  UNL     1      17.022  22.783   8.887  1.00  0.00    -0.211 OA
BRANCH   8  11
HETATM   11  N4  UNL     1      17.839  22.046   6.547  1.00  0.00    -0.211 NA
HETATM   12  C18 UNL     1      16.684  21.503   5.911  1.00  0.00     0.107 C 
HETATM   13  C19 UNL     1      16.990  21.281   4.469  1.00  0.00     0.017 C 
HETATM   14  C20 UNL     1      18.353  21.839   4.258  1.00  0.00     0.017 C 
HETATM   15  C21 UNL     1      18.794  22.433   5.557  1.00  0.00     0.107 C 
ENDBRANCH   8  11
ENDBRANCH   7   8
ENDBRANCH   6   7
BRANCH   6  16
HETATM   16  N5  UNL     1      18.173  26.578   6.674  1.00  0.00     0.100 N 
HETATM   17  C22 UNL     1      18.593  26.056   5.442  1.00  0.00     0.273 C 
HETATM   18  C23 UNL     1      17.746  26.567   4.290  1.00  0.00     0.030 C 
HETATM   19  C24 UNL     1      17.244  27.964   4.492  1.00  0.00     0.003 C 
HETATM   20  C25 UNL     1      18.279  28.666   5.343  1.00  0.00     0.030 C 
HETATM   21  C26 UNL     1      18.329  27.998   6.722  1.00  0.00     0.273 C 
ENDBRANCH   6  16
BRANCH   1  22
HETATM   22  C5  UNL     1      21.071  25.684   8.190  1.00  0.00     0.237 C 
HETATM   23  N1  UNL     1      21.925  26.029   7.131  1.00  0.00    -0.254 N 
ATOM     24  H1  UNL     1      21.702  26.843   6.560  1.00  0.00     0.181 HD
HETATM   25  O3  UNL     1      21.405  24.673   8.864  1.00  0.00    -0.272 OA
BRANCH  23  26
HETATM   26  S1  UNL     1      23.359  25.100   6.767  1.00  0.00     0.233 S 
HETATM   27  O1  UNL     1      23.904  25.604   5.479  1.00  0.00    -0.206 OA
HETATM   28  O2  UNL     1      23.009  23.639   6.697  1.00  0.00    -0.206 OA
BRANCH  26  29
HETATM   29  C4  UNL     1      24.467  25.365   8.124  1.00  0.00     0.163 C 
BRANCH  29  30
HETATM   30  C3  UNL     1      24.316  26.687   8.790  1.00  0.00     0.016 C 
BRANCH  30  31
HETATM   31  C2  UNL     1      24.808  26.768  10.198  1.00  0.00    -0.004 C 
HETATM   32  C1  UNL     1      23.620  26.368  11.087  1.00  0.00     0.005 C 
ENDBRANCH  30  31
ENDBRANCH  29  30
ENDBRANCH  26  29
ENDBRANCH  23  26
ENDBRANCH   1  22
BRANCH   3  33
HETATM   33  C9  UNL     1      19.297  28.647  10.539  1.00  0.00     0.006 C 
HETATM   34  C10 UNL     1      20.649  28.806  11.175  1.00  0.00     0.006 C 
ENDBRANCH   3  33
BRANCH   3  35
HETATM   35  C11 UNL     1      18.625  26.855  12.052  1.00  0.00     0.092 C 
BRANCH  35  36
HETATM   36  S2  UNL     1      17.442  27.780  12.980  1.00  0.00    -0.092 SA
BRANCH  36  37
HETATM   37  C12 UNL     1      18.315  28.970  14.049  1.00  0.00     0.153 A 
HETATM   38  N2  UNL     1      19.299  28.508  14.828  1.00  0.00    -0.302 N 
HETATM   39  S3  UNL     1      19.833  29.879  15.633  1.00  0.00     0.050 SA
ATOM     40  H2  UNL     1      19.641  27.551  14.913  1.00  0.00     0.176 HD
HETATM   41  C13 UNL     1      18.765  31.006  14.933  1.00  0.00     0.306 A 
HETATM   42  O4  UNL     1      18.649  32.269  15.125  1.00  0.00    -0.258 OA
HETATM   43  N3  UNL     1      18.045  30.247  14.105  1.00  0.00    -0.296 N 
ATOM     44  H3  UNL     1      17.305  30.652  13.533  1.00  0.00     0.171 HD
ENDBRANCH  36  37
ENDBRANCH  35  36
ENDBRANCH   3  35
TORSDOF 13
ENDMDL
MODEL 2
REMARK VINA RESULT: -7.401143389      3.259      4.507
REMARK  13 active torsions:
REMARK  status: ('A' for Active; 'I' for Inactive)
REMARK    1  A    between atoms: C2_2  and  C3_3 
REMARK    2  A    between atoms: C3_3  and  C4_4 
REMARK    3  A    between atoms: C4_4  and  S1_5 
REMARK    4  A    between atoms: S1_5  and  N1_8 
REMARK       I    between atoms: N1_8  and  C5_10 
REMARK    5  A    between atoms: C5_10  and  C6_12 
REMARK    6  A    between atoms: C8_14  and  C9_15 
REMARK    7  A    between atoms: C8_14  and  C11_17 
REMARK    8  A    between atoms: C11_17  and  S2_18 
REMARK    9  A    between atoms: S2_18  and  C12_19 
REMARK   10  A    between atoms: C16_29  and  C17_30 
REMARK   11  A    between atoms: C16_29  and  N5_39 
REMARK   12  A    between atoms: C17_30  and  S4_31 
REMARK   13  A    between atoms: S4_31  and  N4_34 
ROOT
HETATM    1  C6  UNL     1      20.289  28.524  11.557  1.00  0.00     0.119 C 
HETATM    2  C7  UNL     1      20.106  29.130  12.954  1.00  0.00     0.027 C 
HETATM    3  C8  UNL     1      18.856  29.932  13.003  1.00  0.00    -0.031 C 
HETATM    4  C14 UNL     1      17.703  29.098  12.562  1.00  0.00     0.013 C 
HETATM    5  C15 UNL     1      18.017  27.688  12.248  1.00  0.00     0.044 C 
HETATM    6  C16 UNL     1      19.248  27.426  11.391  1.00  0.00     0.185 C 
ENDROOT
BRANCH   6   7
HETATM    7  C17 UNL     1      19.847  26.154  11.909  1.00  0.00     0.200 C 
BRANCH   7   8
HETATM    8  S4  UNL     1      20.550  25.043  10.787  1.00  0.00     0.214 S 
HETATM    9  O5  UNL     1      21.855  24.474  11.199  1.00  0.00    -0.211 OA
HETATM   10  O6  UNL     1      20.704  25.551   9.391  1.00  0.00    -0.211 OA
BRANCH   8  11
HETATM   11  N4  UNL     1      19.447  23.680  10.659  1.00  0.00    -0.211 NA
HETATM   12  C18 UNL     1      18.549  23.643  11.767  1.00  0.00     0.107 C 
HETATM   13  C19 UNL     1      17.171  23.392  11.258  1.00  0.00     0.017 C 
HETATM   14  C20 UNL     1      17.282  23.406   9.775  1.00  0.00     0.017 C 
HETATM   15  C21 UNL     1      18.703  23.727   9.440  1.00  0.00     0.107 C 
ENDBRANCH   8  11
ENDBRANCH   7   8
ENDBRANCH   6   7
BRANCH   6  16
HETATM   16  N5  UNL     1      18.797  27.259  10.038  1.00  0.00     0.100 N 
HETATM   17  C22 UNL     1      19.035  28.281   9.109  1.00  0.00     0.273 C 
HETATM   18  C23 UNL     1      18.930  27.785   7.678  1.00  0.00     0.030 C 
HETATM   19  C24 UNL     1      17.919  26.694   7.497  1.00  0.00     0.003 C 
HETATM   20  C25 UNL     1      16.850  26.933   8.540  1.00  0.00     0.030 C 
HETATM   21  C26 UNL     1      17.463  26.756   9.934  1.00  0.00     0.273 C 
ENDBRANCH   6  16
BRANCH   1  22
HETATM   22  C5  UNL     1      21.695  28.045  11.612  1.00  0.00     0.237 C 
HETATM   23  N1  UNL     1      22.401  27.677  10.456  1.00  0.00    -0.254 N 
ATOM     24  H1  UNL     1      21.939  27.747   9.550  1.00  0.00     0.181 HD
HETATM   25  O3  UNL     1      22.323  27.945  12.700  1.00  0.00    -0.272 OA
BRANCH  23  26
HETATM   26  S1  UNL     1      24.050  27.104  10.529  1.00  0.00     0.233 S 
HETATM   27  O1  UNL     1      24.086  25.966  11.485  1.00  0.00    -0.206 OA
HETATM   28  O2  UNL     1      24.955  28.226  10.954  1.00  0.00    -0.206 OA
BRANCH  26  29
HETATM   29  C4  UNL     1      24.468  26.617   8.877  1.00  0.00     0.163 C 
BRANCH  29  30
HETATM   30  C3  UNL     1      24.095  25.217   8.537  1.00  0.00     0.016 C 
BRANCH  30  31
HETATM   31  C2  UNL     1      23.570  24.999   7.157  1.00  0.00    -0.004 C 
HETATM   32  C1  UNL     1      22.731  23.713   7.218  1.00  0.00     0.005 C 
ENDBRANCH  30  31
ENDBRANCH  29  30
ENDBRANCH  26  29
ENDBRANCH  23  26
ENDBRANCH   1  22
BRANCH   3  33
HETATM   33  C9  UNL     1      19.041  31.209  12.232  1.00  0.00     0.006 C 
HETATM   34  C10 UNL     1      19.289  32.430  13.071  1.00  0.00     0.006 C 
ENDBRANCH   3  33
BRANCH   3  35
HETATM   35  C11 UNL     1      18.728  30.327  14.485  1.00  0.00     0.092 C 
BRANCH  35  36
HETATM   36  S2  UNL     1      20.053  29.781  15.517  1.00  0.00    -0.092 SA
BRANCH  36  37
HETATM   37  C12 UNL     1      21.221  31.157  15.773  1.00  0.00     0.153 A 
HETATM   38  N2  UNL     1      21.065  31.916  16.862  1.00  0.00    -0.302 N 
HETATM   39  S3  UNL     1      22.305  33.039  16.733  1.00  0.00     0.050 SA
ATOM     40  H2  UNL     1      20.361  31.833  17.595  1.00  0.00     0.176 HD
HETATM   41  C13 UNL     1      22.984  32.487  15.272  1.00  0.00     0.306 A 
HETATM   42  O4  UNL     1      23.989  32.926  14.606  1.00  0.00    -0.258 OA
HETATM   43  N3  UNL     1      22.203  31.451  14.962  1.00  0.00    -0.296 N 
ATOM     44  H3  UNL     1      22.366  30.905  14.117  1.00  0.00     0.171 HD
ENDBRANCH  36  37
ENDBRANCH  35  36
ENDBRANCH   3  35
TORSDOF 13
ENDMDL
MODEL 3
REMARK VINA RESULT: -7.388232390      1.288      1.439
REMARK  13 active torsions:
REMARK  status: ('A' for Active; 'I' for Inactive)
REMARK    1  A    between atoms: C2_2  and  C3_3 
REMARK    2  A    between atoms: C3_3  and  C4_4 
REMARK    3  A    between atoms: C4_4  and  S1_5 
REMARK    4  A    between atoms: S1_5  and  N1_8 
REMARK       I    between atoms: N1_8  and  C5_10 
REMARK    5  A    between atoms: C5_10  and  C6_12 
REMARK    6  A    between atoms: C8_14  and  C9_15 
REMARK    7  A    between atoms: C8_14  and  C11_17 
REMARK    8  A    between atoms: C11_17  and  S2_18 
REMARK    9  A    between atoms: S2_18  and  C12_19 
REMARK   10  A    between atoms: C16_29  and  C17_30 
REMARK   11  A    between atoms: C16_29  and  N5_39 
REMARK   12  A    between atoms: C17_30  and  S4_31 
REMARK   13  A    between atoms: S4_31  and  N4_34 
ROOT
HETATM    1  C6  UNL     1      19.472  26.753   8.173  1.00  0.00     0.119 C 
HETATM    2  C7  UNL     1      19.337  26.403   9.660  1.00  0.00     0.027 C 
HETATM    3  C8  UNL     1      18.112  27.029  10.223  1.00  0.00    -0.031 C 
HETATM    4  C14 UNL     1      16.926  26.639   9.411  1.00  0.00     0.013 C 
HETATM    5  C15 UNL     1      17.192  25.694   8.306  1.00  0.00     0.044 C 
HETATM    6  C16 UNL     1      18.395  25.984   7.420  1.00  0.00     0.185 C 
ENDROOT
BRANCH   6   7
HETATM    7  C17 UNL     1      18.967  24.648   7.052  1.00  0.00     0.200 C 
BRANCH   7   8
HETATM    8  S4  UNL     1      17.904  23.296   6.899  1.00  0.00     0.214 S 
HETATM    9  O5  UNL     1      16.716  23.524   6.042  1.00  0.00    -0.211 OA
HETATM   10  O6  UNL     1      17.422  22.709   8.184  1.00  0.00    -0.211 OA
BRANCH   8  11
HETATM   11  N4  UNL     1      18.819  22.010   6.124  1.00  0.00    -0.211 NA
HETATM   12  C18 UNL     1      17.962  21.163   5.360  1.00  0.00     0.107 C 
HETATM   13  C19 UNL     1      18.594  20.914   4.033  1.00  0.00     0.017 C 
HETATM   14  C20 UNL     1      19.816  21.762   4.005  1.00  0.00     0.017 C 
HETATM   15  C21 UNL     1      19.845  22.538   5.282  1.00  0.00     0.107 C 
ENDBRANCH   8  11
ENDBRANCH   7   8
ENDBRANCH   6   7
BRANCH   6  16
HETATM   16  N5  UNL     1      17.911  26.665   6.252  1.00  0.00     0.100 N 
HETATM   17  C22 UNL     1      18.311  26.216   4.986  1.00  0.00     0.273 C 
HETATM   18  C23 UNL     1      17.386  26.711   3.888  1.00  0.00     0.030 C 
HETATM   19  C24 UNL     1      16.805  28.064   4.162  1.00  0.00     0.003 C 
HETATM   20  C25 UNL     1      17.827  28.802   4.998  1.00  0.00     0.030 C 
HETATM   21  C26 UNL     1      17.977  28.090   6.347  1.00  0.00     0.273 C 
ENDBRANCH   6  16
BRANCH   1  22
HETATM   22  C5  UNL     1      20.863  26.320   7.881  1.00  0.00     0.237 C 
HETATM   23  N1  UNL     1      21.742  25.908   8.894  1.00  0.00    -0.254 N 
ATOM     24  H1  UNL     1      21.415  25.898   9.860  1.00  0.00     0.181 HD
HETATM   25  O3  UNL     1      21.323  26.301   6.707  1.00  0.00    -0.272 OA
BRANCH  23  26
HETATM   26  S1  UNL     1      23.380  25.411   8.545  1.00  0.00     0.233 S 
HETATM   27  O1  UNL     1      23.933  26.361   7.545  1.00  0.00    -0.206 OA
HETATM   28  O2  UNL     1      23.380  23.996   8.038  1.00  0.00    -0.206 OA
BRANCH  26  29
HETATM   29  C4  UNL     1      24.246  25.472  10.091  1.00  0.00     0.163 C 
BRANCH  29  30
HETATM   30  C3  UNL     1      25.118  26.666  10.259  1.00  0.00     0.016 C 
BRANCH  30  31
HETATM   31  C2  UNL     1      24.947  27.424  11.533  1.00  0.00    -0.004 C 
HETATM   32  C1  UNL     1      23.433  27.495  11.787  1.00  0.00     0.005 C 
ENDBRANCH  30  31
ENDBRANCH  29  30
ENDBRANCH  26  29
ENDBRANCH  23  26
ENDBRANCH   1  22
BRANCH   3  33
HETATM   33  C9  UNL     1      18.318  28.512  10.363  1.00  0.00     0.006 C 
HETATM   34  C10 UNL     1      17.135  29.359   9.990  1.00  0.00     0.006 C 
ENDBRANCH   3  33
BRANCH   3  35
HETATM   35  C11 UNL     1      18.028  26.460  11.650  1.00  0.00     0.092 C 
BRANCH  35  36
HETATM   36  S2  UNL     1      17.405  27.583  12.863  1.00  0.00    -0.092 SA
BRANCH  36  37
HETATM   37  C12 UNL     1      18.802  28.316  13.776  1.00  0.00     0.153 A 
HETATM   38  N2  UNL     1      20.040  28.054  13.343  1.00  0.00    -0.302 N 
HETATM   39  S3  UNL     1      21.014  28.892  14.422  1.00  0.00     0.050 SA
ATOM     40  H2  UNL     1      20.324  27.482  12.547  1.00  0.00     0.176 HD
HETATM   41  C13 UNL     1      19.785  29.553  15.398  1.00  0.00     0.306 A 
HETATM   42  O4  UNL     1      19.863  30.313  16.428  1.00  0.00    -0.258 OA
HETATM   43  N3  UNL     1      18.675  29.082  14.826  1.00  0.00    -0.296 N 
ATOM     44  H3  UNL     1      17.755  29.313  15.199  1.00  0.00     0.171 HD
ENDBRANCH  36  37
ENDBRANCH  35  36
ENDBRANCH   3  35
TORSDOF 13
ENDMDL
MODEL 4
REMARK VINA RESULT: -7.277440213      2.922      3.970
REMARK  13 active torsions:
REMARK  status: ('A' for Active; 'I' for Inactive)
REMARK    1  A    between atoms: C2_2  and  C3_3 
REMARK    2  A    between atoms: C3_3  and  C4_4 
REMARK    3  A    between atoms: C4_4  and  S1_5 
REMARK    4  A    between atoms: S1_5  and  N1_8 
REMARK       I    between atoms: N1_8  and  C5_10 
REMARK    5  A    between atoms: C5_10  and  C6_12 
REMARK    6  A    between atoms: C8_14  and  C9_15 
REMARK    7  A    between atoms: C8_14  and  C11_17 
REMARK    8  A    between atoms: C11_17  and  S2_18 
REMARK    9  A    between atoms: S2_18  and  C12_19 
REMARK   10  A    between atoms: C16_29  and  C17_30 
REMARK   11  A    between atoms: C16_29  and  N5_39 
REMARK   12  A    between atoms: C17_30  and  S4_31 
REMARK   13  A    between atoms: S4_31  and  N4_34 
ROOT
HETATM    1  C6  UNL     1      20.254  28.380  11.414  1.00  0.00     0.119 C 
HETATM    2  C7  UNL     1      19.974  28.802  12.862  1.00  0.00     0.027 C 
HETATM    3  C8  UNL     1      18.775  29.679  12.915  1.00  0.00    -0.031 C 
HETATM    4  C14 UNL     1      17.622  29.000  12.261  1.00  0.00     0.013 C 
HETATM    5  C15 UNL     1      17.880  27.626  11.779  1.00  0.00     0.044 C 
HETATM    6  C16 UNL     1      19.169  27.393  11.004  1.00  0.00     0.185 C 
ENDROOT
BRANCH   6   7
HETATM    7  C17 UNL     1      19.638  26.022  11.386  1.00  0.00     0.200 C 
BRANCH   7   8
HETATM    8  S4  UNL     1      18.619  24.667  11.055  1.00  0.00     0.214 S 
HETATM    9  O5  UNL     1      17.261  25.006  10.567  1.00  0.00    -0.211 OA
HETATM   10  O6  UNL     1      18.460  23.693  12.176  1.00  0.00    -0.211 OA
BRANCH   8  11
HETATM   11  N4  UNL     1      19.385  23.755   9.762  1.00  0.00    -0.211 NA
HETATM   12  C18 UNL     1      18.616  23.828   8.561  1.00  0.00     0.107 C 
HETATM   13  C19 UNL     1      19.535  24.104   7.421  1.00  0.00     0.017 C 
HETATM   14  C20 UNL     1      20.877  24.315   8.028  1.00  0.00     0.017 C 
HETATM   15  C21 UNL     1      20.710  24.223   9.511  1.00  0.00     0.107 C 
ENDBRANCH   8  11
ENDBRANCH   7   8
ENDBRANCH   6   7
BRANCH   6  16
HETATM   16  N5  UNL     1      18.842  27.444   9.607  1.00  0.00     0.100 N 
HETATM   17  C22 UNL     1      19.857  27.718   8.679  1.00  0.00     0.273 C 
HETATM   18  C23 UNL     1      19.474  27.289   7.274  1.00  0.00     0.030 C 
HETATM   19  C24 UNL     1      18.008  27.417   6.989  1.00  0.00     0.003 C 
HETATM   20  C25 UNL     1      17.512  28.565   7.841  1.00  0.00     0.030 C 
HETATM   21  C26 UNL     1      17.656  28.188   9.320  1.00  0.00     0.273 C 
ENDBRANCH   6  16
BRANCH   1  22
HETATM   22  C5  UNL     1      21.616  27.795  11.524  1.00  0.00     0.237 C 
HETATM   23  N1  UNL     1      22.388  27.494  10.392  1.00  0.00    -0.254 N 
ATOM     24  H1  UNL     1      22.008  27.686   9.466  1.00  0.00     0.181 HD
HETATM   25  O3  UNL     1      22.146  27.543  12.639  1.00  0.00    -0.272 OA
BRANCH  23  26
HETATM   26  S1  UNL     1      23.985  26.797  10.527  1.00  0.00     0.233 S 
HETATM   27  O1  UNL     1      23.839  25.464  11.168  1.00  0.00    -0.206 OA
HETATM   28  O2  UNL     1      24.869  27.714  11.327  1.00  0.00    -0.206 OA
BRANCH  26  29
HETATM   29  C4  UNL     1      24.610  26.689   8.872  1.00  0.00     0.163 C 
BRANCH  29  30
HETATM   30  C3  UNL     1      24.334  25.393   8.196  1.00  0.00     0.016 C 
BRANCH  30  31
HETATM   31  C2  UNL     1      23.968  25.477   6.750  1.00  0.00    -0.004 C 
HETATM   32  C1  UNL     1      24.752  24.358   6.047  1.00  0.00     0.005 C 
ENDBRANCH  30  31
ENDBRANCH  29  30
ENDBRANCH  26  29
ENDBRANCH  23  26
ENDBRANCH   1  22
BRANCH   3  33
HETATM   33  C9  UNL     1      19.110  31.033  12.352  1.00  0.00     0.006 C 
HETATM   34  C10 UNL     1      18.784  32.194  13.247  1.00  0.00     0.006 C 
ENDBRANCH   3  33
BRANCH   3  35
HETATM   35  C11 UNL     1      18.528  29.878  14.421  1.00  0.00     0.092 C 
BRANCH  35  36
HETATM   36  S2  UNL     1      19.867  29.389  15.464  1.00  0.00    -0.092 SA
BRANCH  36  37
HETATM   37  C12 UNL     1      20.967  30.816  15.737  1.00  0.00     0.153 A 
HETATM   38  N2  UNL     1      20.795  31.536  16.852  1.00  0.00    -0.302 N 
HETATM   39  S3  UNL     1      21.972  32.724  16.732  1.00  0.00     0.050 SA
ATOM     40  H2  UNL     1      20.112  31.395  17.596  1.00  0.00     0.176 HD
HETATM   41  C13 UNL     1      22.648  32.251  15.242  1.00  0.00     0.306 A 
HETATM   42  O4  UNL     1      23.614  32.761  14.570  1.00  0.00    -0.258 OA
HETATM   43  N3  UNL     1      21.915  31.185  14.917  1.00  0.00    -0.296 N 
ATOM     44  H3  UNL     1      22.088  30.672  14.053  1.00  0.00     0.171 HD
ENDBRANCH  36  37
ENDBRANCH  35  36
ENDBRANCH   3  35
TORSDOF 13
ENDMDL
MODEL 5
REMARK VINA RESULT: -7.236254827      2.897      4.045
REMARK  13 active torsions:
REMARK  status: ('A' for Active; 'I' for Inactive)
REMARK    1  A    between atoms: C2_2  and  C3_3 
REMARK    2  A    between atoms: C3_3  and  C4_4 
REMARK    3  A    between atoms: C4_4  and  S1_5 
REMARK    4  A    between atoms: S1_5  and  N1_8 
REMARK       I    between atoms: N1_8  and  C5_10 
REMARK    5  A    between atoms: C5_10  and  C6_12 
REMARK    6  A    between atoms: C8_14  and  C9_15 
REMARK    7  A    between atoms: C8_14  and  C11_17 
REMARK    8  A    between atoms: C11_17  and  S2_18 
REMARK    9  A    between atoms: S2_18  and  C12_19 
REMARK   10  A    between atoms: C16_29  and  C17_30 
REMARK   11  A    between atoms: C16_29  and  N5_39 
REMARK   12  A    between atoms: C17_30  and  S4_31 
REMARK   13  A    between atoms: S4_31  and  N4_34 
ROOT
HETATM    1  C6  UNL     1      20.996  28.009  11.525  1.00  0.00     0.119 C 
HETATM    2  C7  UNL     1      21.212  28.249  13.025  1.00  0.00     0.027 C 
HETATM    3  C8  UNL     1      20.211  29.221  13.536  1.00  0.00    -0.031 C 
HETATM    4  C14 UNL     1      18.837  28.755  13.202  1.00  0.00     0.013 C 
HETATM    5  C15 UNL     1      18.754  27.444  12.523  1.00  0.00     0.044 C 
HETATM    6  C16 UNL     1      19.716  27.200  11.369  1.00  0.00     0.185 C 
ENDROOT
BRANCH   6   7
HETATM    7  C17 UNL     1      20.088  25.749  11.442  1.00  0.00     0.200 C 
BRANCH   7   8
HETATM    8  S4  UNL     1      18.883  24.559  11.101  1.00  0.00     0.214 S 
HETATM    9  O5  UNL     1      17.520  25.092  10.869  1.00  0.00    -0.211 OA
HETATM   10  O6  UNL     1      18.767  23.457  12.103  1.00  0.00    -0.211 OA
BRANCH   8  11
HETATM   11  N4  UNL     1      19.355  23.768   9.604  1.00  0.00    -0.211 NA
HETATM   12  C18 UNL     1      18.368  23.961   8.591  1.00  0.00     0.107 C 
HETATM   13  C19 UNL     1      19.051  24.337   7.322  1.00  0.00     0.017 C 
HETATM   14  C20 UNL     1      20.491  24.478   7.668  1.00  0.00     0.017 C 
HETATM   15  C21 UNL     1      20.618  24.246   9.139  1.00  0.00     0.107 C 
ENDBRANCH   8  11
ENDBRANCH   7   8
ENDBRANCH   6   7
BRANCH   6  16
HETATM   16  N5  UNL     1      19.003  27.478  10.153  1.00  0.00     0.100 N 
HETATM   17  C22 UNL     1      19.723  27.863   9.014  1.00  0.00     0.273 C 
HETATM   18  C23 UNL     1      18.919  27.670   7.741  1.00  0.00     0.030 C 
HETATM   19  C24 UNL     1      17.448  27.884   7.926  1.00  0.00     0.003 C 
HETATM   20  C25 UNL     1      17.306  28.899   9.039  1.00  0.00     0.030 C 
HETATM   21  C26 UNL     1      17.844  28.292  10.340  1.00  0.00     0.273 C 
ENDBRANCH   6  16
BRANCH   1  22
HETATM   22  C5  UNL     1      22.239  27.287  11.148  1.00  0.00     0.237 C 
HETATM   23  N1  UNL     1      22.579  27.044   9.809  1.00  0.00    -0.254 N 
ATOM     24  H1  UNL     1      21.960  27.378   9.071  1.00  0.00     0.181 HD
HETATM   25  O3  UNL     1      23.049  26.858  12.012  1.00  0.00    -0.272 OA
BRANCH  23  26
HETATM   26  S1  UNL     1      24.037  26.185   9.372  1.00  0.00     0.233 S 
HETATM   27  O1  UNL     1      23.989  24.856  10.035  1.00  0.00    -0.206 OA
HETATM   28  O2  UNL     1      25.239  26.983   9.795  1.00  0.00    -0.206 OA
BRANCH  26  29
HETATM   29  C4  UNL     1      24.017  26.062   7.604  1.00  0.00     0.163 C 
BRANCH  29  30
HETATM   30  C3  UNL     1      24.212  24.682   7.083  1.00  0.00     0.016 C 
BRANCH  30  31
HETATM   31  C2  UNL     1      24.590  24.576   5.642  1.00  0.00    -0.004 C 
HETATM   32  C1  UNL     1      23.357  25.027   4.843  1.00  0.00     0.005 C 
ENDBRANCH  30  31
ENDBRANCH  29  30
ENDBRANCH  26  29
ENDBRANCH  23  26
ENDBRANCH   1  22
BRANCH   3  33
HETATM   33  C9  UNL     1      20.545  30.602  13.042  1.00  0.00     0.006 C 
HETATM   34  C10 UNL     1      19.437  31.302  12.309  1.00  0.00     0.006 C 
ENDBRANCH   3  33
BRANCH   3  35
HETATM   35  C11 UNL     1      20.447  29.230  15.057  1.00  0.00     0.092 C 
BRANCH  35  36
HETATM   36  S2  UNL     1      19.481  30.406  15.952  1.00  0.00    -0.092 SA
BRANCH  36  37
HETATM   37  C12 UNL     1      20.512  31.857  16.343  1.00  0.00     0.153 A 
HETATM   38  N2  UNL     1      21.528  31.692  17.196  1.00  0.00    -0.302 N 
HETATM   39  S3  UNL     1      22.211  33.222  17.286  1.00  0.00     0.050 SA
ATOM     40  H2  UNL     1      21.818  30.841  17.677  1.00  0.00     0.176 HD
HETATM   41  C13 UNL     1      21.157  34.024  16.216  1.00  0.00     0.306 A 
HETATM   42  O4  UNL     1      21.134  35.250  15.838  1.00  0.00    -0.258 OA
HETATM   43  N3  UNL     1      20.325  33.050  15.844  1.00  0.00    -0.296 N 
ATOM     44  H3  UNL     1      19.565  33.232  15.190  1.00  0.00     0.171 HD
ENDBRANCH  36  37
ENDBRANCH  35  36
ENDBRANCH   3  35
TORSDOF 13
ENDMDL
