MODEL 1
REMARK VINA RESULT: -9.257325743      0.000      0.000
REMARK  13 active torsions:
REMARK  status: ('A' for Active; 'I' for Inactive)
REMARK    1  A    between atoms: C2_2  and  N2_5 
REMARK       I    between atoms: N2_5  and  C4_6 
REMARK    2  A    between atoms: N2_5  and  N9_45 
REMARK    3  A    between atoms: C4_6  and  C5_8 
REMARK    4  A    between atoms: C5_8  and  N3_9 
REMARK    5  A    between atoms: C13_17  and  C14_18 
REMARK    6  A    between atoms: C14_18  and  C15_19 
REMARK    7  A    between atoms: C15_19  and  N4_20 
REMARK    8  A    between atoms: C17_24  and  C18_25 
REMARK    9  A    between atoms: C18_25  and  C19_26 
REMARK   10  A    between atoms: C19_26  and  C20_27 
REMARK   11  A    between atoms: C20_27  and  N6_28 
REMARK       I    between atoms: N6_28  and  C21_30 
REMARK   12  A    between atoms: C21_30  and  C22_32 
REMARK   13  A    between atoms: C24_35  and  C25_36 
REMARK       I    between atoms: C25_36  and  N7_38 
ROOT
HETATM    1  C1  UNL     1      16.888  37.073  16.925  1.00  0.00     0.050 C 
HETATM    2  C2  UNL     1      17.369  36.100  17.993  1.00  0.00     0.208 C 
HETATM    3  C3  UNL     1      16.197  35.423  18.544  1.00  0.00     0.086 C 
HETATM    4  N1  UNL     1      15.279  34.902  18.995  1.00  0.00    -0.195 NA
ENDROOT
BRANCH   2   5
HETATM    5  N2  UNL     1      18.237  35.069  17.397  1.00  0.00    -0.258 N 
HETATM    6  C4  UNL     1      17.766  34.233  16.364  1.00  0.00     0.269 C 
HETATM    7  O1  UNL     1      16.550  34.496  15.996  1.00  0.00    -0.266 OA
BRANCH   6   8
HETATM    8  C5  UNL     1      18.445  33.152  15.677  1.00  0.00     0.135 C 
BRANCH   8   9
HETATM    9  N3  UNL     1      18.597  33.214  14.254  1.00  0.00    -0.288 NA
HETATM   10  C6  UNL     1      17.849  32.060  13.727  1.00  0.00     0.096 C 
HETATM   11  C7  UNL     1      18.370  30.746  14.156  1.00  0.00     0.025 C 
HETATM   12  C8  UNL     1      19.704  30.489  13.475  1.00  0.00    -0.031 C 
HETATM   13  C9  UNL     1      20.659  29.931  14.505  1.00  0.00     0.010 C 
HETATM   14  C13 UNL     1      19.584  29.393  12.399  1.00  0.00     0.018 C 
HETATM   15  C28 UNL     1      20.203  31.781  12.973  1.00  0.00     0.025 C 
HETATM   16  C10 UNL     1      22.012  29.619  13.975  1.00  0.00     0.001 C 
HETATM   17  C11 UNL     1      21.980  28.920  12.645  1.00  0.00     0.001 C 
HETATM   18  C12 UNL     1      20.939  29.467  11.712  1.00  0.00     0.009 C 
HETATM   19  C29 UNL     1      19.979  32.935  13.876  1.00  0.00     0.096 C 
BRANCH  14  20
HETATM   20  C14 UNL     1      18.447  29.628  11.503  1.00  0.00    -0.002 C 
BRANCH  20  21
HETATM   21  C15 UNL     1      17.533  28.561  11.088  1.00  0.00     0.112 C 
BRANCH  21  22
HETATM   22  N4  UNL     1      17.804  27.186  11.263  1.00  0.00    -0.271 N 
HETATM   23  N5  UNL     1      18.054  26.320  12.268  1.00  0.00    -0.304 N 
HETATM   24  C16 UNL     1      18.090  25.290  11.432  1.00  0.00     0.134 A 
ATOM     25  H5  UNL     1      18.171  26.418  13.276  1.00  0.00     0.186 HD
HETATM   26  C17 UNL     1      17.834  26.141  10.386  1.00  0.00     0.050 A 
BRANCH  26  27
HETATM   27  C18 UNL     1      17.619  26.000   8.931  1.00  0.00     0.062 C 
BRANCH  27  28
HETATM   28  C19 UNL     1      18.882  26.131   8.149  1.00  0.00     0.026 C 
BRANCH  28  29
HETATM   29  C20 UNL     1      19.237  27.555   7.870  1.00  0.00     0.123 C 
BRANCH  29  30
HETATM   30  N6  UNL     1      18.193  28.263   7.143  1.00  0.00    -0.356 N 
HETATM   31  C21 UNL     1      18.179  28.205   5.725  1.00  0.00     0.268 C 
HETATM   32  O2  UNL     1      19.082  27.553   5.151  1.00  0.00    -0.266 OA
ATOM     33  H6  UNL     1      17.482  28.792   7.646  1.00  0.00     0.162 HD
BRANCH  31  34
HETATM   34  C22 UNL     1      17.122  28.898   4.934  1.00  0.00     0.108 A 
HETATM   35  C23 UNL     1      16.436  28.222   3.955  1.00  0.00     0.087 A 
HETATM   36  S1  UNL     1      15.345  29.414   3.410  1.00  0.00    -0.076 SA
HETATM   37  C24 UNL     1      15.829  30.703   4.460  1.00  0.00     0.143 A 
HETATM   38  N8  UNL     1      16.793  30.127   5.154  1.00  0.00    -0.341 N 
ATOM     39  H8  UNL     1      17.283  30.659   5.873  1.00  0.00     0.167 HD
BRANCH  37  40
HETATM   40  C25 UNL     1      15.264  32.061   4.528  1.00  0.00     0.276 C 
HETATM   41  O3  UNL     1      14.374  32.257   5.410  1.00  0.00    -0.265 OA
HETATM   42  N7  UNL     1      15.671  33.098   3.678  1.00  0.00    -0.355 N 
HETATM   43  C26 UNL     1      16.675  32.880   2.671  1.00  0.00     0.152 C 
HETATM   44  C27 UNL     1      15.088  34.416   3.809  1.00  0.00     0.152 C 
ENDBRANCH  37  40
ENDBRANCH  31  34
ENDBRANCH  29  30
ENDBRANCH  28  29
ENDBRANCH  27  28
ENDBRANCH  26  27
ENDBRANCH  21  22
ENDBRANCH  20  21
ENDBRANCH  14  20
ENDBRANCH   8   9
ENDBRANCH   6   8
BRANCH   5  45
HETATM   45  N9  UNL     1      19.518  34.974  17.850  1.00  0.00    -0.225 NA
HETATM   46  C30 UNL     1      19.846  35.435  19.132  1.00  0.00     0.114 C 
HETATM   47  C31 UNL     1      20.662  36.660  18.996  1.00  0.00     0.017 C 
HETATM   48  C32 UNL     1      21.037  36.741  17.545  1.00  0.00     0.017 C 
HETATM   49  C33 UNL     1      20.558  35.422  16.987  1.00  0.00     0.114 C 
ENDBRANCH   5  45
ENDBRANCH   2   5
TORSDOF 13
ENDMDL
MODEL 2
REMARK VINA RESULT: -9.211271581      4.222     11.964
REMARK  13 active torsions:
REMARK  status: ('A' for Active; 'I' for Inactive)
REMARK    1  A    between atoms: C2_2  and  N2_5 
REMARK       I    between atoms: N2_5  and  C4_6 
REMARK    2  A    between atoms: N2_5  and  N9_45 
REMARK    3  A    between atoms: C4_6  and  C5_8 
REMARK    4  A    between atoms: C5_8  and  N3_9 
REMARK    5  A    between atoms: C13_17  and  C14_18 
REMARK    6  A    between atoms: C14_18  and  C15_19 
REMARK    7  A    between atoms: C15_19  and  N4_20 
REMARK    8  A    between atoms: C17_24  and  C18_25 
REMARK    9  A    between atoms: C18_25  and  C19_26 
REMARK   10  A    between atoms: C19_26  and  C20_27 
REMARK   11  A    between atoms: C20_27  and  N6_28 
REMARK       I    between atoms: N6_28  and  C21_30 
REMARK   12  A    between atoms: C21_30  and  C22_32 
REMARK   13  A    between atoms: C24_35  and  C25_36 
REMARK       I    between atoms: C25_36  and  N7_38 
ROOT
HETATM    1  C1  UNL     1      17.416  26.535   9.902  1.00  0.00     0.050 C 
HETATM    2  C2  UNL     1      18.851  26.791   9.464  1.00  0.00     0.208 C 
HETATM    3  C3  UNL     1      18.810  27.535   8.207  1.00  0.00     0.086 C 
HETATM    4  N1  UNL     1      18.786  28.102   7.209  1.00  0.00    -0.195 NA
ENDROOT
BRANCH   2   5
HETATM    5  N2  UNL     1      19.550  27.630  10.454  1.00  0.00    -0.258 N 
HETATM    6  C4  UNL     1      19.043  28.895  10.819  1.00  0.00     0.269 C 
HETATM    7  O1  UNL     1      17.923  29.194  10.236  1.00  0.00    -0.266 OA
BRANCH   6   8
HETATM    8  C5  UNL     1      19.591  29.872  11.737  1.00  0.00     0.135 C 
BRANCH   8   9
HETATM    9  N3  UNL     1      18.982  30.044  13.023  1.00  0.00    -0.288 NA
HETATM   10  C6  UNL     1      18.637  31.474  13.107  1.00  0.00     0.096 C 
HETATM   11  C7  UNL     1      19.797  32.387  13.058  1.00  0.00     0.025 C 
HETATM   12  C8  UNL     1      20.587  32.262  14.350  1.00  0.00    -0.031 C 
HETATM   13  C9  UNL     1      22.057  32.208  14.000  1.00  0.00     0.010 C 
HETATM   14  C13 UNL     1      20.427  33.515  15.231  1.00  0.00     0.018 C 
HETATM   15  C28 UNL     1      20.179  31.005  15.002  1.00  0.00     0.025 C 
HETATM   16  C10 UNL     1      22.960  32.096  15.176  1.00  0.00     0.001 C 
HETATM   17  C11 UNL     1      22.575  33.008  16.306  1.00  0.00     0.001 C 
HETATM   18  C12 UNL     1      21.093  33.084  16.529  1.00  0.00     0.009 C 
HETATM   19  C29 UNL     1      19.967  29.861  14.083  1.00  0.00     0.096 C 
BRANCH  14  20
HETATM   20  C14 UNL     1      19.021  33.902  15.380  1.00  0.00    -0.002 C 
BRANCH  20  21
HETATM   21  C15 UNL     1      18.188  33.442  16.494  1.00  0.00     0.112 C 
BRANCH  21  22
HETATM   22  N4  UNL     1      16.886  32.919  16.336  1.00  0.00    -0.271 N 
HETATM   23  N5  UNL     1      16.266  31.921  15.670  1.00  0.00    -0.304 N 
HETATM   24  C16 UNL     1      15.099  32.213  16.228  1.00  0.00     0.134 A 
ATOM     25  H5  UNL     1      16.575  31.217  15.001  1.00  0.00     0.186 HD
HETATM   26  C17 UNL     1      15.695  33.235  16.922  1.00  0.00     0.050 A 
BRANCH  26  27
HETATM   27  C18 UNL     1      15.265  34.230  17.927  1.00  0.00     0.062 C 
BRANCH  27  28
HETATM   28  C19 UNL     1      15.342  35.629  17.420  1.00  0.00     0.026 C 
BRANCH  28  29
HETATM   29  C20 UNL     1      15.768  36.598  18.474  1.00  0.00     0.123 C 
BRANCH  29  30
HETATM   30  N6  UNL     1      17.078  37.176  18.208  1.00  0.00    -0.356 N 
HETATM   31  C21 UNL     1      18.234  36.533  18.721  1.00  0.00     0.268 C 
HETATM   32  O2  UNL     1      18.079  35.491  19.401  1.00  0.00    -0.266 OA
ATOM     33  H6  UNL     1      17.162  38.032  17.661  1.00  0.00     0.162 HD
BRANCH  31  34
HETATM   34  C22 UNL     1      19.599  37.076  18.463  1.00  0.00     0.108 A 
HETATM   35  C23 UNL     1      20.397  36.510  17.500  1.00  0.00     0.087 A 
HETATM   36  S1  UNL     1      21.782  37.503  17.572  1.00  0.00    -0.076 SA
HETATM   37  C24 UNL     1      21.262  38.578  18.825  1.00  0.00     0.143 A 
HETATM   38  N8  UNL     1      20.063  38.099  19.099  1.00  0.00    -0.341 N 
ATOM     39  H8  UNL     1      19.497  38.543  19.823  1.00  0.00     0.167 HD
BRANCH  37  40
HETATM   40  C25 UNL     1      22.001  39.722  19.385  1.00  0.00     0.276 C 
HETATM   41  O3  UNL     1      22.942  39.444  20.189  1.00  0.00    -0.265 OA
HETATM   42  N7  UNL     1      21.702  41.052  19.064  1.00  0.00    -0.355 N 
HETATM   43  C26 UNL     1      20.630  41.374  18.159  1.00  0.00     0.152 C 
HETATM   44  C27 UNL     1      22.479  42.130  19.636  1.00  0.00     0.152 C 
ENDBRANCH  37  40
ENDBRANCH  31  34
ENDBRANCH  29  30
ENDBRANCH  28  29
ENDBRANCH  27  28
ENDBRANCH  26  27
ENDBRANCH  21  22
ENDBRANCH  20  21
ENDBRANCH  14  20
ENDBRANCH   8   9
ENDBRANCH   6   8
BRANCH   5  45
HETATM   45  N9  UNL     1      20.680  27.132  11.029  1.00  0.00    -0.225 NA
HETATM   46  C30 UNL     1      21.936  27.431  10.485  1.00  0.00     0.114 C 
HETATM   47  C31 UNL     1      22.481  26.206   9.862  1.00  0.00     0.017 C 
HETATM   48  C32 UNL     1      21.591  25.087  10.317  1.00  0.00     0.017 C 
HETATM   49  C33 UNL     1      20.701  25.744  11.344  1.00  0.00     0.114 C 
ENDBRANCH   5  45
ENDBRANCH   2   5
TORSDOF 13
ENDMDL
MODEL 3
REMARK VINA RESULT: -9.117422320      1.991      3.172
REMARK  13 active torsions:
REMARK  status: ('A' for Active; 'I' for Inactive)
REMARK    1  A    between atoms: C2_2  and  N2_5 
REMARK       I    between atoms: N2_5  and  C4_6 
REMARK    2  A    between atoms: N2_5  and  N9_45 
REMARK    3  A    between atoms: C4_6  and  C5_8 
REMARK    4  A    between atoms: C5_8  and  N3_9 
REMARK    5  A    between atoms: C13_17  and  C14_18 
REMARK    6  A    between atoms: C14_18  and  C15_19 
REMARK    7  A    between atoms: C15_19  and  N4_20 
REMARK    8  A    between atoms: C17_24  and  C18_25 
REMARK    9  A    between atoms: C18_25  and  C19_26 
REMARK   10  A    between atoms: C19_26  and  C20_27 
REMARK   11  A    between atoms: C20_27  and  N6_28 
REMARK       I    between atoms: N6_28  and  C21_30 
REMARK   12  A    between atoms: C21_30  and  C22_32 
REMARK   13  A    between atoms: C24_35  and  C25_36 
REMARK       I    between atoms: C25_36  and  N7_38 
ROOT
HETATM    1  C1  UNL     1      20.029  35.421  19.685  1.00  0.00     0.050 C 
HETATM    2  C2  UNL     1      19.115  35.799  18.528  1.00  0.00     0.208 C 
HETATM    3  C3  UNL     1      19.600  37.057  17.966  1.00  0.00     0.086 C 
HETATM    4  N1  UNL     1      19.964  38.055  17.531  1.00  0.00    -0.195 NA
ENDROOT
BRANCH   2   5
HETATM    5  N2  UNL     1      19.183  34.781  17.464  1.00  0.00    -0.258 N 
HETATM    6  C4  UNL     1      20.423  34.361  16.942  1.00  0.00     0.269 C 
HETATM    7  O1  UNL     1      21.445  34.922  17.513  1.00  0.00    -0.266 OA
BRANCH   6   8
HETATM    8  C5  UNL     1      20.698  33.408  15.885  1.00  0.00     0.135 C 
BRANCH   8   9
HETATM    9  N3  UNL     1      20.799  32.015  16.207  1.00  0.00    -0.288 NA
HETATM   10  C6  UNL     1      21.601  31.418  15.125  1.00  0.00     0.096 C 
HETATM   11  C7  UNL     1      20.980  31.503  13.787  1.00  0.00     0.025 C 
HETATM   12  C8  UNL     1      19.781  30.572  13.730  1.00  0.00    -0.031 C 
HETATM   13  C9  UNL     1      18.647  31.305  13.052  1.00  0.00     0.010 C 
HETATM   14  C13 UNL     1      20.061  29.348  12.838  1.00  0.00     0.018 C 
HETATM   15  C28 UNL     1      19.409  30.240  15.117  1.00  0.00     0.025 C 
HETATM   16  C10 UNL     1      17.400  30.507  12.915  1.00  0.00     0.001 C 
HETATM   17  C11 UNL     1      17.649  29.096  12.463  1.00  0.00     0.001 C 
HETATM   18  C12 UNL     1      18.850  28.469  13.108  1.00  0.00     0.009 C 
HETATM   19  C29 UNL     1      19.499  31.366  16.078  1.00  0.00     0.096 C 
BRANCH  14  20
HETATM   20  C14 UNL     1      21.343  28.715  13.164  1.00  0.00    -0.002 C 
BRANCH  20  21
HETATM   21  C15 UNL     1      22.369  28.439  12.155  1.00  0.00     0.112 C 
BRANCH  21  22
HETATM   22  N4  UNL     1      22.511  27.195  11.502  1.00  0.00    -0.271 N 
HETATM   23  N5  UNL     1      23.455  26.250  11.311  1.00  0.00    -0.304 N 
HETATM   24  C16 UNL     1      22.607  25.470  10.654  1.00  0.00     0.134 A 
ATOM     25  H5  UNL     1      24.438  26.166  11.571  1.00  0.00     0.186 HD
HETATM   26  C17 UNL     1      21.621  26.408  10.831  1.00  0.00     0.050 A 
BRANCH  26  27
HETATM   27  C18 UNL     1      20.185  26.515  10.498  1.00  0.00     0.062 C 
BRANCH  27  28
HETATM   28  C19 UNL     1      19.907  27.582   9.495  1.00  0.00     0.026 C 
BRANCH  28  29
HETATM   29  C20 UNL     1      19.744  27.040   8.113  1.00  0.00     0.123 C 
BRANCH  29  30
HETATM   30  N6  UNL     1      18.730  27.749   7.347  1.00  0.00    -0.356 N 
HETATM   31  C21 UNL     1      18.693  27.592   5.937  1.00  0.00     0.268 C 
HETATM   32  O2  UNL     1      19.553  26.854   5.401  1.00  0.00    -0.266 OA
ATOM     33  H6  UNL     1      18.055  28.351   7.818  1.00  0.00     0.162 HD
BRANCH  31  34
HETATM   34  C22 UNL     1      17.664  28.284   5.108  1.00  0.00     0.108 A 
HETATM   35  C23 UNL     1      16.957  27.587   4.161  1.00  0.00     0.087 A 
HETATM   36  S1  UNL     1      15.911  28.790   3.554  1.00  0.00    -0.076 SA
HETATM   37  C24 UNL     1      16.439  30.109   4.542  1.00  0.00     0.143 A 
HETATM   38  N8  UNL     1      17.379  29.534   5.267  1.00  0.00    -0.341 N 
ATOM     39  H8  UNL     1      17.887  30.082   5.961  1.00  0.00     0.167 HD
BRANCH  37  40
HETATM   40  C25 UNL     1      15.924  31.489   4.542  1.00  0.00     0.276 C 
HETATM   41  O3  UNL     1      15.116  31.788   5.472  1.00  0.00    -0.265 OA
HETATM   42  N7  UNL     1      16.291  32.438   3.579  1.00  0.00    -0.355 N 
HETATM   43  C26 UNL     1      17.200  32.102   2.516  1.00  0.00     0.152 C 
HETATM   44  C27 UNL     1      15.762  33.783   3.646  1.00  0.00     0.152 C 
ENDBRANCH  37  40
ENDBRANCH  31  34
ENDBRANCH  29  30
ENDBRANCH  28  29
ENDBRANCH  27  28
ENDBRANCH  26  27
ENDBRANCH  21  22
ENDBRANCH  20  21
ENDBRANCH  14  20
ENDBRANCH   8   9
ENDBRANCH   6   8
BRANCH   5  45
HETATM   45  N9  UNL     1      18.014  34.236  17.027  1.00  0.00    -0.225 NA
HETATM   46  C30 UNL     1      17.529  34.545  15.749  1.00  0.00     0.114 C 
HETATM   47  C31 UNL     1      16.333  35.401  15.895  1.00  0.00     0.017 C 
HETATM   48  C32 UNL     1      15.971  35.350  17.351  1.00  0.00     0.017 C 
HETATM   49  C33 UNL     1      16.893  34.290  17.902  1.00  0.00     0.114 C 
ENDBRANCH   5  45
ENDBRANCH   2   5
TORSDOF 13
ENDMDL
MODEL 4
REMARK VINA RESULT: -9.114874113      2.462      3.646
REMARK  13 active torsions:
REMARK  status: ('A' for Active; 'I' for Inactive)
REMARK    1  A    between atoms: C2_2  and  N2_5 
REMARK       I    between atoms: N2_5  and  C4_6 
REMARK    2  A    between atoms: N2_5  and  N9_45 
REMARK    3  A    between atoms: C4_6  and  C5_8 
REMARK    4  A    between atoms: C5_8  and  N3_9 
REMARK    5  A    between atoms: C13_17  and  C14_18 
REMARK    6  A    between atoms: C14_18  and  C15_19 
REMARK    7  A    between atoms: C15_19  and  N4_20 
REMARK    8  A    between atoms: C17_24  and  C18_25 
REMARK    9  A    between atoms: C18_25  and  C19_26 
REMARK   10  A    between atoms: C19_26  and  C20_27 
REMARK   11  A    between atoms: C20_27  and  N6_28 
REMARK       I    between atoms: N6_28  and  C21_30 
REMARK   12  A    between atoms: C21_30  and  C22_32 
REMARK   13  A    between atoms: C24_35  and  C25_36 
REMARK       I    between atoms: C25_36  and  N7_38 
ROOT
HETATM    1  C1  UNL     1      20.447  35.996  17.168  1.00  0.00     0.050 C 
HETATM    2  C2  UNL     1      19.880  34.673  17.663  1.00  0.00     0.208 C 
HETATM    3  C3  UNL     1      18.671  34.962  18.431  1.00  0.00     0.086 C 
HETATM    4  N1  UNL     1      17.731  35.183  19.052  1.00  0.00    -0.195 NA
ENDROOT
BRANCH   2   5
HETATM    5  N2  UNL     1      19.490  33.821  16.525  1.00  0.00    -0.258 N 
HETATM    6  C4  UNL     1      20.461  33.138  15.764  1.00  0.00     0.269 C 
HETATM    7  O1  UNL     1      21.674  33.311  16.194  1.00  0.00    -0.266 OA
BRANCH   6   8
HETATM    8  C5  UNL     1      20.286  32.288  14.604  1.00  0.00     0.135 C 
BRANCH   8   9
HETATM    9  N3  UNL     1      21.017  31.059  14.519  1.00  0.00    -0.288 NA
HETATM   10  C6  UNL     1      21.463  30.962  13.118  1.00  0.00     0.096 C 
HETATM   11  C7  UNL     1      20.367  30.875  12.133  1.00  0.00     0.025 C 
HETATM   12  C8  UNL     1      19.688  29.522  12.255  1.00  0.00    -0.031 C 
HETATM   13  C9  UNL     1      18.193  29.738  12.202  1.00  0.00     0.010 C 
HETATM   14  C13 UNL     1      20.009  28.620  11.048  1.00  0.00     0.018 C 
HETATM   15  C28 UNL     1      20.068  28.950  13.559  1.00  0.00     0.025 C 
HETATM   16  C10 UNL     1      17.393  28.489  12.301  1.00  0.00     0.001 C 
HETATM   17  C11 UNL     1      17.937  27.370  11.458  1.00  0.00     0.001 C 
HETATM   18  C12 UNL     1      19.434  27.281  11.485  1.00  0.00     0.009 C 
HETATM   19  C29 UNL     1      20.121  29.920  14.679  1.00  0.00     0.096 C 
BRANCH  14  20
HETATM   20  C14 UNL     1      21.446  28.587  10.757  1.00  0.00    -0.002 C 
BRANCH  20  21
HETATM   21  C15 UNL     1      22.271  27.397  10.979  1.00  0.00     0.112 C 
BRANCH  21  22
HETATM   22  N4  UNL     1      23.255  26.946  10.072  1.00  0.00    -0.271 N 
HETATM   23  N5  UNL     1      24.570  27.128   9.826  1.00  0.00    -0.304 N 
HETATM   24  C16 UNL     1      24.559  26.229   8.851  1.00  0.00     0.134 A 
ATOM     25  H5  UNL     1      25.291  27.725  10.232  1.00  0.00     0.186 HD
HETATM   26  C17 UNL     1      23.222  26.016   9.074  1.00  0.00     0.050 A 
BRANCH  26  27
HETATM   27  C18 UNL     1      22.182  25.122   8.522  1.00  0.00     0.062 C 
BRANCH  27  28
HETATM   28  C19 UNL     1      21.513  25.695   7.320  1.00  0.00     0.026 C 
BRANCH  28  29
HETATM   29  C20 UNL     1      20.271  26.451   7.663  1.00  0.00     0.123 C 
BRANCH  29  30
HETATM   30  N6  UNL     1      19.539  26.892   6.484  1.00  0.00    -0.356 N 
HETATM   31  C21 UNL     1      18.531  27.881   6.628  1.00  0.00     0.268 C 
HETATM   32  O2  UNL     1      18.300  28.329   7.775  1.00  0.00    -0.266 OA
ATOM     33  H6  UNL     1      19.748  26.496   5.568  1.00  0.00     0.162 HD
BRANCH  31  34
HETATM   34  C22 UNL     1      17.764  28.380   5.450  1.00  0.00     0.108 A 
HETATM   35  C23 UNL     1      17.079  27.500   4.649  1.00  0.00     0.087 A 
HETATM   36  S1  UNL     1      16.357  28.553   3.517  1.00  0.00    -0.076 SA
HETATM   37  C24 UNL     1      16.972  30.050   4.132  1.00  0.00     0.143 A 
HETATM   38  N8  UNL     1      17.688  29.636   5.160  1.00  0.00    -0.341 N 
ATOM     39  H8  UNL     1      18.186  30.316   5.734  1.00  0.00     0.167 HD
BRANCH  37  40
HETATM   40  C25 UNL     1      16.716  31.403   3.611  1.00  0.00     0.276 C 
HETATM   41  O3  UNL     1      17.464  31.792   2.664  1.00  0.00    -0.265 OA
HETATM   42  N7  UNL     1      15.708  32.234   4.115  1.00  0.00    -0.355 N 
HETATM   43  C26 UNL     1      14.861  31.802   5.195  1.00  0.00     0.152 C 
HETATM   44  C27 UNL     1      15.496  33.548   3.546  1.00  0.00     0.152 C 
ENDBRANCH  37  40
ENDBRANCH  31  34
ENDBRANCH  29  30
ENDBRANCH  28  29
ENDBRANCH  27  28
ENDBRANCH  26  27
ENDBRANCH  21  22
ENDBRANCH  20  21
ENDBRANCH  14  20
ENDBRANCH   8   9
ENDBRANCH   6   8
BRANCH   5  45
HETATM   45  N9  UNL     1      18.162  33.688  16.254  1.00  0.00    -0.225 NA
HETATM   46  C30 UNL     1      17.505  32.484  16.537  1.00  0.00     0.114 C 
HETATM   47  C31 UNL     1      17.179  31.815  15.260  1.00  0.00     0.017 C 
HETATM   48  C32 UNL     1      17.435  32.834  14.189  1.00  0.00     0.017 C 
HETATM   49  C33 UNL     1      17.707  34.098  14.969  1.00  0.00     0.114 C 
ENDBRANCH   5  45
ENDBRANCH   2   5
TORSDOF 13
ENDMDL
MODEL 5
REMARK VINA RESULT: -9.075550756      5.094     11.867
REMARK  13 active torsions:
REMARK  status: ('A' for Active; 'I' for Inactive)
REMARK    1  A    between atoms: C2_2  and  N2_5 
REMARK       I    between atoms: N2_5  and  C4_6 
REMARK    2  A    between atoms: N2_5  and  N9_45 
REMARK    3  A    between atoms: C4_6  and  C5_8 
REMARK    4  A    between atoms: C5_8  and  N3_9 
REMARK    5  A    between atoms: C13_17  and  C14_18 
REMARK    6  A    between atoms: C14_18  and  C15_19 
REMARK    7  A    between atoms: C15_19  and  N4_20 
REMARK    8  A    between atoms: C17_24  and  C18_25 
REMARK    9  A    between atoms: C18_25  and  C19_26 
REMARK   10  A    between atoms: C19_26  and  C20_27 
REMARK   11  A    between atoms: C20_27  and  N6_28 
REMARK       I    between atoms: N6_28  and  C21_30 
REMARK   12  A    between atoms: C21_30  and  C22_32 
REMARK   13  A    between atoms: C24_35  and  C25_36 
REMARK       I    between atoms: C25_36  and  N7_38 
ROOT
HETATM    1  C1  UNL     1      17.910  25.613   9.420  1.00  0.00     0.050 C 
HETATM    2  C2  UNL     1      17.961  25.670  10.941  1.00  0.00     0.208 C 
HETATM    3  C3  UNL     1      18.540  24.415  11.417  1.00  0.00     0.086 C 
HETATM    4  N1  UNL     1      18.977  23.425  11.799  1.00  0.00    -0.195 NA
ENDROOT
BRANCH   2   5
HETATM    5  N2  UNL     1      18.843  26.763  11.386  1.00  0.00    -0.258 N 
HETATM    6  C4  UNL     1      18.426  27.671  12.381  1.00  0.00     0.269 C 
HETATM    7  O1  UNL     1      17.247  27.414  12.859  1.00  0.00    -0.266 OA
BRANCH   6   8
HETATM    8  C5  UNL     1      19.124  28.818  12.928  1.00  0.00     0.135 C 
BRANCH   8   9
HETATM    9  N3  UNL     1      19.165  29.001  14.348  1.00  0.00    -0.288 NA
HETATM   10  C6  UNL     1      18.545  30.314  14.594  1.00  0.00     0.096 C 
HETATM   11  C7  UNL     1      19.269  31.454  13.995  1.00  0.00     0.025 C 
HETATM   12  C8  UNL     1      20.574  31.668  14.744  1.00  0.00    -0.031 C 
HETATM   13  C9  UNL     1      21.666  31.908  13.727  1.00  0.00     0.010 C 
HETATM   14  C13 UNL     1      20.528  32.950  15.597  1.00  0.00     0.018 C 
HETATM   15  C28 UNL     1      20.856  30.440  15.507  1.00  0.00     0.025 C 
HETATM   16  C10 UNL     1      23.009  32.146  14.320  1.00  0.00     0.001 C 
HETATM   17  C11 UNL     1      22.977  33.076  15.500  1.00  0.00     0.001 C 
HETATM   18  C12 UNL     1      21.809  32.840  16.411  1.00  0.00     0.009 C 
HETATM   19  C29 UNL     1      20.542  29.175  14.800  1.00  0.00     0.096 C 
BRANCH  14  20
HETATM   20  C14 UNL     1      19.309  33.023  16.409  1.00  0.00    -0.002 C 
BRANCH  20  21
HETATM   21  C15 UNL     1      18.125  33.778  15.992  1.00  0.00     0.112 C 
BRANCH  21  22
HETATM   22  N4  UNL     1      16.802  33.391  16.294  1.00  0.00    -0.271 N 
HETATM   23  N5  UNL     1      15.927  32.417  15.962  1.00  0.00    -0.304 N 
HETATM   24  C16 UNL     1      15.020  32.879  16.813  1.00  0.00     0.134 A 
ATOM     25  H5  UNL     1      15.953  31.633  15.312  1.00  0.00     0.186 HD
HETATM   26  C17 UNL     1      15.884  33.881  17.177  1.00  0.00     0.050 A 
BRANCH  26  27
HETATM   27  C18 UNL     1      15.871  34.993  18.151  1.00  0.00     0.062 C 
BRANCH  27  28
HETATM   28  C19 UNL     1      14.864  36.039  17.814  1.00  0.00     0.026 C 
BRANCH  28  29
HETATM   29  C20 UNL     1      15.410  37.423  17.946  1.00  0.00     0.123 C 
BRANCH  29  30
HETATM   30  N6  UNL     1      16.863  37.448  18.034  1.00  0.00    -0.356 N 
HETATM   31  C21 UNL     1      17.567  38.569  17.524  1.00  0.00     0.268 C 
HETATM   32  O2  UNL     1      16.904  39.496  17.001  1.00  0.00    -0.266 OA
ATOM     33  H6  UNL     1      17.367  36.669  18.457  1.00  0.00     0.162 HD
BRANCH  31  34
HETATM   34  C22 UNL     1      19.054  38.651  17.605  1.00  0.00     0.108 A 
HETATM   35  C23 UNL     1      19.757  39.379  16.678  1.00  0.00     0.087 A 
HETATM   36  S1  UNL     1      21.359  39.194  17.235  1.00  0.00    -0.076 SA
HETATM   37  C24 UNL     1      21.036  38.199  18.615  1.00  0.00     0.143 A 
HETATM   38  N8  UNL     1      19.723  38.080  18.550  1.00  0.00    -0.341 N 
ATOM     39  H8  UNL     1      19.232  37.530  19.255  1.00  0.00     0.167 HD
BRANCH  37  40
HETATM   40  C25 UNL     1      22.011  37.669  19.583  1.00  0.00     0.276 C 
HETATM   41  O3  UNL     1      22.767  38.519  20.142  1.00  0.00    -0.265 OA
HETATM   42  N7  UNL     1      22.116  36.306  19.888  1.00  0.00    -0.355 N 
HETATM   43  C26 UNL     1      21.266  35.336  19.251  1.00  0.00     0.152 C 
HETATM   44  C27 UNL     1      23.084  35.852  20.863  1.00  0.00     0.152 C 
ENDBRANCH  37  40
ENDBRANCH  31  34
ENDBRANCH  29  30
ENDBRANCH  28  29
ENDBRANCH  27  28
ENDBRANCH  26  27
ENDBRANCH  21  22
ENDBRANCH  20  21
ENDBRANCH  14  20
ENDBRANCH   8   9
ENDBRANCH   6   8
BRANCH   5  45
HETATM   45  N9  UNL     1      20.085  26.847  10.833  1.00  0.00    -0.225 NA
HETATM   46  C30 UNL     1      21.215  26.516  11.591  1.00  0.00     0.114 C 
HETATM   47  C31 UNL     1      21.962  27.758  11.886  1.00  0.00     0.017 C 
HETATM   48  C32 UNL     1      21.352  28.817  11.014  1.00  0.00     0.017 C 
HETATM   49  C33 UNL     1      20.412  28.038  10.127  1.00  0.00     0.114 C 
ENDBRANCH   5  45
ENDBRANCH   2   5
TORSDOF 13
ENDMDL
