MODEL 1
REMARK VINA RESULT: -7.634270798      0.000      0.000
REMARK  3 active torsions:
REMARK  status: ('A' for Active; 'I' for Inactive)
REMARK    1  A    between atoms: C2_2  and  N1_4 
REMARK       I    between atoms: N1_4  and  C4_6 
REMARK    2  A    between atoms: C4_6  and  C5_8 
REMARK       I    between atoms: C5_8  and  N2_10 
REMARK    3  A    between atoms: N2_10  and  C6_12 
ROOT
HETATM    1  C5  UNL     1      46.455  51.745   9.644  1.00  0.00     0.309 C 
HETATM    2  O2  UNL     1      45.629  51.223  10.444  1.00  0.00    -0.262 OA
HETATM    3  N2  UNL     1      46.212  51.719   8.247  1.00  0.00    -0.348 N 
ATOM      4  H2  UNL     1      46.886  52.142   7.610  1.00  0.00     0.163 HD
ENDROOT
BRANCH   3   5
HETATM    5  C6  UNL     1      45.030  51.104   7.724  1.00  0.00     0.089 C 
HETATM    6  C7  UNL     1      44.348  51.952   6.710  1.00  0.00     0.030 C 
HETATM    7  C8  UNL     1      43.430  51.284   5.789  1.00  0.00    -0.008 C 
HETATM    8  C9  UNL     1      43.997  51.209   4.362  1.00  0.00     0.010 C 
HETATM    9  C15 UNL     1      43.379  49.815   5.777  1.00  0.00    -0.005 C 
HETATM   10  C10 UNL     1      44.540  49.832   4.773  1.00  0.00    -0.006 C 
HETATM   11  C11 UNL     1      45.761  49.930   5.626  1.00  0.00    -0.008 C 
HETATM   12  C12 UNL     1      46.785  48.857   5.312  1.00  0.00     0.011 C 
HETATM   13  C13 UNL     1      45.335  49.758   7.065  1.00  0.00     0.013 C 
HETATM   14  C14 UNL     1      43.953  49.104   6.937  1.00  0.00     0.012 C 
ENDBRANCH   3   5
BRANCH   1  15
HETATM   15  C4  UNL     1      47.653  52.367  10.182  1.00  0.00     0.309 C 
HETATM   16  N1  UNL     1      47.767  53.775  10.316  1.00  0.00    -0.349 N 
ATOM     17  H1  UNL     1      46.995  54.378  10.032  1.00  0.00     0.163 HD
HETATM   18  O1  UNL     1      48.603  51.590  10.528  1.00  0.00    -0.262 OA
BRANCH  16  19
HETATM   19  C2  UNL     1      48.972  54.353  10.853  1.00  0.00     0.076 C 
HETATM   20  C1  UNL     1      49.930  54.781   9.758  1.00  0.00     0.032 C 
HETATM   21  C3  UNL     1      48.608  55.620  11.635  1.00  0.00     0.032 C 
ENDBRANCH  16  19
ENDBRANCH   1  15
TORSDOF 3
ENDMDL
MODEL 2
REMARK VINA RESULT: -7.290825041      2.089      3.075
REMARK  3 active torsions:
REMARK  status: ('A' for Active; 'I' for Inactive)
REMARK    1  A    between atoms: C2_2  and  N1_4 
REMARK       I    between atoms: N1_4  and  C4_6 
REMARK    2  A    between atoms: C4_6  and  C5_8 
REMARK       I    between atoms: C5_8  and  N2_10 
REMARK    3  A    between atoms: N2_10  and  C6_12 
ROOT
HETATM    1  C5  UNL     1      48.494  53.446  10.696  1.00  0.00     0.309 C 
HETATM    2  O2  UNL     1      49.167  52.395  10.887  1.00  0.00    -0.262 OA
HETATM    3  N2  UNL     1      47.237  53.382  10.045  1.00  0.00    -0.348 N 
ATOM      4  H2  UNL     1      46.701  54.237   9.895  1.00  0.00     0.163 HD
ENDROOT
BRANCH   3   5
HETATM    5  C6  UNL     1      46.713  52.129   9.595  1.00  0.00     0.089 C 
HETATM    6  C7  UNL     1      45.372  52.265   8.963  1.00  0.00     0.030 C 
HETATM    7  C8  UNL     1      44.940  51.187   8.075  1.00  0.00    -0.008 C 
HETATM    8  C9  UNL     1      44.936  51.621   6.600  1.00  0.00     0.010 C 
HETATM    9  C15 UNL     1      45.905  50.145   7.700  1.00  0.00    -0.005 C 
HETATM   10  C10 UNL     1      46.361  51.051   6.548  1.00  0.00    -0.006 C 
HETATM   11  C11 UNL     1      47.365  51.962   7.173  1.00  0.00    -0.008 C 
HETATM   12  C12 UNL     1      48.682  51.988   6.425  1.00  0.00     0.011 C 
HETATM   13  C13 UNL     1      47.635  51.462   8.573  1.00  0.00     0.013 C 
HETATM   14  C14 UNL     1      47.124  50.016   8.523  1.00  0.00     0.012 C 
ENDBRANCH   3   5
BRANCH   1  15
HETATM   15  C4  UNL     1      49.033  54.716  11.155  1.00  0.00     0.309 C 
HETATM   16  N1  UNL     1      50.249  55.239  10.644  1.00  0.00    -0.349 N 
ATOM     17  H1  UNL     1      50.768  54.722   9.935  1.00  0.00     0.163 HD
HETATM   18  O1  UNL     1      48.364  55.342  12.042  1.00  0.00    -0.262 OA
BRANCH  16  19
HETATM   19  C2  UNL     1      50.750  56.502  11.125  1.00  0.00     0.076 C 
HETATM   20  C1  UNL     1      52.152  56.783  10.621  1.00  0.00     0.032 C 
HETATM   21  C3  UNL     1      49.858  57.625  10.587  1.00  0.00     0.032 C 
ENDBRANCH  16  19
ENDBRANCH   1  15
TORSDOF 3
ENDMDL
MODEL 3
REMARK VINA RESULT: -7.162710582      2.020      3.322
REMARK  3 active torsions:
REMARK  status: ('A' for Active; 'I' for Inactive)
REMARK    1  A    between atoms: C2_2  and  N1_4 
REMARK       I    between atoms: N1_4  and  C4_6 
REMARK    2  A    between atoms: C4_6  and  C5_8 
REMARK       I    between atoms: C5_8  and  N2_10 
REMARK    3  A    between atoms: N2_10  and  C6_12 
ROOT
HETATM    1  C5  UNL     1      49.093  53.262   8.781  1.00  0.00     0.309 C 
HETATM    2  O2  UNL     1      49.821  53.206   7.751  1.00  0.00    -0.262 OA
HETATM    3  N2  UNL     1      47.891  52.514   8.849  1.00  0.00    -0.348 N 
ATOM      4  H2  UNL     1      47.309  52.567   9.685  1.00  0.00     0.163 HD
ENDROOT
BRANCH   3   5
HETATM    5  C6  UNL     1      47.485  51.686   7.754  1.00  0.00     0.089 C 
HETATM    6  C7  UNL     1      47.623  50.235   8.055  1.00  0.00     0.030 C 
HETATM    7  C8  UNL     1      46.841  49.307   7.241  1.00  0.00    -0.008 C 
HETATM    8  C9  UNL     1      45.686  48.675   8.035  1.00  0.00     0.010 C 
HETATM    9  C15 UNL     1      45.828  49.846   6.322  1.00  0.00    -0.005 C 
HETATM   10  C10 UNL     1      44.831  49.828   7.489  1.00  0.00    -0.006 C 
HETATM   11  C11 UNL     1      45.080  51.114   8.205  1.00  0.00    -0.008 C 
HETATM   12  C12 UNL     1      43.816  51.925   8.413  1.00  0.00     0.011 C 
HETATM   13  C13 UNL     1      46.027  51.936   7.364  1.00  0.00     0.013 C 
HETATM   14  C14 UNL     1      45.912  51.281   5.981  1.00  0.00     0.012 C 
ENDBRANCH   3   5
BRANCH   1  15
HETATM   15  C4  UNL     1      49.510  54.105   9.889  1.00  0.00     0.309 C 
HETATM   16  N1  UNL     1      50.316  55.256   9.689  1.00  0.00    -0.349 N 
ATOM     17  H1  UNL     1      50.617  55.511   8.748  1.00  0.00     0.163 HD
HETATM   18  O1  UNL     1      49.121  53.764  11.055  1.00  0.00    -0.262 OA
BRANCH  16  19
HETATM   19  C2  UNL     1      50.709  56.066  10.814  1.00  0.00     0.076 C 
HETATM   20  C1  UNL     1      52.059  56.722  10.594  1.00  0.00     0.032 C 
HETATM   21  C3  UNL     1      49.694  57.201  10.985  1.00  0.00     0.032 C 
ENDBRANCH  16  19
ENDBRANCH   1  15
TORSDOF 3
ENDMDL
MODEL 4
REMARK VINA RESULT: -7.104584799      4.392      5.451
REMARK  3 active torsions:
REMARK  status: ('A' for Active; 'I' for Inactive)
REMARK    1  A    between atoms: C2_2  and  N1_4 
REMARK       I    between atoms: N1_4  and  C4_6 
REMARK    2  A    between atoms: C4_6  and  C5_8 
REMARK       I    between atoms: C5_8  and  N2_10 
REMARK    3  A    between atoms: N2_10  and  C6_12 
ROOT
HETATM    1  C5  UNL     1      48.686  53.378  10.376  1.00  0.00     0.309 C 
HETATM    2  O2  UNL     1      47.553  53.345   9.819  1.00  0.00    -0.262 OA
HETATM    3  N2  UNL     1      49.500  52.218  10.409  1.00  0.00    -0.348 N 
ATOM      4  H2  UNL     1      50.413  52.254  10.862  1.00  0.00     0.163 HD
ENDROOT
BRANCH   3   5
HETATM    5  C6  UNL     1      49.053  50.996   9.812  1.00  0.00     0.089 C 
HETATM    6  C7  UNL     1      50.058  50.416   8.880  1.00  0.00     0.030 C 
HETATM    7  C8  UNL     1      49.938  48.992   8.570  1.00  0.00    -0.008 C 
HETATM    8  C9  UNL     1      51.056  48.164   9.223  1.00  0.00     0.010 C 
HETATM    9  C15 UNL     1      48.979  48.178   9.331  1.00  0.00    -0.005 C 
HETATM   10  C10 UNL     1      50.073  47.964  10.385  1.00  0.00    -0.006 C 
HETATM   11  C11 UNL     1      49.975  49.165  11.266  1.00  0.00    -0.008 C 
HETATM   12  C12 UNL     1      49.848  48.810  12.733  1.00  0.00     0.011 C 
HETATM   13  C13 UNL     1      48.737  49.932  10.865  1.00  0.00     0.013 C 
HETATM   14  C14 UNL     1      47.926  48.889  10.084  1.00  0.00     0.012 C 
ENDBRANCH   3   5
BRANCH   1  15
HETATM   15  C4  UNL     1      49.134  54.621  10.981  1.00  0.00     0.309 C 
HETATM   16  N1  UNL     1      50.250  55.337  10.476  1.00  0.00    -0.349 N 
ATOM     17  H1  UNL     1      50.760  54.982   9.668  1.00  0.00     0.163 HD
HETATM   18  O1  UNL     1      48.479  55.042  11.991  1.00  0.00    -0.262 OA
BRANCH  16  19
HETATM   19  C2  UNL     1      50.663  56.566  11.105  1.00  0.00     0.076 C 
HETATM   20  C1  UNL     1      52.065  56.969  10.691  1.00  0.00     0.032 C 
HETATM   21  C3  UNL     1      49.731  57.693  10.647  1.00  0.00     0.032 C 
ENDBRANCH  16  19
ENDBRANCH   1  15
TORSDOF 3
ENDMDL
MODEL 5
REMARK VINA RESULT: -7.075931364      3.647      4.796
REMARK  3 active torsions:
REMARK  status: ('A' for Active; 'I' for Inactive)
REMARK    1  A    between atoms: C2_2  and  N1_4 
REMARK       I    between atoms: N1_4  and  C4_6 
REMARK    2  A    between atoms: C4_6  and  C5_8 
REMARK       I    between atoms: C5_8  and  N2_10 
REMARK    3  A    between atoms: N2_10  and  C6_12 
ROOT
HETATM    1  C5  UNL     1      49.172  53.477  10.135  1.00  0.00     0.309 C 
HETATM    2  O2  UNL     1      48.197  52.795  10.555  1.00  0.00    -0.262 OA
HETATM    3  N2  UNL     1      49.955  53.013   9.048  1.00  0.00    -0.348 N 
ATOM      4  H2  UNL     1      50.742  53.571   8.717  1.00  0.00     0.163 HD
ENDROOT
BRANCH   3   5
HETATM    5  C6  UNL     1      49.650  51.767   8.411  1.00  0.00     0.089 C 
HETATM    6  C7  UNL     1      48.773  51.935   7.221  1.00  0.00     0.030 C 
HETATM    7  C8  UNL     1      48.763  50.851   6.241  1.00  0.00    -0.008 C 
HETATM    8  C9  UNL     1      49.472  51.247   4.936  1.00  0.00     0.010 C 
HETATM    9  C15 UNL     1      49.746  49.766   6.371  1.00  0.00    -0.005 C 
HETATM   10  C10 UNL     1      50.728  50.626   5.565  1.00  0.00    -0.006 C 
HETATM   11  C11 UNL     1      51.358  51.517   6.584  1.00  0.00    -0.008 C 
HETATM   12  C12 UNL     1      52.872  51.477   6.544  1.00  0.00     0.011 C 
HETATM   13  C13 UNL     1      50.916  51.043   7.948  1.00  0.00     0.013 C 
HETATM   14  C14 UNL     1      50.427  49.615   7.672  1.00  0.00     0.012 C 
ENDBRANCH   3   5
BRANCH   1  15
HETATM   15  C4  UNL     1      49.476  54.740  10.786  1.00  0.00     0.309 C 
HETATM   16  N1  UNL     1      50.531  55.577  10.337  1.00  0.00    -0.349 N 
ATOM     17  H1  UNL     1      51.098  55.297   9.538  1.00  0.00     0.163 HD
HETATM   18  O1  UNL     1      48.752  55.066  11.784  1.00  0.00    -0.262 OA
BRANCH  16  19
HETATM   19  C2  UNL     1      50.800  56.822  11.011  1.00  0.00     0.076 C 
HETATM   20  C1  UNL     1      52.118  57.429  10.570  1.00  0.00     0.032 C 
HETATM   21  C3  UNL     1      49.708  57.831  10.640  1.00  0.00     0.032 C 
ENDBRANCH  16  19
ENDBRANCH   1  15
TORSDOF 3
ENDMDL
