MODEL 1
REMARK VINA RESULT: -6.541397977      0.000      0.000
REMARK  2 active torsions:
REMARK  status: ('A' for Active; 'I' for Inactive)
REMARK    1  A    between atoms: C2_2  and  C3_3 
REMARK    2  A    between atoms: C3_3  and  N1_4 
REMARK       I    between atoms: N1_4  and  C4_6 
REMARK       I    between atoms: C4_6  and  N2_8 
ROOT
HETATM    1  N1  UNL     1      -4.724  -3.995  16.405  1.00  0.00    -0.340 N 
ATOM      2  H1  UNL     1      -5.666  -3.609  16.477  1.00  0.00     0.164 HD
HETATM    3  C4  UNL     1      -4.496  -5.324  16.842  1.00  0.00     0.318 C 
HETATM    4  O1  UNL     1      -3.361  -5.807  16.760  1.00  0.00    -0.247 OA
HETATM    5  N2  UNL     1      -5.564  -6.074  17.360  1.00  0.00    -0.334 N 
HETATM    6  C5  UNL     1      -6.962  -5.682  17.535  1.00  0.00     0.127 C 
HETATM    7  C6  UNL     1      -7.735  -6.953  17.445  1.00  0.00     0.022 C 
HETATM    8  C7  UNL     1      -6.740  -8.097  17.469  1.00  0.00     0.022 C 
HETATM    9  C8  UNL     1      -5.413  -7.453  17.833  1.00  0.00     0.127 C 
ENDROOT
BRANCH   1  10
HETATM   10  C3  UNL     1      -3.675  -3.164  15.860  1.00  0.00     0.150 C 
BRANCH  10  11
HETATM   11  C2  UNL     1      -4.016  -1.750  16.165  1.00  0.00    -0.018 C 
HETATM   12  C1  UNL     1      -3.499  -0.771  15.469  1.00  0.00     0.008 C 
ENDBRANCH  10  11
ENDBRANCH   1  10
TORSDOF 2
ENDMDL
MODEL 2
REMARK VINA RESULT: -6.019563098      0.859      1.076
REMARK  2 active torsions:
REMARK  status: ('A' for Active; 'I' for Inactive)
REMARK    1  A    between atoms: C2_2  and  C3_3 
REMARK    2  A    between atoms: C3_3  and  N1_4 
REMARK       I    between atoms: N1_4  and  C4_6 
REMARK       I    between atoms: C4_6  and  N2_8 
ROOT
HETATM    1  N1  UNL     1      -4.424  -4.644  17.221  1.00  0.00    -0.340 N 
ATOM      2  H1  UNL     1      -5.204  -4.016  17.410  1.00  0.00     0.164 HD
HETATM    3  C4  UNL     1      -4.645  -6.043  17.281  1.00  0.00     0.318 C 
HETATM    4  O1  UNL     1      -3.710  -6.820  17.054  1.00  0.00    -0.247 OA
HETATM    5  N2  UNL     1      -5.925  -6.528  17.598  1.00  0.00    -0.334 N 
HETATM    6  C5  UNL     1      -7.144  -5.775  17.895  1.00  0.00     0.127 C 
HETATM    7  C6  UNL     1      -8.262  -6.671  17.480  1.00  0.00     0.022 C 
HETATM    8  C7  UNL     1      -7.670  -8.034  17.180  1.00  0.00     0.022 C 
HETATM    9  C8  UNL     1      -6.237  -7.957  17.681  1.00  0.00     0.127 C 
ENDROOT
BRANCH   1  10
HETATM   10  C3  UNL     1      -3.136  -4.074  16.901  1.00  0.00     0.150 C 
BRANCH  10  11
HETATM   11  C2  UNL     1      -3.356  -2.988  15.911  1.00  0.00    -0.018 C 
HETATM   12  C1  UNL     1      -4.206  -2.025  16.151  1.00  0.00     0.008 C 
ENDBRANCH  10  11
ENDBRANCH   1  10
TORSDOF 2
ENDMDL
MODEL 3
REMARK VINA RESULT: -5.954264890      1.556      1.818
REMARK  2 active torsions:
REMARK  status: ('A' for Active; 'I' for Inactive)
REMARK    1  A    between atoms: C2_2  and  C3_3 
REMARK    2  A    between atoms: C3_3  and  N1_4 
REMARK       I    between atoms: N1_4  and  C4_6 
REMARK       I    between atoms: C4_6  and  N2_8 
ROOT
HETATM    1  N1  UNL     1      -3.832  -5.060  17.501  1.00  0.00    -0.340 N 
ATOM      2  H1  UNL     1      -4.519  -4.313  17.593  1.00  0.00     0.164 HD
HETATM    3  C4  UNL     1      -4.279  -6.405  17.532  1.00  0.00     0.318 C 
HETATM    4  O1  UNL     1      -3.459  -7.324  17.421  1.00  0.00    -0.247 OA
HETATM    5  N2  UNL     1      -5.648  -6.675  17.689  1.00  0.00    -0.334 N 
HETATM    6  C5  UNL     1      -6.759  -5.733  17.835  1.00  0.00     0.127 C 
HETATM    7  C6  UNL     1      -7.946  -6.447  17.286  1.00  0.00     0.022 C 
HETATM    8  C7  UNL     1      -7.548  -7.892  17.059  1.00  0.00     0.022 C 
HETATM    9  C8  UNL     1      -6.193  -8.035  17.732  1.00  0.00     0.127 C 
ENDROOT
BRANCH   1  10
HETATM   10  C3  UNL     1      -2.440  -4.707  17.342  1.00  0.00     0.150 C 
BRANCH  10  11
HETATM   11  C2  UNL     1      -2.213  -4.402  15.906  1.00  0.00    -0.018 C 
HETATM   12  C1  UNL     1      -3.144  -3.831  15.187  1.00  0.00     0.008 C 
ENDBRANCH  10  11
ENDBRANCH   1  10
TORSDOF 2
ENDMDL
MODEL 4
REMARK VINA RESULT: -5.638372425      1.013      5.055
REMARK  2 active torsions:
REMARK  status: ('A' for Active; 'I' for Inactive)
REMARK    1  A    between atoms: C2_2  and  C3_3 
REMARK    2  A    between atoms: C3_3  and  N1_4 
REMARK       I    between atoms: N1_4  and  C4_6 
REMARK       I    between atoms: C4_6  and  N2_8 
ROOT
HETATM    1  N1  UNL     1      -4.527  -5.551  17.477  1.00  0.00    -0.340 N 
ATOM      2  H1  UNL     1      -5.327  -4.964  17.711  1.00  0.00     0.164 HD
HETATM    3  C4  UNL     1      -3.548  -5.044  16.585  1.00  0.00     0.318 C 
HETATM    4  O1  UNL     1      -2.571  -5.743  16.291  1.00  0.00    -0.247 OA
HETATM    5  N2  UNL     1      -3.703  -3.756  16.048  1.00  0.00    -0.334 N 
HETATM    6  C5  UNL     1      -4.777  -2.790  16.274  1.00  0.00     0.127 C 
HETATM    7  C6  UNL     1      -4.147  -1.454  16.071  1.00  0.00     0.022 C 
HETATM    8  C7  UNL     1      -2.768  -1.683  15.482  1.00  0.00     0.022 C 
HETATM    9  C8  UNL     1      -2.738  -3.159  15.120  1.00  0.00     0.127 C 
ENDROOT
BRANCH   1  10
HETATM   10  C3  UNL     1      -4.435  -6.866  18.068  1.00  0.00     0.150 C 
BRANCH  10  11
HETATM   11  C2  UNL     1      -5.682  -7.599  17.734  1.00  0.00    -0.018 C 
HETATM   12  C1  UNL     1      -6.783  -6.953  17.447  1.00  0.00     0.008 C 
ENDBRANCH  10  11
ENDBRANCH   1  10
TORSDOF 2
ENDMDL
MODEL 5
REMARK VINA RESULT: -5.617357556      1.764      5.067
REMARK  2 active torsions:
REMARK  status: ('A' for Active; 'I' for Inactive)
REMARK    1  A    between atoms: C2_2  and  C3_3 
REMARK    2  A    between atoms: C3_3  and  N1_4 
REMARK       I    between atoms: N1_4  and  C4_6 
REMARK       I    between atoms: C4_6  and  N2_8 
ROOT
HETATM    1  N1  UNL     1      -6.957  -5.904  17.292  1.00  0.00    -0.340 N 
ATOM      2  H1  UNL     1      -7.150  -5.021  16.821  1.00  0.00     0.164 HD
HETATM    3  C4  UNL     1      -5.608  -6.306  17.459  1.00  0.00     0.318 C 
HETATM    4  O1  UNL     1      -5.356  -7.375  18.029  1.00  0.00    -0.247 OA
HETATM    5  N2  UNL     1      -4.576  -5.485  16.976  1.00  0.00    -0.334 N 
HETATM    6  C5  UNL     1      -4.674  -4.200  16.284  1.00  0.00     0.127 C 
HETATM    7  C6  UNL     1      -3.409  -3.485  16.615  1.00  0.00     0.022 C 
HETATM    8  C7  UNL     1      -2.486  -4.477  17.295  1.00  0.00     0.022 C 
HETATM    9  C8  UNL     1      -3.157  -5.827  17.108  1.00  0.00     0.127 C 
ENDROOT
BRANCH   1  10
HETATM   10  C3  UNL     1      -8.069  -6.697  17.763  1.00  0.00     0.150 C 
BRANCH  10  11
HETATM   11  C2  UNL     1      -8.457  -7.624  16.670  1.00  0.00    -0.018 C 
HETATM   12  C1  UNL     1      -8.289  -8.915  16.795  1.00  0.00     0.008 C 
ENDBRANCH  10  11
ENDBRANCH   1  10
TORSDOF 2
ENDMDL
