MODEL 1
REMARK VINA RESULT: -7.528861870      0.000      0.000
REMARK  3 active torsions:
REMARK  status: ('A' for Active; 'I' for Inactive)
REMARK    1  A    between atoms: C2_2  and  C3_3 
REMARK    2  A    between atoms: C4_4  and  C5_5 
REMARK       I    between atoms: C5_5  and  N1_7 
REMARK    3  A    between atoms: C8_10  and  C9_11 
ROOT
HETATM    1  C5  UNL     1      -4.341  -6.394  17.920  1.00  0.00     0.243 C 
HETATM    2  O1  UNL     1      -3.695  -7.477  17.924  1.00  0.00    -0.268 OA
HETATM    3  N1  UNL     1      -5.731  -6.426  17.584  1.00  0.00    -0.348 N 
HETATM    4  C6  UNL     1      -6.584  -5.269  17.543  1.00  0.00     0.127 C 
HETATM    5  C7  UNL     1      -7.962  -5.865  17.736  1.00  0.00     0.037 C 
HETATM    6  C8  UNL     1      -7.863  -7.119  16.899  1.00  0.00     0.106 C 
HETATM    7  C10 UNL     1      -6.494  -7.629  17.228  1.00  0.00     0.141 C 
ENDROOT
BRANCH   1   8
HETATM    8  C4  UNL     1      -3.702  -5.152  18.244  1.00  0.00     0.074 C 
HETATM    9  C3  UNL     1      -3.145  -4.279  17.455  1.00  0.00     0.005 C 
BRANCH   9  10
HETATM   10  C2  UNL     1      -3.014  -4.319  16.016  1.00  0.00    -0.010 C 
HETATM   11  C1  UNL     1      -3.942  -3.742  15.227  1.00  0.00     0.011 C 
ENDBRANCH   9  10
ENDBRANCH   1   8
BRANCH   6  12
HETATM   12  C9  UNL     1      -8.929  -8.082  17.171  1.00  0.00     0.178 C 
HETATM   13  O2  UNL     1     -10.062  -7.679  17.501  1.00  0.00    -0.648 OA
HETATM   14  O3  UNL     1      -8.698  -9.436  17.067  1.00  0.00    -0.648 OA
ENDBRANCH   6  12
TORSDOF 3
ENDMDL
MODEL 2
REMARK VINA RESULT: -7.072147647      2.146      5.897
REMARK  3 active torsions:
REMARK  status: ('A' for Active; 'I' for Inactive)
REMARK    1  A    between atoms: C2_2  and  C3_3 
REMARK    2  A    between atoms: C4_4  and  C5_5 
REMARK       I    between atoms: C5_5  and  N1_7 
REMARK    3  A    between atoms: C8_10  and  C9_11 
ROOT
HETATM    1  C5  UNL     1      -5.823  -6.357  17.496  1.00  0.00     0.243 C 
HETATM    2  O1  UNL     1      -5.393  -7.466  17.913  1.00  0.00    -0.268 OA
HETATM    3  N1  UNL     1      -4.877  -5.358  17.103  1.00  0.00    -0.348 N 
HETATM    4  C6  UNL     1      -5.230  -4.054  16.609  1.00  0.00     0.127 C 
HETATM    5  C7  UNL     1      -4.003  -3.656  15.817  1.00  0.00     0.037 C 
HETATM    6  C8  UNL     1      -2.894  -4.172  16.705  1.00  0.00     0.106 C 
HETATM    7  C10 UNL     1      -3.417  -5.505  17.144  1.00  0.00     0.141 C 
ENDROOT
BRANCH   1   8
HETATM    8  C4  UNL     1      -7.230  -6.092  17.417  1.00  0.00     0.074 C 
HETATM    9  C3  UNL     1      -8.204  -6.894  17.096  1.00  0.00     0.005 C 
BRANCH   9  10
HETATM   10  C2  UNL     1      -8.138  -8.291  16.729  1.00  0.00    -0.010 C 
HETATM   11  C1  UNL     1      -9.145  -9.130  17.041  1.00  0.00     0.011 C 
ENDBRANCH   9  10
ENDBRANCH   1   8
BRANCH   6  12
HETATM   12  C9  UNL     1      -1.599  -4.242  16.032  1.00  0.00     0.178 C 
HETATM   13  O2  UNL     1      -1.515  -3.981  14.815  1.00  0.00    -0.648 OA
HETATM   14  O3  UNL     1      -0.463  -4.593  16.726  1.00  0.00    -0.648 OA
ENDBRANCH   6  12
TORSDOF 3
ENDMDL
MODEL 3
REMARK VINA RESULT: -6.967951096      2.333      5.744
REMARK  3 active torsions:
REMARK  status: ('A' for Active; 'I' for Inactive)
REMARK    1  A    between atoms: C2_2  and  C3_3 
REMARK    2  A    between atoms: C4_4  and  C5_5 
REMARK       I    between atoms: C5_5  and  N1_7 
REMARK    3  A    between atoms: C8_10  and  C9_11 
ROOT
HETATM    1  C5  UNL     1      -5.627  -5.995  17.618  1.00  0.00     0.243 C 
HETATM    2  O1  UNL     1      -5.235  -7.173  17.836  1.00  0.00    -0.268 OA
HETATM    3  N1  UNL     1      -4.701  -5.056  17.065  1.00  0.00    -0.348 N 
HETATM    4  C6  UNL     1      -5.015  -3.685  16.765  1.00  0.00     0.127 C 
HETATM    5  C7  UNL     1      -3.984  -3.329  15.715  1.00  0.00     0.037 C 
HETATM    6  C8  UNL     1      -2.756  -4.025  16.255  1.00  0.00     0.106 C 
HETATM    7  C10 UNL     1      -3.301  -5.340  16.723  1.00  0.00     0.141 C 
ENDROOT
BRANCH   1   8
HETATM    8  C4  UNL     1      -6.972  -5.596  17.917  1.00  0.00     0.074 C 
HETATM    9  C3  UNL     1      -8.091  -6.008  17.395  1.00  0.00     0.005 C 
BRANCH   9  10
HETATM   10  C2  UNL     1      -8.292  -6.994  16.357  1.00  0.00    -0.010 C 
HETATM   11  C1  UNL     1      -9.133  -6.750  15.333  1.00  0.00     0.011 C 
ENDBRANCH   9  10
ENDBRANCH   1   8
BRANCH   6  12
HETATM   12  C9  UNL     1      -1.683  -4.152  15.272  1.00  0.00     0.178 C 
HETATM   13  O2  UNL     1      -1.949  -4.487  14.100  1.00  0.00    -0.648 OA
HETATM   14  O3  UNL     1      -0.374  -3.904  15.622  1.00  0.00    -0.648 OA
ENDBRANCH   6  12
TORSDOF 3
ENDMDL
MODEL 4
REMARK VINA RESULT: -6.866457535      2.469      6.139
REMARK  3 active torsions:
REMARK  status: ('A' for Active; 'I' for Inactive)
REMARK    1  A    between atoms: C2_2  and  C3_3 
REMARK    2  A    between atoms: C4_4  and  C5_5 
REMARK       I    between atoms: C5_5  and  N1_7 
REMARK    3  A    between atoms: C8_10  and  C9_11 
ROOT
HETATM    1  C5  UNL     1      -5.202  -5.221  17.791  1.00  0.00     0.243 C 
HETATM    2  O1  UNL     1      -4.793  -5.796  18.836  1.00  0.00    -0.268 OA
HETATM    3  N1  UNL     1      -4.249  -4.557  16.956  1.00  0.00    -0.348 N 
HETATM    4  C6  UNL     1      -4.577  -3.865  15.739  1.00  0.00     0.127 C 
HETATM    5  C7  UNL     1      -3.265  -3.883  14.983  1.00  0.00     0.037 C 
HETATM    6  C8  UNL     1      -2.276  -3.626  16.096  1.00  0.00     0.106 C 
HETATM    7  C10 UNL     1      -2.805  -4.477  17.210  1.00  0.00     0.141 C 
ENDROOT
BRANCH   1   8
HETATM    8  C4  UNL     1      -6.593  -5.225  17.441  1.00  0.00     0.074 C 
HETATM    9  C3  UNL     1      -7.370  -6.231  17.161  1.00  0.00     0.005 C 
BRANCH   9  10
HETATM   10  C2  UNL     1      -7.046  -7.639  17.128  1.00  0.00    -0.010 C 
HETATM   11  C1  UNL     1      -7.979  -8.551  16.791  1.00  0.00     0.011 C 
ENDBRANCH   9  10
ENDBRANCH   1   8
BRANCH   6  12
HETATM   12  C9  UNL     1      -0.896  -3.933  15.726  1.00  0.00     0.178 C 
HETATM   13  O2  UNL     1      -0.177  -4.593  16.502  1.00  0.00    -0.648 OA
HETATM   14  O3  UNL     1      -0.376  -3.503  14.526  1.00  0.00    -0.648 OA
ENDBRANCH   6  12
TORSDOF 3
ENDMDL
MODEL 5
REMARK VINA RESULT: -6.859158458      1.820      2.398
REMARK  3 active torsions:
REMARK  status: ('A' for Active; 'I' for Inactive)
REMARK    1  A    between atoms: C2_2  and  C3_3 
REMARK    2  A    between atoms: C4_4  and  C5_5 
REMARK       I    between atoms: C5_5  and  N1_7 
REMARK    3  A    between atoms: C8_10  and  C9_11 
ROOT
HETATM    1  C5  UNL     1      -4.018  -4.404  17.175  1.00  0.00     0.243 C 
HETATM    2  O1  UNL     1      -4.342  -3.266  16.739  1.00  0.00    -0.268 OA
HETATM    3  N1  UNL     1      -5.049  -5.369  17.407  1.00  0.00    -0.348 N 
HETATM    4  C6  UNL     1      -4.820  -6.700  17.899  1.00  0.00     0.127 C 
HETATM    5  C7  UNL     1      -6.043  -7.449  17.412  1.00  0.00     0.037 C 
HETATM    6  C8  UNL     1      -7.130  -6.424  17.640  1.00  0.00     0.106 C 
HETATM    7  C10 UNL     1      -6.484  -5.151  17.184  1.00  0.00     0.141 C 
ENDROOT
BRANCH   1   8
HETATM    8  C4  UNL     1      -2.647  -4.733  17.437  1.00  0.00     0.074 C 
HETATM    9  C3  UNL     1      -1.605  -4.600  16.668  1.00  0.00     0.005 C 
BRANCH   9  10
HETATM   10  C2  UNL     1      -1.538  -4.078  15.322  1.00  0.00    -0.010 C 
HETATM   11  C1  UNL     1      -0.369  -3.643  14.812  1.00  0.00     0.011 C 
ENDBRANCH   9  10
ENDBRANCH   1   8
BRANCH   6  12
HETATM   12  C9  UNL     1      -8.374  -6.734  16.940  1.00  0.00     0.178 C 
HETATM   13  O2  UNL     1      -8.477  -6.495  15.720  1.00  0.00    -0.648 OA
HETATM   14  O3  UNL     1      -9.441  -7.290  17.611  1.00  0.00    -0.648 OA
ENDBRANCH   6  12
TORSDOF 3
ENDMDL
