MODEL 1
REMARK VINA RESULT: -9.529040335      0.000      0.000
REMARK  14 active torsions:
REMARK  status: ('A' for Active; 'I' for Inactive)
REMARK    1  A    between atoms: C2_2  and  N1_3 
REMARK    2  A    between atoms: C2_2  and  C16_37 
REMARK    3  A    between atoms: N1_3  and  N2_5 
REMARK    4  A    between atoms: N2_5  and  C3_7 
REMARK    5  A    between atoms: C3_7  and  N3_8 
REMARK    6  A    between atoms: C3_7  and  C11_24 
REMARK    7  A    between atoms: N3_8  and  N4_10 
REMARK    8  A    between atoms: N4_10  and  C4_12 
REMARK    9  A    between atoms: C4_12  and  C5_13 
REMARK   10  A    between atoms: C8_16  and  O1_17 
REMARK   11  A    between atoms: C9_19  and  N5_20 
REMARK   12  A    between atoms: C11_24  and  C12_26 
REMARK   13  A    between atoms: N6_28  and  O5_29 
REMARK   14  A    between atoms: C19_46  and  N11_47 
ROOT
HETATM    1  C3  UNL     1       0.167 -22.820 -32.989  1.00  0.00     0.187 C 
ENDROOT
BRANCH   1   2
HETATM    2  N2  UNL     1       1.098 -23.298 -33.787  1.00  0.00    -0.281 N 
ATOM      3  H2  UNL     1       0.967 -24.242 -34.150  1.00  0.00     0.188 HD
BRANCH   2   4
HETATM    4  N1  UNL     1       2.227 -22.627 -34.166  1.00  0.00    -0.301 N 
ATOM      5  H1  UNL     1       2.151 -21.682 -34.542  1.00  0.00     0.186 HD
BRANCH   4   6
HETATM    6  C2  UNL     1       3.411 -23.188 -34.051  1.00  0.00     0.053 C 
HETATM    7  C1  UNL     1       4.065 -23.644 -35.286  1.00  0.00     0.072 C 
BRANCH   6   8
HETATM    8  C16 UNL     1       3.989 -23.315 -32.720  1.00  0.00     0.115 A 
HETATM    9  N8  UNL     1       4.590 -22.227 -32.140  1.00  0.00    -0.294 N 
HETATM   10  N9  UNL     1       5.124 -22.306 -30.940  1.00  0.00    -0.289 N 
ATOM     11  H8  UNL     1       4.623 -21.343 -32.646  1.00  0.00     0.187 HD
HETATM   12  C17 UNL     1       5.102 -23.467 -30.230  1.00  0.00     0.093 A 
ATOM     13  H9  UNL     1       5.564 -21.481 -30.534  1.00  0.00     0.188 HD
HETATM   14  C18 UNL     1       5.738 -23.455 -28.875  1.00  0.00     0.090 C 
HETATM   15  N10 UNL     1       4.529 -24.546 -30.758  1.00  0.00    -0.330 N 
HETATM   16  C19 UNL     1       3.967 -24.478 -32.010  1.00  0.00     0.131 A 
ATOM     17  H10 UNL     1       4.508 -25.422 -30.235  1.00  0.00     0.168 HD
BRANCH  16  18
HETATM   18  N11 UNL     1       3.455 -25.506 -32.439  1.00  0.00    -0.383 N 
ATOM     19 2H11 UNL     1       3.840 -25.880 -33.307  1.00  0.00     0.157 HD
ATOM     20 1H11 UNL     1       2.682 -25.976 -31.967  1.00  0.00     0.157 HD
ENDBRANCH  16  18
ENDBRANCH   6   8
ENDBRANCH   4   6
ENDBRANCH   2   4
ENDBRANCH   1   2
BRANCH   1  21
HETATM   21  N3  UNL     1      -0.995 -22.319 -33.601  1.00  0.00    -0.281 N 
ATOM     22  H3  UNL     1      -1.122 -22.444 -34.605  1.00  0.00     0.188 HD
BRANCH  21  23
HETATM   23  N4  UNL     1      -1.976 -21.654 -32.871  1.00  0.00    -0.309 N 
ATOM     24  H4  UNL     1      -2.545 -22.177 -32.206  1.00  0.00     0.186 HD
BRANCH  23  25
HETATM   25  C4  UNL     1      -2.175 -20.398 -33.019  1.00  0.00     0.118 C 
BRANCH  25  26
HETATM   26  C5  UNL     1      -2.423 -19.618 -31.816  1.00  0.00    -0.017 A 
HETATM   27  C6  UNL     1      -3.425 -18.677 -31.834  1.00  0.00     0.016 A 
HETATM   28  C7  UNL     1      -3.689 -17.925 -30.719  1.00  0.00     0.040 A 
HETATM   29  C8  UNL     1      -2.978 -18.080 -29.562  1.00  0.00     0.098 A 
HETATM   30  C9  UNL     1      -1.959 -19.032 -29.527  1.00  0.00     0.136 A 
HETATM   31  C10 UNL     1      -1.700 -19.785 -30.659  1.00  0.00     0.052 A 
BRANCH  29  32
HETATM   32  O1  UNL     1      -3.219 -17.340 -28.423  1.00  0.00    -0.358 OA
ATOM     33  H1  UNL     1      -2.611 -17.295 -27.694  1.00  0.00     0.217 HD
ENDBRANCH  29  32
BRANCH  30  34
HETATM   34  N5  UNL     1      -1.181 -19.244 -28.355  1.00  0.00    -0.113 N 
HETATM   35  O2  UNL     1      -1.666 -19.670 -27.279  1.00  0.00    -0.532 OA
HETATM   36  O3  UNL     1       0.181 -18.983 -28.350  1.00  0.00    -0.532 OA
ENDBRANCH  30  34
ENDBRANCH  25  26
ENDBRANCH  23  25
ENDBRANCH  21  23
ENDBRANCH   1  21
BRANCH   1  37
HETATM   37  C11 UNL     1       0.372 -22.860 -31.577  1.00  0.00     0.235 C 
HETATM   38  O4  UNL     1      -0.308 -23.772 -30.954  1.00  0.00    -0.283 OA
BRANCH  37  39
HETATM   39  C12 UNL     1       1.218 -22.031 -30.768  1.00  0.00     0.104 A 
HETATM   40  C13 UNL     1       1.682 -22.327 -29.522  1.00  0.00     0.149 A 
HETATM   41  N6  UNL     1       2.467 -21.453 -28.825  1.00  0.00    -0.183 N 
HETATM   42  C14 UNL     1       2.815 -20.267 -29.331  1.00  0.00     0.353 A 
HETATM   43  O6  UNL     1       3.537 -19.465 -28.687  1.00  0.00    -0.244 OA
HETATM   44  N7  UNL     1       2.381 -19.929 -30.556  1.00  0.00    -0.273 N 
HETATM   45  C15 UNL     1       1.613 -20.768 -31.254  1.00  0.00     0.265 A 
ATOM     46  H7  UNL     1       2.639 -19.027 -30.955  1.00  0.00     0.173 HD
HETATM   47  O7  UNL     1       1.223 -20.424 -32.397  1.00  0.00    -0.267 OA
BRANCH  41  48
HETATM   48  O5  UNL     1       2.928 -21.770 -27.566  1.00  0.00    -0.279 OA
ATOM     49  H5  UNL     1       3.843 -21.654 -27.340  1.00  0.00     0.245 HD
ENDBRANCH  41  48
ENDBRANCH  37  39
ENDBRANCH   1  37
TORSDOF 14
ENDMDL
MODEL 2
REMARK VINA RESULT: -9.515158773      1.500      2.418
REMARK  14 active torsions:
REMARK  status: ('A' for Active; 'I' for Inactive)
REMARK    1  A    between atoms: C2_2  and  N1_3 
REMARK    2  A    between atoms: C2_2  and  C16_37 
REMARK    3  A    between atoms: N1_3  and  N2_5 
REMARK    4  A    between atoms: N2_5  and  C3_7 
REMARK    5  A    between atoms: C3_7  and  N3_8 
REMARK    6  A    between atoms: C3_7  and  C11_24 
REMARK    7  A    between atoms: N3_8  and  N4_10 
REMARK    8  A    between atoms: N4_10  and  C4_12 
REMARK    9  A    between atoms: C4_12  and  C5_13 
REMARK   10  A    between atoms: C8_16  and  O1_17 
REMARK   11  A    between atoms: C9_19  and  N5_20 
REMARK   12  A    between atoms: C11_24  and  C12_26 
REMARK   13  A    between atoms: N6_28  and  O5_29 
REMARK   14  A    between atoms: C19_46  and  N11_47 
ROOT
HETATM    1  C3  UNL     1       0.425 -22.958 -33.118  1.00  0.00     0.187 C 
ENDROOT
BRANCH   1   2
HETATM    2  N2  UNL     1       0.501 -23.639 -34.241  1.00  0.00    -0.281 N 
ATOM      3  H2  UNL     1       0.528 -23.108 -35.112  1.00  0.00     0.188 HD
BRANCH   2   4
HETATM    4  N1  UNL     1       0.548 -25.002 -34.332  1.00  0.00    -0.301 N 
ATOM      5  H1  UNL     1      -0.262 -25.555 -34.052  1.00  0.00     0.186 HD
BRANCH   4   6
HETATM    6  C2  UNL     1       1.628 -25.607 -34.777  1.00  0.00     0.053 C 
HETATM    7  C1  UNL     1       1.473 -26.498 -35.937  1.00  0.00     0.072 C 
BRANCH   6   8
HETATM    8  C16 UNL     1       2.892 -25.354 -34.099  1.00  0.00     0.115 A 
HETATM    9  N8  UNL     1       3.147 -25.965 -32.899  1.00  0.00    -0.294 N 
HETATM   10  N9  UNL     1       4.277 -25.758 -32.258  1.00  0.00    -0.289 N 
ATOM     11  H8  UNL     1       2.450 -26.591 -32.496  1.00  0.00     0.187 HD
HETATM   12  C17 UNL     1       5.235 -24.931 -32.760  1.00  0.00     0.093 A 
ATOM     13  H9  UNL     1       4.439 -26.226 -31.367  1.00  0.00     0.188 HD
HETATM   14  C18 UNL     1       6.484 -24.759 -31.955  1.00  0.00     0.090 C 
HETATM   15  N10 UNL     1       5.025 -24.317 -33.923  1.00  0.00    -0.330 N 
HETATM   16  C19 UNL     1       3.849 -24.525 -34.603  1.00  0.00     0.131 A 
ATOM     17  H10 UNL     1       5.735 -23.694 -34.308  1.00  0.00     0.168 HD
BRANCH  16  18
HETATM   18  N11 UNL     1       3.718 -23.932 -35.667  1.00  0.00    -0.383 N 
ATOM     19 2H11 UNL     1       2.762 -23.766 -35.983  1.00  0.00     0.157 HD
ATOM     20 1H11 UNL     1       4.513 -23.613 -36.223  1.00  0.00     0.157 HD
ENDBRANCH  16  18
ENDBRANCH   6   8
ENDBRANCH   4   6
ENDBRANCH   2   4
ENDBRANCH   1   2
BRANCH   1  21
HETATM   21  N3  UNL     1      -0.819 -22.956 -32.463  1.00  0.00    -0.281 N 
ATOM     22  H3  UNL     1      -0.967 -23.583 -31.673  1.00  0.00     0.188 HD
BRANCH  21  23
HETATM   23  N4  UNL     1      -1.854 -22.117 -32.867  1.00  0.00    -0.309 N 
ATOM     24  H4  UNL     1      -2.773 -22.514 -33.064  1.00  0.00     0.186 HD
BRANCH  23  25
HETATM   25  C4  UNL     1      -1.673 -20.856 -32.996  1.00  0.00     0.118 C 
BRANCH  25  26
HETATM   26  C5  UNL     1      -2.084 -20.009 -31.885  1.00  0.00    -0.017 A 
HETATM   27  C6  UNL     1      -3.198 -19.217 -32.038  1.00  0.00     0.016 A 
HETATM   28  C7  UNL     1      -3.616 -18.408 -31.013  1.00  0.00     0.040 A 
HETATM   29  C8  UNL     1      -2.954 -18.360 -29.817  1.00  0.00     0.098 A 
HETATM   30  C9  UNL     1      -1.824 -19.159 -29.648  1.00  0.00     0.136 A 
HETATM   31  C10 UNL     1      -1.409 -19.972 -30.689  1.00  0.00     0.052 A 
BRANCH  29  32
HETATM   32  O1  UNL     1      -3.350 -17.558 -28.768  1.00  0.00    -0.358 OA
ATOM     33  H1  UNL     1      -3.224 -17.796 -27.856  1.00  0.00     0.217 HD
ENDBRANCH  29  32
BRANCH  30  34
HETATM   34  N5  UNL     1      -1.089 -19.157 -28.430  1.00  0.00    -0.113 N 
HETATM   35  O2  UNL     1       0.162 -19.066 -28.384  1.00  0.00    -0.532 OA
HETATM   36  O3  UNL     1      -1.739 -19.257 -27.209  1.00  0.00    -0.532 OA
ENDBRANCH  30  34
ENDBRANCH  25  26
ENDBRANCH  23  25
ENDBRANCH  21  23
ENDBRANCH   1  21
BRANCH   1  37
HETATM   37  C11 UNL     1       1.588 -22.295 -32.624  1.00  0.00     0.235 C 
HETATM   38  O4  UNL     1       2.377 -21.826 -33.540  1.00  0.00    -0.283 OA
BRANCH  37  39
HETATM   39  C12 UNL     1       1.993 -22.086 -31.264  1.00  0.00     0.104 A 
HETATM   40  C13 UNL     1       2.325 -20.892 -30.697  1.00  0.00     0.149 A 
HETATM   41  N6  UNL     1       2.723 -20.806 -29.393  1.00  0.00    -0.183 N 
HETATM   42  C14 UNL     1       2.806 -21.887 -28.613  1.00  0.00     0.353 A 
HETATM   43  O6  UNL     1       3.172 -21.804 -27.413  1.00  0.00    -0.244 OA
HETATM   44  N7  UNL     1       2.490 -23.087 -29.126  1.00  0.00    -0.273 N 
HETATM   45  C15 UNL     1       2.100 -23.193 -30.399  1.00  0.00     0.265 A 
ATOM     46  H7  UNL     1       2.549 -23.921 -28.542  1.00  0.00     0.173 HD
HETATM   47  O7  UNL     1       1.812 -24.329 -30.850  1.00  0.00    -0.267 OA
BRANCH  41  48
HETATM   48  O5  UNL     1       3.053 -19.590 -28.836  1.00  0.00    -0.279 OA
ATOM     49  H5  UNL     1       2.456 -18.853 -28.890  1.00  0.00     0.245 HD
ENDBRANCH  41  48
ENDBRANCH  37  39
ENDBRANCH   1  37
TORSDOF 14
ENDMDL
MODEL 3
REMARK VINA RESULT: -9.367139809      2.187      3.057
REMARK  14 active torsions:
REMARK  status: ('A' for Active; 'I' for Inactive)
REMARK    1  A    between atoms: C2_2  and  N1_3 
REMARK    2  A    between atoms: C2_2  and  C16_37 
REMARK    3  A    between atoms: N1_3  and  N2_5 
REMARK    4  A    between atoms: N2_5  and  C3_7 
REMARK    5  A    between atoms: C3_7  and  N3_8 
REMARK    6  A    between atoms: C3_7  and  C11_24 
REMARK    7  A    between atoms: N3_8  and  N4_10 
REMARK    8  A    between atoms: N4_10  and  C4_12 
REMARK    9  A    between atoms: C4_12  and  C5_13 
REMARK   10  A    between atoms: C8_16  and  O1_17 
REMARK   11  A    between atoms: C9_19  and  N5_20 
REMARK   12  A    between atoms: C11_24  and  C12_26 
REMARK   13  A    between atoms: N6_28  and  O5_29 
REMARK   14  A    between atoms: C19_46  and  N11_47 
ROOT
HETATM    1  C3  UNL     1       2.905 -22.826 -31.444  1.00  0.00     0.187 C 
ENDROOT
BRANCH   1   2
HETATM    2  N2  UNL     1       3.639 -23.541 -32.270  1.00  0.00    -0.281 N 
ATOM      3  H2  UNL     1       3.807 -23.159 -33.201  1.00  0.00     0.188 HD
BRANCH   2   4
HETATM    4  N1  UNL     1       4.191 -24.757 -31.978  1.00  0.00    -0.301 N 
ATOM      5  H1  UNL     1       3.613 -25.490 -31.567  1.00  0.00     0.186 HD
BRANCH   4   6
HETATM    6  C2  UNL     1       5.462 -24.992 -32.222  1.00  0.00     0.053 C 
HETATM    7  C1  UNL     1       5.803 -25.572 -33.529  1.00  0.00     0.072 C 
BRANCH   6   8
HETATM    8  C16 UNL     1       6.437 -24.660 -31.192  1.00  0.00     0.115 A 
HETATM    9  N8  UNL     1       6.954 -23.391 -31.137  1.00  0.00    -0.294 N 
HETATM   10  N9  UNL     1       7.838 -23.057 -30.222  1.00  0.00    -0.289 N 
ATOM     11  H8  UNL     1       6.649 -22.695 -31.817  1.00  0.00     0.187 HD
HETATM   12  C17 UNL     1       8.272 -23.954 -29.296  1.00  0.00     0.093 A 
ATOM     13  H9  UNL     1       8.204 -22.105 -30.205  1.00  0.00     0.188 HD
HETATM   14  C18 UNL     1       9.280 -23.478 -28.297  1.00  0.00     0.090 C 
HETATM   15  N10 UNL     1       7.796 -25.197 -29.316  1.00  0.00    -0.330 N 
HETATM   16  C19 UNL     1       6.872 -25.559 -30.266  1.00  0.00     0.131 A 
ATOM     17  H10 UNL     1       8.115 -25.879 -28.627  1.00  0.00     0.168 HD
BRANCH  16  18
HETATM   18  N11 UNL     1       6.472 -26.718 -30.230  1.00  0.00    -0.383 N 
ATOM     19 2H11 UNL     1       5.564 -26.902 -30.656  1.00  0.00     0.157 HD
ATOM     20 1H11 UNL     1       7.007 -27.473 -29.799  1.00  0.00     0.157 HD
ENDBRANCH  16  18
ENDBRANCH   6   8
ENDBRANCH   4   6
ENDBRANCH   2   4
ENDBRANCH   1   2
BRANCH   1  21
HETATM   21  N3  UNL     1       2.241 -21.714 -31.990  1.00  0.00    -0.281 N 
ATOM     22  H3  UNL     1       2.546 -21.344 -32.890  1.00  0.00     0.188 HD
BRANCH  21  23
HETATM   23  N4  UNL     1       1.176 -21.105 -31.331  1.00  0.00    -0.309 N 
ATOM     24  H4  UNL     1       1.365 -20.442 -30.580  1.00  0.00     0.186 HD
BRANCH  23  25
HETATM   25  C4  UNL     1      -0.036 -21.365 -31.653  1.00  0.00     0.118 C 
BRANCH  25  26
HETATM   26  C5  UNL     1      -1.052 -20.409 -31.236  1.00  0.00    -0.017 A 
HETATM   27  C6  UNL     1      -2.030 -20.052 -32.135  1.00  0.00     0.016 A 
HETATM   28  C7  UNL     1      -3.005 -19.157 -31.777  1.00  0.00     0.040 A 
HETATM   29  C8  UNL     1      -3.043 -18.594 -30.532  1.00  0.00     0.098 A 
HETATM   30  C9  UNL     1      -2.059 -18.948 -29.610  1.00  0.00     0.136 A 
HETATM   31  C10 UNL     1      -1.078 -19.851 -29.980  1.00  0.00     0.052 A 
BRANCH  29  32
HETATM   32  O1  UNL     1      -4.010 -17.692 -30.141  1.00  0.00    -0.358 OA
ATOM     33  H1  UNL     1      -4.645 -17.874 -29.459  1.00  0.00     0.217 HD
ENDBRANCH  29  32
BRANCH  30  34
HETATM   34  N5  UNL     1      -2.040 -18.399 -28.296  1.00  0.00    -0.113 N 
HETATM   35  O2  UNL     1      -2.348 -17.208 -28.047  1.00  0.00    -0.532 OA
HETATM   36  O3  UNL     1      -1.674 -19.176 -27.208  1.00  0.00    -0.532 OA
ENDBRANCH  30  34
ENDBRANCH  25  26
ENDBRANCH  23  25
ENDBRANCH  21  23
ENDBRANCH   1  21
BRANCH   1  37
HETATM   37  C11 UNL     1       2.806 -23.224 -30.077  1.00  0.00     0.235 C 
HETATM   38  O4  UNL     1       1.821 -24.025 -29.813  1.00  0.00    -0.283 OA
BRANCH  37  39
HETATM   39  C12 UNL     1       3.643 -22.855 -28.972  1.00  0.00     0.104 A 
HETATM   40  C13 UNL     1       4.528 -23.666 -28.327  1.00  0.00     0.149 A 
HETATM   41  N6  UNL     1       5.263 -23.220 -27.265  1.00  0.00    -0.183 N 
HETATM   42  C14 UNL     1       5.147 -21.970 -26.809  1.00  0.00     0.353 A 
HETATM   43  O6  UNL     1       5.825 -21.563 -25.831  1.00  0.00    -0.244 OA
HETATM   44  N7  UNL     1       4.287 -21.133 -27.411  1.00  0.00    -0.273 N 
HETATM   45  C15 UNL     1       3.559 -21.549 -28.450  1.00  0.00     0.265 A 
ATOM     46  H7  UNL     1       4.188 -20.177 -27.072  1.00  0.00     0.173 HD
HETATM   47  O7  UNL     1       2.763 -20.744 -28.992  1.00  0.00    -0.267 OA
BRANCH  41  48
HETATM   48  O5  UNL     1       6.154 -24.054 -26.625  1.00  0.00    -0.279 OA
ATOM     49  H5  UNL     1       6.142 -24.144 -25.680  1.00  0.00     0.245 HD
ENDBRANCH  41  48
ENDBRANCH  37  39
ENDBRANCH   1  37
TORSDOF 14
ENDMDL
MODEL 4
REMARK VINA RESULT: -9.260335129      1.677      2.165
REMARK  14 active torsions:
REMARK  status: ('A' for Active; 'I' for Inactive)
REMARK    1  A    between atoms: C2_2  and  N1_3 
REMARK    2  A    between atoms: C2_2  and  C16_37 
REMARK    3  A    between atoms: N1_3  and  N2_5 
REMARK    4  A    between atoms: N2_5  and  C3_7 
REMARK    5  A    between atoms: C3_7  and  N3_8 
REMARK    6  A    between atoms: C3_7  and  C11_24 
REMARK    7  A    between atoms: N3_8  and  N4_10 
REMARK    8  A    between atoms: N4_10  and  C4_12 
REMARK    9  A    between atoms: C4_12  and  C5_13 
REMARK   10  A    between atoms: C8_16  and  O1_17 
REMARK   11  A    between atoms: C9_19  and  N5_20 
REMARK   12  A    between atoms: C11_24  and  C12_26 
REMARK   13  A    between atoms: N6_28  and  O5_29 
REMARK   14  A    between atoms: C19_46  and  N11_47 
ROOT
HETATM    1  C3  UNL     1       1.704 -21.452 -32.629  1.00  0.00     0.187 C 
ENDROOT
BRANCH   1   2
HETATM    2  N2  UNL     1       2.753 -21.687 -33.388  1.00  0.00    -0.281 N 
ATOM      3  H2  UNL     1       3.559 -21.071 -33.281  1.00  0.00     0.188 HD
BRANCH   2   4
HETATM    4  N1  UNL     1       2.846 -22.693 -34.310  1.00  0.00    -0.301 N 
ATOM      5  H1  UNL     1       2.860 -22.466 -35.305  1.00  0.00     0.186 HD
BRANCH   4   6
HETATM    6  C2  UNL     1       2.917 -23.949 -33.927  1.00  0.00     0.053 C 
HETATM    7  C1  UNL     1       1.793 -24.827 -34.281  1.00  0.00     0.072 C 
BRANCH   6   8
HETATM    8  C16 UNL     1       4.096 -24.381 -33.189  1.00  0.00     0.115 A 
HETATM    9  N8  UNL     1       4.024 -24.521 -31.827  1.00  0.00    -0.294 N 
HETATM   10  N9  UNL     1       5.069 -24.907 -31.128  1.00  0.00    -0.289 N 
ATOM     11  H8  UNL     1       3.146 -24.322 -31.347  1.00  0.00     0.187 HD
HETATM   12  C17 UNL     1       6.260 -25.182 -31.727  1.00  0.00     0.093 A 
ATOM     13  H9  UNL     1       4.986 -25.003 -30.116  1.00  0.00     0.188 HD
HETATM   14  C18 UNL     1       7.390 -25.613 -30.845  1.00  0.00     0.090 C 
HETATM   15  N10 UNL     1       6.372 -25.057 -33.048  1.00  0.00    -0.330 N 
HETATM   16  C19 UNL     1       5.288 -24.655 -33.790  1.00  0.00     0.131 A 
ATOM     17  H10 UNL     1       7.260 -25.259 -33.507  1.00  0.00     0.168 HD
BRANCH  16  18
HETATM   18  N11 UNL     1       5.455 -24.560 -35.001  1.00  0.00    -0.383 N 
ATOM     19 2H11 UNL     1       5.055 -23.739 -35.455  1.00  0.00     0.157 HD
ATOM     20 1H11 UNL     1       5.966 -25.258 -35.543  1.00  0.00     0.157 HD
ENDBRANCH  16  18
ENDBRANCH   6   8
ENDBRANCH   4   6
ENDBRANCH   2   4
ENDBRANCH   1   2
BRANCH   1  21
HETATM   21  N3  UNL     1       0.598 -20.845 -33.248  1.00  0.00    -0.281 N 
ATOM     22  H3  UNL     1       0.662 -19.868 -33.534  1.00  0.00     0.188 HD
BRANCH  21  23
HETATM   23  N4  UNL     1      -0.582 -21.544 -33.480  1.00  0.00    -0.309 N 
ATOM     24  H4  UNL     1      -0.800 -21.862 -34.425  1.00  0.00     0.186 HD
BRANCH  23  25
HETATM   25  C4  UNL     1      -1.401 -21.796 -32.528  1.00  0.00     0.118 C 
BRANCH  25  26
HETATM   26  C5  UNL     1      -1.998 -20.656 -31.847  1.00  0.00    -0.017 A 
HETATM   27  C6  UNL     1      -2.893 -19.872 -32.535  1.00  0.00     0.016 A 
HETATM   28  C7  UNL     1      -3.477 -18.792 -31.925  1.00  0.00     0.040 A 
HETATM   29  C8  UNL     1      -3.198 -18.458 -30.629  1.00  0.00     0.098 A 
HETATM   30  C9  UNL     1      -2.292 -19.246 -29.919  1.00  0.00     0.136 A 
HETATM   31  C10 UNL     1      -1.707 -20.334 -30.543  1.00  0.00     0.052 A 
BRANCH  29  32
HETATM   32  O1  UNL     1      -3.769 -17.379 -29.988  1.00  0.00    -0.358 OA
ATOM     33  H1  UNL     1      -3.273 -16.616 -29.715  1.00  0.00     0.217 HD
ENDBRANCH  29  32
BRANCH  30  34
HETATM   34  N5  UNL     1      -1.957 -18.954 -28.567  1.00  0.00    -0.113 N 
HETATM   35  O2  UNL     1      -1.991 -17.795 -28.086  1.00  0.00    -0.532 OA
HETATM   36  O3  UNL     1      -1.570 -19.964 -27.698  1.00  0.00    -0.532 OA
ENDBRANCH  30  34
ENDBRANCH  25  26
ENDBRANCH  23  25
ENDBRANCH  21  23
ENDBRANCH   1  21
BRANCH   1  37
HETATM   37  C11 UNL     1       1.738 -21.841 -31.256  1.00  0.00     0.235 C 
HETATM   38  O4  UNL     1       1.332 -23.050 -31.023  1.00  0.00    -0.283 OA
BRANCH  37  39
HETATM   39  C12 UNL     1       2.152 -21.075 -30.116  1.00  0.00     0.104 A 
HETATM   40  C13 UNL     1       1.425 -20.111 -29.485  1.00  0.00     0.149 A 
HETATM   41  N6  UNL     1       1.924 -19.421 -28.417  1.00  0.00    -0.183 N 
HETATM   42  C14 UNL     1       3.150 -19.659 -27.942  1.00  0.00     0.353 A 
HETATM   43  O6  UNL     1       3.607 -19.023 -26.958  1.00  0.00    -0.244 OA
HETATM   44  N7  UNL     1       3.906 -20.600 -28.530  1.00  0.00    -0.273 N 
HETATM   45  C15 UNL     1       3.437 -21.285 -29.576  1.00  0.00     0.265 A 
ATOM     46  H7  UNL     1       4.844 -20.791 -28.177  1.00  0.00     0.173 HD
HETATM   47  O7  UNL     1       4.168 -22.158 -30.104  1.00  0.00    -0.267 OA
BRANCH  41  48
HETATM   48  O5  UNL     1       1.173 -18.451 -27.791  1.00  0.00    -0.279 OA
ATOM     49  H5  UNL     1       1.592 -17.712 -27.366  1.00  0.00     0.245 HD
ENDBRANCH  41  48
ENDBRANCH  37  39
ENDBRANCH   1  37
TORSDOF 14
ENDMDL
MODEL 5
REMARK VINA RESULT: -9.148335265      1.961      3.842
REMARK  14 active torsions:
REMARK  status: ('A' for Active; 'I' for Inactive)
REMARK    1  A    between atoms: C2_2  and  N1_3 
REMARK    2  A    between atoms: C2_2  and  C16_37 
REMARK    3  A    between atoms: N1_3  and  N2_5 
REMARK    4  A    between atoms: N2_5  and  C3_7 
REMARK    5  A    between atoms: C3_7  and  N3_8 
REMARK    6  A    between atoms: C3_7  and  C11_24 
REMARK    7  A    between atoms: N3_8  and  N4_10 
REMARK    8  A    between atoms: N4_10  and  C4_12 
REMARK    9  A    between atoms: C4_12  and  C5_13 
REMARK   10  A    between atoms: C8_16  and  O1_17 
REMARK   11  A    between atoms: C9_19  and  N5_20 
REMARK   12  A    between atoms: C11_24  and  C12_26 
REMARK   13  A    between atoms: N6_28  and  O5_29 
REMARK   14  A    between atoms: C19_46  and  N11_47 
ROOT
HETATM    1  C3  UNL     1       2.673 -23.477 -30.518  1.00  0.00     0.187 C 
ENDROOT
BRANCH   1   2
HETATM    2  N2  UNL     1       2.972 -24.479 -31.317  1.00  0.00    -0.281 N 
ATOM      3  H2  UNL     1       3.685 -25.136 -31.000  1.00  0.00     0.188 HD
BRANCH   2   4
HETATM    4  N1  UNL     1       2.402 -24.708 -32.538  1.00  0.00    -0.301 N 
ATOM      5  H1  UNL     1       2.000 -25.622 -32.745  1.00  0.00     0.186 HD
BRANCH   4   6
HETATM    6  C2  UNL     1       2.365 -23.759 -33.449  1.00  0.00     0.053 C 
HETATM    7  C1  UNL     1       3.523 -23.641 -34.347  1.00  0.00     0.072 C 
BRANCH   6   8
HETATM    8  C16 UNL     1       1.190 -22.902 -33.507  1.00  0.00     0.115 A 
HETATM    9  N8  UNL     1      -0.026 -23.446 -33.833  1.00  0.00    -0.294 N 
HETATM   10  N9  UNL     1      -1.108 -22.701 -33.897  1.00  0.00    -0.289 N 
ATOM     11  H8  UNL     1      -0.093 -24.444 -34.029  1.00  0.00     0.187 HD
HETATM   12  C17 UNL     1      -1.064 -21.364 -33.644  1.00  0.00     0.093 A 
ATOM     13  H9  UNL     1      -1.999 -23.133 -34.142  1.00  0.00     0.188 HD
HETATM   14  C18 UNL     1      -2.349 -20.603 -33.744  1.00  0.00     0.090 C 
HETATM   15  N10 UNL     1       0.097 -20.797 -33.325  1.00  0.00    -0.330 N 
HETATM   16  C19 UNL     1       1.235 -21.563 -33.254  1.00  0.00     0.131 A 
ATOM     17  H10 UNL     1       0.142 -19.796 -33.134  1.00  0.00     0.168 HD
BRANCH  16  18
HETATM   18  N11 UNL     1       2.272 -20.981 -32.955  1.00  0.00    -0.383 N 
ATOM     19 2H11 UNL     1       2.279 -19.969 -33.075  1.00  0.00     0.157 HD
ATOM     20 1H11 UNL     1       3.096 -21.470 -32.603  1.00  0.00     0.157 HD
ENDBRANCH  16  18
ENDBRANCH   6   8
ENDBRANCH   4   6
ENDBRANCH   2   4
ENDBRANCH   1   2
BRANCH   1  21
HETATM   21  N3  UNL     1       1.387 -23.484 -29.950  1.00  0.00    -0.281 N 
ATOM     22  H3  UNL     1       0.926 -24.376 -29.772  1.00  0.00     0.188 HD
BRANCH  21  23
HETATM   23  N4  UNL     1       0.728 -22.302 -29.624  1.00  0.00    -0.309 N 
ATOM     24  H4  UNL     1       1.132 -21.678 -28.926  1.00  0.00     0.186 HD
BRANCH  23  25
HETATM   25  C4  UNL     1      -0.379 -21.985 -30.185  1.00  0.00     0.118 C 
BRANCH  25  26
HETATM   26  C5  UNL     1      -1.015 -20.751 -29.749  1.00  0.00    -0.017 A 
HETATM   27  C6  UNL     1      -2.195 -20.371 -30.344  1.00  0.00     0.016 A 
HETATM   28  C7  UNL     1      -2.824 -19.215 -29.957  1.00  0.00     0.040 A 
HETATM   29  C8  UNL     1      -2.311 -18.409 -28.980  1.00  0.00     0.098 A 
HETATM   30  C9  UNL     1      -1.115 -18.782 -28.367  1.00  0.00     0.136 A 
HETATM   31  C10 UNL     1      -0.487 -19.950 -28.765  1.00  0.00     0.052 A 
BRANCH  29  32
HETATM   32  O1  UNL     1      -2.919 -17.242 -28.569  1.00  0.00    -0.358 OA
ATOM     33  H1  UNL     1      -3.194 -17.087 -27.672  1.00  0.00     0.217 HD
ENDBRANCH  29  32
BRANCH  30  34
HETATM   34  N5  UNL     1      -0.527 -17.988 -27.343  1.00  0.00    -0.113 N 
HETATM   35  O2  UNL     1      -1.191 -17.219 -26.606  1.00  0.00    -0.532 OA
HETATM   36  O3  UNL     1       0.839 -18.032 -27.107  1.00  0.00    -0.532 OA
ENDBRANCH  30  34
ENDBRANCH  25  26
ENDBRANCH  23  25
ENDBRANCH  21  23
ENDBRANCH   1  21
BRANCH   1  37
HETATM   37  C11 UNL     1       3.655 -22.475 -30.258  1.00  0.00     0.235 C 
HETATM   38  O4  UNL     1       4.553 -22.341 -31.185  1.00  0.00    -0.283 OA
BRANCH  37  39
HETATM   39  C12 UNL     1       3.779 -21.612 -29.120  1.00  0.00     0.104 A 
HETATM   40  C13 UNL     1       4.396 -21.914 -27.943  1.00  0.00     0.149 A 
HETATM   41  N6  UNL     1       4.437 -21.024 -26.907  1.00  0.00    -0.183 N 
HETATM   42  C14 UNL     1       3.873 -19.817 -26.999  1.00  0.00     0.353 A 
HETATM   43  O6  UNL     1       3.912 -19.000 -26.044  1.00  0.00    -0.244 OA
HETATM   44  N7  UNL     1       3.251 -19.472 -28.139  1.00  0.00    -0.273 N 
HETATM   45  C15 UNL     1       3.200 -20.328 -29.163  1.00  0.00     0.265 A 
ATOM     46  H7  UNL     1       2.817 -18.554 -28.222  1.00  0.00     0.173 HD
HETATM   47  O7  UNL     1       2.612 -19.977 -30.215  1.00  0.00    -0.267 OA
BRANCH  41  48
HETATM   48  O5  UNL     1       5.066 -21.347 -25.725  1.00  0.00    -0.279 OA
ATOM     49  H5  UNL     1       4.629 -21.881 -25.073  1.00  0.00     0.245 HD
ENDBRANCH  41  48
ENDBRANCH  37  39
ENDBRANCH   1  37
TORSDOF 14
ENDMDL
