MODEL 1
REMARK VINA RESULT: -9.084610298      0.000      0.000
REMARK  11 active torsions:
REMARK  status: ('A' for Active; 'I' for Inactive)
REMARK    1  A    between atoms: C4_4  and  C5_5 
REMARK    2  A    between atoms: C5_5  and  O1_6 
REMARK    3  A    between atoms: C5_5  and  C35_45 
REMARK    4  A    between atoms: O1_6  and  C6_7 
REMARK    5  A    between atoms: C9_10  and  C11_12 
REMARK    6  A    between atoms: C15_16  and  O2_17 
REMARK    7  A    between atoms: O2_17  and  C16_18 
REMARK    8  A    between atoms: C18_20  and  O3_21 
REMARK    9  A    between atoms: C19_23  and  O4_24 
REMARK   10  A    between atoms: C24_31  and  C32_41 
REMARK   11  A    between atoms: C29_36  and  O6_37 
ROOT
HETATM    1  C11 UNL     1      25.607   2.964  37.350  1.00  0.00     0.024 C 
HETATM    2  C12 UNL     1      27.021   2.538  37.697  1.00  0.00     0.013 C 
HETATM    3  C13 UNL     1      27.530   1.428  36.832  1.00  0.00    -0.002 C 
HETATM    4  C14 UNL     1      29.011   1.320  36.860  1.00  0.00     0.037 C 
HETATM    5  C15 UNL     1      29.774   2.180  35.914  1.00  0.00     0.125 C 
HETATM    6  C22 UNL     1      29.005   3.052  34.992  1.00  0.00     0.038 C 
HETATM    7  C23 UNL     1      27.607   2.678  34.672  1.00  0.00     0.010 C 
HETATM    8  C24 UNL     1      26.652   3.856  34.548  1.00  0.00    -0.014 C 
HETATM    9  C25 UNL     1      27.344   4.700  33.445  1.00  0.00     0.021 C 
HETATM   10  C26 UNL     1      25.449   3.313  33.855  1.00  0.00    -0.020 C 
HETATM   11  C27 UNL     1      24.913   2.160  34.222  1.00  0.00    -0.022 C 
HETATM   12  C28 UNL     1      25.556   1.435  35.347  1.00  0.00     0.046 C 
HETATM   13  C29 UNL     1      24.956   1.826  36.680  1.00  0.00     0.131 C 
HETATM   14  C30 UNL     1      27.038   1.514  35.399  1.00  0.00    -0.026 C 
HETATM   15  C31 UNL     1      27.590   0.233  34.744  1.00  0.00     0.016 C 
ENDROOT
BRANCH   5  16
HETATM   16  O2  UNL     1      30.603   2.992  36.717  1.00  0.00    -0.356 OA
BRANCH  16  17
HETATM   17  C16 UNL     1      31.102   2.340  37.833  1.00  0.00     0.263 C 
HETATM   18  C17 UNL     1      32.482   1.844  37.497  1.00  0.00     0.095 C 
HETATM   19  C18 UNL     1      33.034   1.106  38.669  1.00  0.00     0.154 C 
HETATM   20  C19 UNL     1      32.594   1.694  39.989  1.00  0.00     0.175 C 
HETATM   21  C20 UNL     1      32.017   3.062  39.855  1.00  0.00     0.151 C 
HETATM   22  C21 UNL     1      33.098   4.110  39.719  1.00  0.00     0.042 C 
HETATM   23  O5  UNL     1      31.077   3.243  38.890  1.00  0.00    -0.354 OA
BRANCH  19  24
HETATM   24  O3  UNL     1      32.681  -0.248  38.677  1.00  0.00    -0.393 OA
ATOM     25  H3  UNL     1      32.023  -0.455  39.331  1.00  0.00     0.210 HD
ENDBRANCH  19  24
BRANCH  20  26
HETATM   26  O4  UNL     1      33.732   1.777  40.801  1.00  0.00    -0.390 OA
ATOM     27  H4  UNL     1      33.649   2.572  41.315  1.00  0.00     0.210 HD
ENDBRANCH  20  26
ENDBRANCH  16  17
ENDBRANCH   5  16
BRANCH   8  28
HETATM   28  C32 UNL     1      26.449   4.707  35.702  1.00  0.00     0.040 C 
HETATM   29  C9  UNL     1      25.130   5.330  35.994  1.00  0.00    -0.029 C 
HETATM   30  C8  UNL     1      24.874   6.676  35.399  1.00  0.00     0.013 C 
HETATM   31  C10 UNL     1      25.226   5.667  37.518  1.00  0.00     0.016 C 
HETATM   32  C7  UNL     1      25.981   7.675  35.525  1.00  0.00     0.037 C 
HETATM   33  C6  UNL     1      27.284   7.034  35.022  1.00  0.00     0.154 C 
HETATM   34  C33 UNL     1      27.469   5.799  35.831  1.00  0.00    -0.018 C 
HETATM   35  C34 UNL     1      28.526   5.755  36.624  1.00  0.00     0.194 C 
HETATM   36  F1  UNL     1      28.802   4.674  37.417  1.00  0.00    -0.219 F 
BRANCH  33  37
HETATM   37  O1  UNL     1      28.323   7.915  35.101  1.00  0.00    -0.372 OA
BRANCH  37  38
HETATM   38  C5  UNL     1      28.000   9.134  35.696  1.00  0.00     0.148 C 
BRANCH  38  39
HETATM   39  C4  UNL     1      28.850   9.469  36.835  1.00  0.00     0.007 C 
HETATM   40  C2  UNL     1      28.632   9.267  38.114  1.00  0.00    -0.089 C 
HETATM   41  C1  UNL     1      27.376   8.617  38.553  1.00  0.00     0.042 C 
HETATM   42  C3  UNL     1      29.607   9.651  39.179  1.00  0.00     0.042 C 
ENDBRANCH  38  39
BRANCH  38  43
HETATM   43  C35 UNL     1      28.081  10.251  34.644  1.00  0.00     0.010 C 
HETATM   44  C36 UNL     1      28.627  11.495  35.260  1.00  0.00     0.012 C 
HETATM   45  C37 UNL     1      28.848   9.794  33.429  1.00  0.00     0.012 C 
ENDBRANCH  38  43
ENDBRANCH  37  38
ENDBRANCH  33  37
ENDBRANCH   8  28
BRANCH  13  46
HETATM   46  O6  UNL     1      23.572   1.827  36.629  1.00  0.00    -0.394 OA
ATOM     47  H6  UNL     1      23.112   1.295  37.268  1.00  0.00     0.210 HD
ENDBRANCH  13  46
TORSDOF 11
ENDMDL
MODEL 2
REMARK VINA RESULT: -9.074069992      2.315      6.227
REMARK  11 active torsions:
REMARK  status: ('A' for Active; 'I' for Inactive)
REMARK    1  A    between atoms: C4_4  and  C5_5 
REMARK    2  A    between atoms: C5_5  and  O1_6 
REMARK    3  A    between atoms: C5_5  and  C35_45 
REMARK    4  A    between atoms: O1_6  and  C6_7 
REMARK    5  A    between atoms: C9_10  and  C11_12 
REMARK    6  A    between atoms: C15_16  and  O2_17 
REMARK    7  A    between atoms: O2_17  and  C16_18 
REMARK    8  A    between atoms: C18_20  and  O3_21 
REMARK    9  A    between atoms: C19_23  and  O4_24 
REMARK   10  A    between atoms: C24_31  and  C32_41 
REMARK   11  A    between atoms: C29_36  and  O6_37 
ROOT
HETATM    1  C11 UNL     1      28.833   1.967  35.906  1.00  0.00     0.024 C 
HETATM    2  C12 UNL     1      28.866   2.942  34.745  1.00  0.00     0.013 C 
HETATM    3  C13 UNL     1      27.535   3.115  34.084  1.00  0.00    -0.002 C 
HETATM    4  C14 UNL     1      27.460   4.359  33.276  1.00  0.00     0.037 C 
HETATM    5  C15 UNL     1      27.081   5.611  33.986  1.00  0.00     0.125 C 
HETATM    6  C22 UNL     1      26.772   5.523  35.434  1.00  0.00     0.038 C 
HETATM    7  C23 UNL     1      26.345   4.214  35.984  1.00  0.00     0.010 C 
HETATM    8  C24 UNL     1      26.880   3.908  37.374  1.00  0.00    -0.014 C 
HETATM    9  C25 UNL     1      26.361   5.127  38.181  1.00  0.00     0.021 C 
HETATM   10  C26 UNL     1      26.041   2.785  37.880  1.00  0.00    -0.020 C 
HETATM   11  C27 UNL     1      25.767   1.740  37.114  1.00  0.00    -0.022 C 
HETATM   12  C28 UNL     1      26.329   1.734  35.739  1.00  0.00     0.046 C 
HETATM   13  C29 UNL     1      27.687   1.068  35.694  1.00  0.00     0.131 C 
HETATM   14  C30 UNL     1      26.372   3.052  35.057  1.00  0.00    -0.026 C 
HETATM   15  C31 UNL     1      25.130   3.142  34.151  1.00  0.00     0.016 C 
ENDROOT
BRANCH   5  16
HETATM   16  O2  UNL     1      28.165   6.496  33.809  1.00  0.00    -0.356 OA
BRANCH  16  17
HETATM   17  C16 UNL     1      27.817   7.830  33.939  1.00  0.00     0.263 C 
HETATM   18  C17 UNL     1      29.043   8.584  34.377  1.00  0.00     0.095 C 
HETATM   19  C18 UNL     1      28.692  10.022  34.562  1.00  0.00     0.154 C 
HETATM   20  C19 UNL     1      27.655  10.501  33.573  1.00  0.00     0.175 C 
HETATM   21  C20 UNL     1      27.472   9.571  32.422  1.00  0.00     0.151 C 
HETATM   22  C21 UNL     1      28.568   9.736  31.393  1.00  0.00     0.042 C 
HETATM   23  O5  UNL     1      27.312   8.253  32.715  1.00  0.00    -0.354 OA
BRANCH  19  24
HETATM   24  O3  UNL     1      28.208  10.306  35.843  1.00  0.00    -0.393 OA
ATOM     25  H3  UNL     1      28.767  10.905  36.326  1.00  0.00     0.210 HD
ENDBRANCH  19  24
BRANCH  20  26
HETATM   26  O4  UNL     1      28.103  11.731  33.073  1.00  0.00    -0.390 OA
ATOM     27  H4  UNL     1      29.051  11.684  33.027  1.00  0.00     0.210 HD
ENDBRANCH  20  26
ENDBRANCH  16  17
ENDBRANCH   5  16
BRANCH   8  28
HETATM   28  C32 UNL     1      28.315   3.826  37.561  1.00  0.00     0.040 C 
HETATM   29  C9  UNL     1      28.930   2.824  38.473  1.00  0.00    -0.029 C 
HETATM   30  C8  UNL     1      29.126   3.239  39.894  1.00  0.00     0.013 C 
HETATM   31  C10 UNL     1      30.405   2.736  37.960  1.00  0.00     0.016 C 
HETATM   32  C7  UNL     1      29.714   4.599  40.111  1.00  0.00     0.037 C 
HETATM   33  C6  UNL     1      28.909   5.620  39.293  1.00  0.00     0.154 C 
HETATM   34  C33 UNL     1      28.956   5.143  37.884  1.00  0.00    -0.018 C 
HETATM   35  C34 UNL     1      29.576   5.915  37.009  1.00  0.00     0.194 C 
HETATM   36  F1  UNL     1      29.686   5.582  35.686  1.00  0.00    -0.219 F 
BRANCH  33  37
HETATM   37  O1  UNL     1      29.397   6.882  39.471  1.00  0.00    -0.372 OA
BRANCH  37  38
HETATM   38  C5  UNL     1      28.855   7.560  40.562  1.00  0.00     0.148 C 
BRANCH  38  39
HETATM   39  C4  UNL     1      29.704   8.638  41.058  1.00  0.00     0.007 C 
HETATM   40  C2  UNL     1      30.582   8.613  42.035  1.00  0.00    -0.089 C 
HETATM   41  C1  UNL     1      30.806   7.361  42.793  1.00  0.00     0.042 C 
HETATM   42  C3  UNL     1      31.400   9.801  42.427  1.00  0.00     0.042 C 
ENDBRANCH  38  39
BRANCH  38  43
HETATM   43  C35 UNL     1      27.477   8.121  40.179  1.00  0.00     0.010 C 
HETATM   44  C36 UNL     1      26.980   9.031  41.251  1.00  0.00     0.012 C 
HETATM   45  C37 UNL     1      27.516   8.762  38.815  1.00  0.00     0.012 C 
ENDBRANCH  38  43
ENDBRANCH  37  38
ENDBRANCH  33  37
ENDBRANCH   8  28
BRANCH  13  46
HETATM   46  O6  UNL     1      27.683  -0.131  36.387  1.00  0.00    -0.394 OA
ATOM     47  H6  UNL     1      26.915  -0.684  36.297  1.00  0.00     0.210 HD
ENDBRANCH  13  46
TORSDOF 11
ENDMDL
MODEL 3
REMARK VINA RESULT: -9.071490072      1.393      1.987
REMARK  11 active torsions:
REMARK  status: ('A' for Active; 'I' for Inactive)
REMARK    1  A    between atoms: C4_4  and  C5_5 
REMARK    2  A    between atoms: C5_5  and  O1_6 
REMARK    3  A    between atoms: C5_5  and  C35_45 
REMARK    4  A    between atoms: O1_6  and  C6_7 
REMARK    5  A    between atoms: C9_10  and  C11_12 
REMARK    6  A    between atoms: C15_16  and  O2_17 
REMARK    7  A    between atoms: O2_17  and  C16_18 
REMARK    8  A    between atoms: C18_20  and  O3_21 
REMARK    9  A    between atoms: C19_23  and  O4_24 
REMARK   10  A    between atoms: C24_31  and  C32_41 
REMARK   11  A    between atoms: C29_36  and  O6_37 
ROOT
HETATM    1  C11 UNL     1      25.797   2.828  37.234  1.00  0.00     0.024 C 
HETATM    2  C12 UNL     1      27.228   2.422  37.526  1.00  0.00     0.013 C 
HETATM    3  C13 UNL     1      27.747   1.376  36.590  1.00  0.00    -0.002 C 
HETATM    4  C14 UNL     1      29.230   1.308  36.580  1.00  0.00     0.037 C 
HETATM    5  C15 UNL     1      29.949   2.239  35.669  1.00  0.00     0.125 C 
HETATM    6  C22 UNL     1      29.137   3.140  34.814  1.00  0.00     0.038 C 
HETATM    7  C23 UNL     1      27.743   2.747  34.503  1.00  0.00     0.010 C 
HETATM    8  C24 UNL     1      26.754   3.903  34.465  1.00  0.00    -0.014 C 
HETATM    9  C25 UNL     1      27.399   4.826  33.397  1.00  0.00     0.021 C 
HETATM   10  C26 UNL     1      25.551   3.367  33.768  1.00  0.00    -0.020 C 
HETATM   11  C27 UNL     1      25.053   2.181  34.080  1.00  0.00    -0.022 C 
HETATM   12  C28 UNL     1      25.740   1.412  35.150  1.00  0.00     0.046 C 
HETATM   13  C29 UNL     1      25.161   1.712  36.515  1.00  0.00     0.131 C 
HETATM   14  C30 UNL     1      27.220   1.528  35.175  1.00  0.00    -0.026 C 
HETATM   15  C31 UNL     1      27.791   0.302  34.437  1.00  0.00     0.016 C 
ENDROOT
BRANCH   5  16
HETATM   16  O2  UNL     1      30.775   3.028  36.499  1.00  0.00    -0.356 OA
BRANCH  16  17
HETATM   17  C16 UNL     1      32.094   3.077  36.080  1.00  0.00     0.263 C 
HETATM   18  C17 UNL     1      32.965   3.099  37.306  1.00  0.00     0.095 C 
HETATM   19  C18 UNL     1      34.394   3.188  36.889  1.00  0.00     0.154 C 
HETATM   20  C19 UNL     1      34.675   2.438  35.607  1.00  0.00     0.175 C 
HETATM   21  C20 UNL     1      33.585   1.493  35.233  1.00  0.00     0.151 C 
HETATM   22  C21 UNL     1      33.662   0.211  36.031  1.00  0.00     0.042 C 
HETATM   23  O5  UNL     1      32.314   1.975  35.260  1.00  0.00    -0.354 OA
BRANCH  19  24
HETATM   24  O3  UNL     1      34.828   4.505  36.705  1.00  0.00    -0.393 OA
ATOM     25  H3  UNL     1      34.801   4.780  35.796  1.00  0.00     0.210 HD
ENDBRANCH  19  24
BRANCH  20  26
HETATM   26  O4  UNL     1      35.845   1.696  35.815  1.00  0.00    -0.390 OA
ATOM     27  H4  UNL     1      35.666   0.809  35.523  1.00  0.00     0.210 HD
ENDBRANCH  20  26
ENDBRANCH  16  17
ENDBRANCH   5  16
BRANCH   8  28
HETATM   28  C32 UNL     1      26.555   4.683  35.670  1.00  0.00     0.040 C 
HETATM   29  C9  UNL     1      25.231   5.268  36.014  1.00  0.00    -0.029 C 
HETATM   30  C8  UNL     1      24.949   6.643  35.503  1.00  0.00     0.013 C 
HETATM   31  C10 UNL     1      25.343   5.518  37.554  1.00  0.00     0.016 C 
HETATM   32  C7  UNL     1      26.044   7.649  35.673  1.00  0.00     0.037 C 
HETATM   33  C6  UNL     1      27.348   7.057  35.117  1.00  0.00     0.154 C 
HETATM   34  C33 UNL     1      27.562   5.780  35.850  1.00  0.00    -0.018 C 
HETATM   35  C34 UNL     1      28.629   5.705  36.626  1.00  0.00     0.194 C 
HETATM   36  F1  UNL     1      28.931   4.583  37.350  1.00  0.00    -0.219 F 
BRANCH  33  37
HETATM   37  O1  UNL     1      28.376   7.947  35.234  1.00  0.00    -0.372 OA
BRANCH  37  38
HETATM   38  C5  UNL     1      28.036   9.140  35.870  1.00  0.00     0.148 C 
BRANCH  38  39
HETATM   39  C4  UNL     1      28.888   9.455  37.012  1.00  0.00     0.007 C 
HETATM   40  C2  UNL     1      28.698   9.184  38.283  1.00  0.00    -0.089 C 
HETATM   41  C1  UNL     1      27.477   8.462  38.707  1.00  0.00     0.042 C 
HETATM   42  C3  UNL     1      29.673   9.557  39.352  1.00  0.00     0.042 C 
ENDBRANCH  38  39
BRANCH  38  43
HETATM   43  C35 UNL     1      28.086  10.291  34.853  1.00  0.00     0.010 C 
HETATM   44  C36 UNL     1      28.680  11.505  35.485  1.00  0.00     0.012 C 
HETATM   45  C37 UNL     1      28.788   9.864  33.590  1.00  0.00     0.012 C 
ENDBRANCH  38  43
ENDBRANCH  37  38
ENDBRANCH  33  37
ENDBRANCH   8  28
BRANCH  13  46
HETATM   46  O6  UNL     1      23.777   1.677  36.493  1.00  0.00    -0.394 OA
ATOM     47  H6  UNL     1      23.360   0.834  36.629  1.00  0.00     0.210 HD
ENDBRANCH  13  46
TORSDOF 11
ENDMDL
MODEL 4
REMARK VINA RESULT: -8.998315271      3.526      5.614
REMARK  11 active torsions:
REMARK  status: ('A' for Active; 'I' for Inactive)
REMARK    1  A    between atoms: C4_4  and  C5_5 
REMARK    2  A    between atoms: C5_5  and  O1_6 
REMARK    3  A    between atoms: C5_5  and  C35_45 
REMARK    4  A    between atoms: O1_6  and  C6_7 
REMARK    5  A    between atoms: C9_10  and  C11_12 
REMARK    6  A    between atoms: C15_16  and  O2_17 
REMARK    7  A    between atoms: O2_17  and  C16_18 
REMARK    8  A    between atoms: C18_20  and  O3_21 
REMARK    9  A    between atoms: C19_23  and  O4_24 
REMARK   10  A    between atoms: C24_31  and  C32_41 
REMARK   11  A    between atoms: C29_36  and  O6_37 
ROOT
HETATM    1  C11 UNL     1      27.406   2.558  40.329  1.00  0.00     0.024 C 
HETATM    2  C12 UNL     1      28.092   3.377  41.405  1.00  0.00     0.013 C 
HETATM    3  C13 UNL     1      29.565   3.127  41.485  1.00  0.00    -0.002 C 
HETATM    4  C14 UNL     1      30.288   4.214  42.194  1.00  0.00     0.037 C 
HETATM    5  C15 UNL     1      30.702   5.395  41.388  1.00  0.00     0.125 C 
HETATM    6  C22 UNL     1      30.398   5.387  39.935  1.00  0.00     0.038 C 
HETATM    7  C23 UNL     1      30.199   4.080  39.266  1.00  0.00     0.010 C 
HETATM    8  C24 UNL     1      29.112   4.075  38.202  1.00  0.00    -0.014 C 
HETATM    9  C25 UNL     1      29.605   5.198  37.251  1.00  0.00     0.021 C 
HETATM   10  C26 UNL     1      29.345   2.834  37.409  1.00  0.00    -0.020 C 
HETATM   11  C27 UNL     1      29.585   1.678  38.007  1.00  0.00    -0.022 C 
HETATM   12  C28 UNL     1      29.610   1.668  39.492  1.00  0.00     0.046 C 
HETATM   13  C29 UNL     1      28.244   1.376  40.073  1.00  0.00     0.131 C 
HETATM   14  C30 UNL     1      30.202   2.871  40.131  1.00  0.00    -0.026 C 
HETATM   15  C31 UNL     1      31.667   2.538  40.472  1.00  0.00     0.016 C 
ENDROOT
BRANCH   5  16
HETATM   16  O2  UNL     1      30.062   6.506  41.977  1.00  0.00    -0.356 OA
BRANCH  16  17
HETATM   17  C16 UNL     1      30.936   7.380  42.601  1.00  0.00     0.263 C 
HETATM   18  C17 UNL     1      30.390   8.772  42.435  1.00  0.00     0.095 C 
HETATM   19  C18 UNL     1      31.328   9.744  43.069  1.00  0.00     0.154 C 
HETATM   20  C19 UNL     1      31.996   9.188  44.305  1.00  0.00     0.175 C 
HETATM   21  C20 UNL     1      31.329   7.962  44.828  1.00  0.00     0.151 C 
HETATM   22  C21 UNL     1      30.086   8.300  45.620  1.00  0.00     0.042 C 
HETATM   23  O5  UNL     1      31.049   6.982  43.929  1.00  0.00    -0.354 OA
BRANCH  19  24
HETATM   24  O3  UNL     1      32.341  10.168  42.202  1.00  0.00    -0.393 OA
ATOM     25  H3  UNL     1      32.936  10.790  42.605  1.00  0.00     0.210 HD
ENDBRANCH  19  24
BRANCH  20  26
HETATM   26  O4  UNL     1      31.923  10.180  45.291  1.00  0.00    -0.390 OA
ATOM     27  H4  UNL     1      32.346   9.832  46.067  1.00  0.00     0.210 HD
ENDBRANCH  20  26
ENDBRANCH  16  17
ENDBRANCH   5  16
BRANCH   8  28
HETATM   28  C32 UNL     1      27.754   4.387  38.598  1.00  0.00     0.040 C 
HETATM   29  C9  UNL     1      26.586   3.662  38.030  1.00  0.00    -0.029 C 
HETATM   30  C8  UNL     1      25.977   4.231  36.790  1.00  0.00     0.013 C 
HETATM   31  C10 UNL     1      25.461   3.920  39.085  1.00  0.00     0.016 C 
HETATM   32  C7  UNL     1      25.748   5.710  36.786  1.00  0.00     0.037 C 
HETATM   33  C6  UNL     1      27.053   6.413  37.192  1.00  0.00     0.154 C 
HETATM   34  C33 UNL     1      27.424   5.848  38.517  1.00  0.00    -0.018 C 
HETATM   35  C34 UNL     1      27.428   6.680  39.544  1.00  0.00     0.194 C 
HETATM   36  F1  UNL     1      27.751   6.278  40.812  1.00  0.00    -0.219 F 
BRANCH  33  37
HETATM   37  O1  UNL     1      26.899   7.769  37.186  1.00  0.00    -0.372 OA
BRANCH  37  38
HETATM   38  C5  UNL     1      27.974   8.468  36.637  1.00  0.00     0.148 C 
BRANCH  38  39
HETATM   39  C4  UNL     1      27.734   8.927  35.273  1.00  0.00     0.007 C 
HETATM   40  C2  UNL     1      28.094   8.369  34.140  1.00  0.00    -0.089 C 
HETATM   41  C1  UNL     1      28.852   7.097  34.154  1.00  0.00     0.042 C 
HETATM   42  C3  UNL     1      27.763   8.949  32.803  1.00  0.00     0.042 C 
ENDBRANCH  38  39
BRANCH  38  43
HETATM   43  C35 UNL     1      28.312   9.668  37.536  1.00  0.00     0.010 C 
HETATM   44  C36 UNL     1      29.450   9.327  38.437  1.00  0.00     0.012 C 
HETATM   45  C37 UNL     1      28.546  10.909  36.713  1.00  0.00     0.012 C 
ENDBRANCH  38  43
ENDBRANCH  37  38
ENDBRANCH  33  37
ENDBRANCH   8  28
BRANCH  13  46
HETATM   46  O6  UNL     1      27.648   0.299  39.438  1.00  0.00    -0.394 OA
ATOM     47  H6  UNL     1      27.905   0.126  38.540  1.00  0.00     0.210 HD
ENDBRANCH  13  46
TORSDOF 11
ENDMDL
MODEL 5
REMARK VINA RESULT: -8.914287313      2.853      4.793
REMARK  11 active torsions:
REMARK  status: ('A' for Active; 'I' for Inactive)
REMARK    1  A    between atoms: C4_4  and  C5_5 
REMARK    2  A    between atoms: C5_5  and  O1_6 
REMARK    3  A    between atoms: C5_5  and  C35_45 
REMARK    4  A    between atoms: O1_6  and  C6_7 
REMARK    5  A    between atoms: C9_10  and  C11_12 
REMARK    6  A    between atoms: C15_16  and  O2_17 
REMARK    7  A    between atoms: O2_17  and  C16_18 
REMARK    8  A    between atoms: C18_20  and  O3_21 
REMARK    9  A    between atoms: C19_23  and  O4_24 
REMARK   10  A    between atoms: C24_31  and  C32_41 
REMARK   11  A    between atoms: C29_36  and  O6_37 
ROOT
HETATM    1  C11 UNL     1      26.089   3.045  38.937  1.00  0.00     0.024 C 
HETATM    2  C12 UNL     1      26.808   3.614  40.144  1.00  0.00     0.013 C 
HETATM    3  C13 UNL     1      28.175   3.039  40.341  1.00  0.00    -0.002 C 
HETATM    4  C14 UNL     1      29.028   3.886  41.213  1.00  0.00     0.037 C 
HETATM    5  C15 UNL     1      29.773   4.998  40.563  1.00  0.00     0.125 C 
HETATM    6  C22 UNL     1      29.641   5.159  39.094  1.00  0.00     0.038 C 
HETATM    7  C23 UNL     1      29.244   3.979  38.290  1.00  0.00     0.010 C 
HETATM    8  C24 UNL     1      28.309   4.290  37.131  1.00  0.00    -0.014 C 
HETATM    9  C25 UNL     1      29.134   5.340  36.340  1.00  0.00     0.021 C 
HETATM   10  C26 UNL     1      28.359   3.087  36.252  1.00  0.00    -0.020 C 
HETATM   11  C27 UNL     1      28.278   1.868  36.760  1.00  0.00    -0.022 C 
HETATM   12  C28 UNL     1      28.133   1.749  38.234  1.00  0.00     0.046 C 
HETATM   13  C29 UNL     1      26.679   1.727  38.653  1.00  0.00     0.131 C 
HETATM   14  C30 UNL     1      28.891   2.743  39.036  1.00  0.00    -0.026 C 
HETATM   15  C31 UNL     1      30.203   2.070  39.481  1.00  0.00     0.016 C 
ENDROOT
BRANCH   5  16
HETATM   16  O2  UNL     1      29.323   6.180  41.189  1.00  0.00    -0.356 OA
BRANCH  16  17
HETATM   17  C16 UNL     1      30.289   7.170  41.261  1.00  0.00     0.263 C 
HETATM   18  C17 UNL     1      29.582   8.495  41.357  1.00  0.00     0.095 C 
HETATM   19  C18 UNL     1      30.597   9.587  41.401  1.00  0.00     0.154 C 
HETATM   20  C19 UNL     1      31.851   9.189  42.144  1.00  0.00     0.175 C 
HETATM   21  C20 UNL     1      31.676   7.957  42.966  1.00  0.00     0.151 C 
HETATM   22  C21 UNL     1      30.968   8.254  44.268  1.00  0.00     0.042 C 
HETATM   23  O5  UNL     1      31.095   6.889  42.359  1.00  0.00    -0.354 OA
BRANCH  19  24
HETATM   24  O3  UNL     1      30.985  10.023  40.130  1.00  0.00    -0.393 OA
ATOM     25  H3  UNL     1      31.759   9.576  39.806  1.00  0.00     0.210 HD
ENDBRANCH  19  24
BRANCH  20  26
HETATM   26  O4  UNL     1      32.172  10.246  43.004  1.00  0.00    -0.390 OA
ATOM     27  H4  UNL     1      32.840  10.765  42.571  1.00  0.00     0.210 HD
ENDBRANCH  20  26
ENDBRANCH  16  17
ENDBRANCH   5  16
BRANCH   8  28
HETATM   28  C32 UNL     1      27.013   4.868  37.424  1.00  0.00     0.040 C 
HETATM   29  C9  UNL     1      25.793   4.479  36.667  1.00  0.00    -0.029 C 
HETATM   30  C8  UNL     1      25.476   5.276  35.444  1.00  0.00     0.013 C 
HETATM   31  C10 UNL     1      24.631   4.895  37.628  1.00  0.00     0.016 C 
HETATM   32  C7  UNL     1      25.575   6.763  35.581  1.00  0.00     0.037 C 
HETATM   33  C6  UNL     1      26.941   7.113  36.189  1.00  0.00     0.154 C 
HETATM   34  C33 UNL     1      27.019   6.367  37.474  1.00  0.00    -0.018 C 
HETATM   35  C34 UNL     1      27.078   7.085  38.582  1.00  0.00     0.194 C 
HETATM   36  F1  UNL     1      27.151   6.512  39.824  1.00  0.00    -0.219 F 
BRANCH  33  37
HETATM   37  O1  UNL     1      27.086   8.464  36.319  1.00  0.00    -0.372 OA
BRANCH  37  38
HETATM   38  C5  UNL     1      28.165   8.997  35.614  1.00  0.00     0.148 C 
BRANCH  38  39
HETATM   39  C4  UNL     1      27.830   9.395  34.250  1.00  0.00     0.007 C 
HETATM   40  C2  UNL     1      27.914   8.694  33.143  1.00  0.00    -0.089 C 
HETATM   41  C1  UNL     1      28.407   7.298  33.190  1.00  0.00     0.042 C 
HETATM   42  C3  UNL     1      27.518   9.230  31.805  1.00  0.00     0.042 C 
ENDBRANCH  38  39
BRANCH  38  43
HETATM   43  C35 UNL     1      28.728  10.204  36.382  1.00  0.00     0.010 C 
HETATM   44  C36 UNL     1      28.392  11.468  35.664  1.00  0.00     0.012 C 
HETATM   45  C37 UNL     1      28.273  10.189  37.819  1.00  0.00     0.012 C 
ENDBRANCH  38  43
ENDBRANCH  37  38
ENDBRANCH  33  37
ENDBRANCH   8  28
BRANCH  13  46
HETATM   46  O6  UNL     1      25.942   0.857  37.868  1.00  0.00    -0.394 OA
ATOM     47  H6  UNL     1      25.815  -0.026  38.196  1.00  0.00     0.210 HD
ENDBRANCH  13  46
TORSDOF 11
ENDMDL
