MODEL 1
REMARK VINA RESULT: -5.696863401      0.000      0.000
REMARK  5 active torsions:
REMARK  status: ('A' for Active; 'I' for Inactive)
REMARK    1  A    between atoms: C2_2  and  C3_3 
REMARK    2  A    between atoms: C3_3  and  C4_4 
REMARK    3  A    between atoms: C4_4  and  N1_5 
REMARK    4  A    between atoms: N1_5  and  C5_7 
REMARK    5  A    between atoms: C5_7  and  N2_9 
ROOT
HETATM    1  N1  UNL     1     -35.237   8.495  20.780  1.00  0.00    -0.364 N 
ATOM      2  H1  UNL     1     -35.964   9.124  20.438  1.00  0.00     0.162 HD
ENDROOT
BRANCH   1   3
HETATM    3  C4  UNL     1     -35.604   7.603  21.832  1.00  0.00     0.162 C 
BRANCH   3   4
HETATM    4  C3  UNL     1     -36.642   6.575  21.330  1.00  0.00     0.100 C 
HETATM    5  C10 UNL     1     -36.834   6.685  19.873  1.00  0.00     0.210 C 
HETATM    6  O1  UNL     1     -36.104   5.632  19.321  1.00  0.00    -0.364 OA
HETATM    7  C11 UNL     1     -35.519   4.944  20.381  1.00  0.00     0.339 C 
HETATM    8  O2  UNL     1     -36.140   5.321  21.544  1.00  0.00    -0.352 OA
BRANCH   4   9
HETATM    9  C2  UNL     1     -37.865   6.820  22.178  1.00  0.00     0.037 C 
HETATM   10  C1  UNL     1     -39.087   6.074  21.748  1.00  0.00     0.008 C 
ENDBRANCH   4   9
ENDBRANCH   3   4
ENDBRANCH   1   3
BRANCH   1  11
HETATM   11  C5  UNL     1     -34.002   8.593  20.181  1.00  0.00     0.169 C 
HETATM   12  S1  UNL     1     -34.004   8.952  18.551  1.00  0.00    -0.041 SA
BRANCH  11  13
HETATM   13  N2  UNL     1     -32.751   8.424  20.817  1.00  0.00    -0.358 N 
HETATM   14  C6  UNL     1     -31.930   7.258  20.882  1.00  0.00     0.125 C 
HETATM   15  C7  UNL     1     -30.638   7.654  21.596  1.00  0.00     0.021 C 
HETATM   16  C8  UNL     1     -30.643   9.149  21.502  1.00  0.00     0.021 C 
HETATM   17  C9  UNL     1     -32.083   9.525  21.561  1.00  0.00     0.125 C 
ENDBRANCH  11  13
ENDBRANCH   1  11
TORSDOF 5
ENDMDL
MODEL 2
REMARK VINA RESULT: -5.640036542      0.967      2.206
REMARK  5 active torsions:
REMARK  status: ('A' for Active; 'I' for Inactive)
REMARK    1  A    between atoms: C2_2  and  C3_3 
REMARK    2  A    between atoms: C3_3  and  C4_4 
REMARK    3  A    between atoms: C4_4  and  N1_5 
REMARK    4  A    between atoms: N1_5  and  C5_7 
REMARK    5  A    between atoms: C5_7  and  N2_9 
ROOT
HETATM    1  N1  UNL     1     -35.205   8.553  20.791  1.00  0.00    -0.364 N 
ATOM      2  H1  UNL     1     -35.299   8.628  21.804  1.00  0.00     0.162 HD
ENDROOT
BRANCH   1   3
HETATM    3  C4  UNL     1     -36.368   8.151  20.067  1.00  0.00     0.162 C 
BRANCH   3   4
HETATM    4  C3  UNL     1     -36.582   6.627  20.195  1.00  0.00     0.100 C 
HETATM    5  C10 UNL     1     -36.280   6.162  21.561  1.00  0.00     0.210 C 
HETATM    6  O1  UNL     1     -37.519   5.994  22.180  1.00  0.00    -0.364 OA
HETATM    7  C11 UNL     1     -38.491   6.335  21.242  1.00  0.00     0.339 C 
HETATM    8  O2  UNL     1     -37.910   6.364  20.000  1.00  0.00    -0.352 OA
BRANCH   4   9
HETATM    9  C2  UNL     1     -35.744   6.028  19.094  1.00  0.00     0.037 C 
HETATM   10  C1  UNL     1     -34.636   5.138  19.560  1.00  0.00     0.008 C 
ENDBRANCH   4   9
ENDBRANCH   3   4
ENDBRANCH   1   3
BRANCH   1  11
HETATM   11  C5  UNL     1     -33.970   8.850  20.261  1.00  0.00     0.169 C 
HETATM   12  S1  UNL     1     -33.972   9.578  18.759  1.00  0.00    -0.041 SA
BRANCH  11  13
HETATM   13  N2  UNL     1     -32.720   8.601  20.871  1.00  0.00    -0.358 N 
HETATM   14  C6  UNL     1     -31.957   7.394  20.889  1.00  0.00     0.125 C 
HETATM   15  C7  UNL     1     -30.636   7.705  21.593  1.00  0.00     0.021 C 
HETATM   16  C8  UNL     1     -30.568   9.200  21.541  1.00  0.00     0.021 C 
HETATM   17  C9  UNL     1     -31.987   9.645  21.635  1.00  0.00     0.125 C 
ENDBRANCH  11  13
ENDBRANCH   1  11
TORSDOF 5
ENDMDL
MODEL 3
REMARK VINA RESULT: -5.597275944      1.741      2.239
REMARK  5 active torsions:
REMARK  status: ('A' for Active; 'I' for Inactive)
REMARK    1  A    between atoms: C2_2  and  C3_3 
REMARK    2  A    between atoms: C3_3  and  C4_4 
REMARK    3  A    between atoms: C4_4  and  N1_5 
REMARK    4  A    between atoms: N1_5  and  C5_7 
REMARK    5  A    between atoms: C5_7  and  N2_9 
ROOT
HETATM    1  N1  UNL     1     -35.513   7.840  21.254  1.00  0.00    -0.364 N 
ATOM      2  H1  UNL     1     -35.864   8.694  20.820  1.00  0.00     0.162 HD
ENDROOT
BRANCH   1   3
HETATM    3  C4  UNL     1     -36.244   7.345  22.375  1.00  0.00     0.162 C 
BRANCH   3   4
HETATM    4  C3  UNL     1     -37.763   7.494  22.138  1.00  0.00     0.100 C 
HETATM    5  C10 UNL     1     -38.055   7.740  20.715  1.00  0.00     0.210 C 
HETATM    6  O1  UNL     1     -38.491   6.517  20.206  1.00  0.00    -0.364 OA
HETATM    7  C11 UNL     1     -38.461   5.606  21.259  1.00  0.00     0.339 C 
HETATM    8  O2  UNL     1     -38.361   6.301  22.437  1.00  0.00    -0.352 OA
BRANCH   4   9
HETATM    9  C2  UNL     1     -38.197   8.573  23.097  1.00  0.00     0.037 C 
HETATM   10  C1  UNL     1     -38.711   9.819  22.451  1.00  0.00     0.008 C 
ENDBRANCH   4   9
ENDBRANCH   3   4
ENDBRANCH   1   3
BRANCH   1  11
HETATM   11  C5  UNL     1     -34.383   7.283  20.699  1.00  0.00     0.169 C 
HETATM   12  S1  UNL     1     -34.620   5.918  19.767  1.00  0.00    -0.041 SA
BRANCH  11  13
HETATM   13  N2  UNL     1     -33.061   7.760  20.844  1.00  0.00    -0.358 N 
HETATM   14  C6  UNL     1     -32.613   9.091  21.098  1.00  0.00     0.125 C 
HETATM   15  C7  UNL     1     -31.095   9.032  21.272  1.00  0.00     0.021 C 
HETATM   16  C8  UNL     1     -30.841   7.579  21.532  1.00  0.00     0.021 C 
HETATM   17  C9  UNL     1     -31.878   6.866  20.735  1.00  0.00     0.125 C 
ENDBRANCH  11  13
ENDBRANCH   1  11
TORSDOF 5
ENDMDL
MODEL 4
REMARK VINA RESULT: -5.581824207      1.528      1.827
REMARK  5 active torsions:
REMARK  status: ('A' for Active; 'I' for Inactive)
REMARK    1  A    between atoms: C2_2  and  C3_3 
REMARK    2  A    between atoms: C3_3  and  C4_4 
REMARK    3  A    between atoms: C4_4  and  N1_5 
REMARK    4  A    between atoms: N1_5  and  C5_7 
REMARK    5  A    between atoms: C5_7  and  N2_9 
ROOT
HETATM    1  N1  UNL     1     -34.449   9.067  20.585  1.00  0.00    -0.364 N 
ATOM      2  H1  UNL     1     -35.058   9.185  21.394  1.00  0.00     0.162 HD
ENDROOT
BRANCH   1   3
HETATM    3  C4  UNL     1     -34.857   8.106  19.611  1.00  0.00     0.162 C 
BRANCH   3   4
HETATM    4  C3  UNL     1     -35.059   6.723  20.269  1.00  0.00     0.100 C 
HETATM    5  C10 UNL     1     -35.913   5.859  19.435  1.00  0.00     0.210 C 
HETATM    6  O1  UNL     1     -35.039   4.987  18.785  1.00  0.00    -0.364 OA
HETATM    7  C11 UNL     1     -33.752   5.313  19.208  1.00  0.00     0.339 C 
HETATM    8  O2  UNL     1     -33.845   6.097  20.329  1.00  0.00    -0.352 OA
BRANCH   4   9
HETATM    9  C2  UNL     1     -35.579   7.028  21.651  1.00  0.00     0.037 C 
HETATM   10  C1  UNL     1     -37.018   6.688  21.871  1.00  0.00     0.008 C 
ENDBRANCH   4   9
ENDBRANCH   3   4
ENDBRANCH   1   3
BRANCH   1  11
HETATM   11  C5  UNL     1     -33.317   9.849  20.542  1.00  0.00     0.169 C 
HETATM   12  S1  UNL     1     -33.455  11.294  19.718  1.00  0.00    -0.041 SA
BRANCH  11  13
HETATM   13  N2  UNL     1     -32.069   9.542  21.130  1.00  0.00    -0.358 N 
HETATM   14  C6  UNL     1     -31.302   8.343  21.027  1.00  0.00     0.125 C 
HETATM   15  C7  UNL     1     -29.985   8.584  21.767  1.00  0.00     0.021 C 
HETATM   16  C8  UNL     1     -29.925  10.076  21.873  1.00  0.00     0.021 C 
HETATM   17  C9  UNL     1     -31.346  10.503  22.004  1.00  0.00     0.125 C 
ENDBRANCH  11  13
ENDBRANCH   1  11
TORSDOF 5
ENDMDL
MODEL 5
REMARK VINA RESULT: -5.570019471      2.622      3.493
REMARK  5 active torsions:
REMARK  status: ('A' for Active; 'I' for Inactive)
REMARK    1  A    between atoms: C2_2  and  C3_3 
REMARK    2  A    between atoms: C3_3  and  C4_4 
REMARK    3  A    between atoms: C4_4  and  N1_5 
REMARK    4  A    between atoms: N1_5  and  C5_7 
REMARK    5  A    between atoms: C5_7  and  N2_9 
ROOT
HETATM    1  N1  UNL     1     -32.681   7.250  20.939  1.00  0.00    -0.364 N 
ATOM      2  H1  UNL     1     -33.481   7.451  21.540  1.00  0.00     0.162 HD
ENDROOT
BRANCH   1   3
HETATM    3  C4  UNL     1     -32.913   6.373  19.837  1.00  0.00     0.162 C 
BRANCH   3   4
HETATM    4  C3  UNL     1     -34.310   6.627  19.230  1.00  0.00     0.100 C 
HETATM    5  C10 UNL     1     -34.999   7.726  19.928  1.00  0.00     0.210 C 
HETATM    6  O1  UNL     1     -34.866   8.838  19.095  1.00  0.00    -0.364 OA
HETATM    7  C11 UNL     1     -34.146   8.423  17.977  1.00  0.00     0.339 C 
HETATM    8  O2  UNL     1     -34.145   7.052  17.941  1.00  0.00    -0.352 OA
BRANCH   4   9
HETATM    9  C2  UNL     1     -34.996   5.284  19.273  1.00  0.00     0.037 C 
HETATM   10  C1  UNL     1     -35.674   4.966  20.567  1.00  0.00     0.008 C 
ENDBRANCH   4   9
ENDBRANCH   3   4
ENDBRANCH   1   3
BRANCH   1  11
HETATM   11  C5  UNL     1     -31.489   7.853  21.272  1.00  0.00     0.169 C 
HETATM   12  S1  UNL     1     -30.286   6.840  21.830  1.00  0.00    -0.041 SA
BRANCH  11  13
HETATM   13  N2  UNL     1     -31.199   9.233  21.181  1.00  0.00    -0.358 N 
HETATM   14  C6  UNL     1     -31.952  10.266  20.545  1.00  0.00     0.125 C 
HETATM   15  C7  UNL     1     -31.243  11.589  20.840  1.00  0.00     0.021 C 
HETATM   16  C8  UNL     1     -30.361  11.248  22.002  1.00  0.00     0.021 C 
HETATM   17  C9  UNL     1     -29.974   9.828  21.777  1.00  0.00     0.125 C 
ENDBRANCH  11  13
ENDBRANCH   1  11
TORSDOF 5
ENDMDL
