MODEL 1
REMARK VINA RESULT: -5.332091463      0.000      0.000
REMARK  4 active torsions:
REMARK  status: ('A' for Active; 'I' for Inactive)
REMARK    1  A    between atoms: N1_2  and  C3_4 
REMARK    2  A    between atoms: C3_4  and  C4_5 
REMARK    3  A    between atoms: C4_5  and  N2_6 
REMARK    4  A    between atoms: C5_8  and  C6_9 
ROOT
HETATM    1  N2  UNL     1     -33.841   9.507  20.186  1.00  0.00    -0.294 N 
HETATM    2  S1  UNL     1     -32.199   9.147  20.723  1.00  0.00    -0.024 SA
HETATM    3  C5  UNL     1     -31.610  10.895  20.676  1.00  0.00     0.175 C 
HETATM    4  N3  UNL     1     -32.891  11.531  20.964  1.00  0.00    -0.351 N 
ATOM      5  H3  UNL     1     -32.995  12.342  21.573  1.00  0.00     0.163 HD
HETATM    6  C10 UNL     1     -33.967  10.905  20.312  1.00  0.00     0.181 C 
HETATM    7  S2  UNL     1     -35.254  11.795  19.756  1.00  0.00    -0.040 SA
ENDROOT
BRANCH   1   8
HETATM    8  C4  UNL     1     -34.776   8.567  19.701  1.00  0.00     0.169 C 
BRANCH   8   9
HETATM    9  C3  UNL     1     -34.949   7.270  20.393  1.00  0.00     0.292 C 
BRANCH   9  10
HETATM   10  N1  UNL     1     -34.784   6.066  19.692  1.00  0.00     0.081 N 
HETATM   11  C1  UNL     1     -33.430   5.670  19.523  1.00  0.00     0.309 C 
HETATM   12  C2  UNL     1     -35.536   5.000  20.324  1.00  0.00     0.309 C 
ENDBRANCH   9  10
ENDBRANCH   8   9
ENDBRANCH   1   8
BRANCH   3  13
HETATM   13  C6  UNL     1     -30.554  11.145  21.672  1.00  0.00    -0.020 C 
HETATM   14  C7  UNL     1     -29.747  12.387  21.435  1.00  0.00     0.017 C 
HETATM   15  C8  UNL     1     -31.270  11.362  23.019  1.00  0.00     0.017 C 
HETATM   16  C9  UNL     1     -29.712   9.917  21.854  1.00  0.00     0.017 C 
ENDBRANCH   3  13
TORSDOF 4
ENDMDL
MODEL 2
REMARK VINA RESULT: -5.305519172      0.204      1.113
REMARK  4 active torsions:
REMARK  status: ('A' for Active; 'I' for Inactive)
REMARK    1  A    between atoms: N1_2  and  C3_4 
REMARK    2  A    between atoms: C3_4  and  C4_5 
REMARK    3  A    between atoms: C4_5  and  N2_6 
REMARK    4  A    between atoms: C5_8  and  C6_9 
ROOT
HETATM    1  N2  UNL     1     -33.711   9.388  20.181  1.00  0.00    -0.294 N 
HETATM    2  S1  UNL     1     -32.077   9.131  20.795  1.00  0.00    -0.024 SA
HETATM    3  C5  UNL     1     -31.594  10.911  20.768  1.00  0.00     0.175 C 
HETATM    4  N3  UNL     1     -32.923  11.468  20.993  1.00  0.00    -0.351 N 
ATOM      5  H3  UNL     1     -33.104  12.272  21.593  1.00  0.00     0.163 HD
HETATM    6  C10 UNL     1     -33.927  10.776  20.294  1.00  0.00     0.181 C 
HETATM    7  S2  UNL     1     -35.239  11.585  19.675  1.00  0.00    -0.040 SA
ENDROOT
BRANCH   1   8
HETATM    8  C4  UNL     1     -34.562   8.392  19.658  1.00  0.00     0.169 C 
BRANCH   8   9
HETATM    9  C3  UNL     1     -34.821   7.157  20.432  1.00  0.00     0.292 C 
BRANCH   9  10
HETATM   10  N1  UNL     1     -34.905   5.917  19.781  1.00  0.00     0.081 N 
HETATM   11  C1  UNL     1     -33.647   5.323  19.493  1.00  0.00     0.309 C 
HETATM   12  C2  UNL     1     -35.725   4.995  20.541  1.00  0.00     0.309 C 
ENDBRANCH   9  10
ENDBRANCH   8   9
ENDBRANCH   1   8
BRANCH   3  13
HETATM   13  C6  UNL     1     -30.603  11.227  21.810  1.00  0.00    -0.020 C 
HETATM   14  C7  UNL     1     -31.172  11.403  23.187  1.00  0.00     0.017 C 
HETATM   15  C8  UNL     1     -29.662  10.010  21.899  1.00  0.00     0.017 C 
HETATM   16  C9  UNL     1     -29.740  12.375  21.375  1.00  0.00     0.017 C 
ENDBRANCH   3  13
TORSDOF 4
ENDMDL
MODEL 3
REMARK VINA RESULT: -5.288415906      0.881      1.463
REMARK  4 active torsions:
REMARK  status: ('A' for Active; 'I' for Inactive)
REMARK    1  A    between atoms: N1_2  and  C3_4 
REMARK    2  A    between atoms: C3_4  and  C4_5 
REMARK    3  A    between atoms: C4_5  and  N2_6 
REMARK    4  A    between atoms: C5_8  and  C6_9 
ROOT
HETATM    1  N2  UNL     1     -33.670   9.300  20.185  1.00  0.00    -0.294 N 
HETATM    2  S1  UNL     1     -32.016   9.102  20.767  1.00  0.00    -0.024 SA
HETATM    3  C5  UNL     1     -31.610  10.902  20.765  1.00  0.00     0.175 C 
HETATM    4  N3  UNL     1     -32.958  11.396  21.023  1.00  0.00    -0.351 N 
ATOM      5  H3  UNL     1     -33.163  12.181  21.641  1.00  0.00     0.163 HD
HETATM    6  C10 UNL     1     -33.943  10.674  20.328  1.00  0.00     0.181 C 
HETATM    7  S2  UNL     1     -35.299  11.437  19.747  1.00  0.00    -0.040 SA
ENDROOT
BRANCH   1   8
HETATM    8  C4  UNL     1     -34.487   8.277  19.657  1.00  0.00     0.169 C 
BRANCH   8   9
HETATM    9  C3  UNL     1     -34.147   7.654  18.358  1.00  0.00     0.292 C 
BRANCH   9  10
HETATM   10  N1  UNL     1     -33.892   6.277  18.279  1.00  0.00     0.081 N 
HETATM   11  C1  UNL     1     -33.246   5.736  19.423  1.00  0.00     0.309 C 
HETATM   12  C2  UNL     1     -35.114   5.546  18.008  1.00  0.00     0.309 C 
ENDBRANCH   9  10
ENDBRANCH   8   9
ENDBRANCH   1   8
BRANCH   3  13
HETATM   13  C6  UNL     1     -30.615  11.242  21.797  1.00  0.00    -0.020 C 
HETATM   14  C7  UNL     1     -31.178  11.436  23.174  1.00  0.00     0.017 C 
HETATM   15  C8  UNL     1     -29.666  10.033  21.900  1.00  0.00     0.017 C 
HETATM   16  C9  UNL     1     -29.763  12.388  21.338  1.00  0.00     0.017 C 
ENDBRANCH   3  13
TORSDOF 4
ENDMDL
MODEL 4
REMARK VINA RESULT: -5.238986426      0.155      1.105
REMARK  4 active torsions:
REMARK  status: ('A' for Active; 'I' for Inactive)
REMARK    1  A    between atoms: N1_2  and  C3_4 
REMARK    2  A    between atoms: C3_4  and  C4_5 
REMARK    3  A    between atoms: C4_5  and  N2_6 
REMARK    4  A    between atoms: C5_8  and  C6_9 
ROOT
HETATM    1  N2  UNL     1     -33.863   9.412  20.090  1.00  0.00    -0.294 N 
HETATM    2  S1  UNL     1     -32.235   9.052  20.667  1.00  0.00    -0.024 SA
HETATM    3  C5  UNL     1     -31.671  10.808  20.718  1.00  0.00     0.175 C 
HETATM    4  N3  UNL     1     -32.971  11.412  20.989  1.00  0.00    -0.351 N 
ATOM      5  H3  UNL     1     -33.108  12.193  21.630  1.00  0.00     0.163 HD
HETATM    6  C10 UNL     1     -34.014  10.801  20.273  1.00  0.00     0.181 C 
HETATM    7  S2  UNL     1     -35.296  11.697  19.713  1.00  0.00    -0.040 SA
ENDROOT
BRANCH   1   8
HETATM    8  C4  UNL     1     -34.765   8.482  19.531  1.00  0.00     0.169 C 
BRANCH   8   9
HETATM    9  C3  UNL     1     -35.123   7.256  20.281  1.00  0.00     0.292 C 
BRANCH   9  10
HETATM   10  N1  UNL     1     -34.967   5.994  19.689  1.00  0.00     0.081 N 
HETATM   11  C1  UNL     1     -33.615   5.608  19.485  1.00  0.00     0.309 C 
HETATM   12  C2  UNL     1     -35.660   4.979  20.459  1.00  0.00     0.309 C 
ENDBRANCH   9  10
ENDBRANCH   8   9
ENDBRANCH   1   8
BRANCH   3  13
HETATM   13  C6  UNL     1     -30.654  11.029  21.760  1.00  0.00    -0.020 C 
HETATM   14  C7  UNL     1     -29.635   9.936  21.885  1.00  0.00     0.017 C 
HETATM   15  C8  UNL     1     -29.869  12.287  21.342  1.00  0.00     0.017 C 
HETATM   16  C9  UNL     1     -31.313  11.377  23.062  1.00  0.00     0.017 C 
ENDBRANCH   3  13
TORSDOF 4
ENDMDL
MODEL 5
REMARK VINA RESULT: -5.133656305      2.031      6.301
REMARK  4 active torsions:
REMARK  status: ('A' for Active; 'I' for Inactive)
REMARK    1  A    between atoms: N1_2  and  C3_4 
REMARK    2  A    between atoms: C3_4  and  C4_5 
REMARK    3  A    between atoms: C4_5  and  N2_6 
REMARK    4  A    between atoms: C5_8  and  C6_9 
ROOT
HETATM    1  N2  UNL     1     -31.079   9.262  21.377  1.00  0.00    -0.294 N 
HETATM    2  S1  UNL     1     -32.542   9.864  20.595  1.00  0.00    -0.024 SA
HETATM    3  C5  UNL     1     -33.087   8.223  19.950  1.00  0.00     0.175 C 
HETATM    4  N3  UNL     1     -32.499   7.405  21.005  1.00  0.00    -0.351 N 
ATOM      5  H3  UNL     1     -32.959   6.589  21.409  1.00  0.00     0.163 HD
HETATM    6  C10 UNL     1     -31.232   7.861  21.405  1.00  0.00     0.181 C 
HETATM    7  S2  UNL     1     -30.050   6.787  21.861  1.00  0.00    -0.040 SA
ENDROOT
BRANCH   1   8
HETATM    8  C4  UNL     1     -29.997  10.050  21.822  1.00  0.00     0.169 C 
BRANCH   8   9
HETATM    9  C3  UNL     1     -30.183  11.000  22.943  1.00  0.00     0.292 C 
BRANCH   9  10
HETATM   10  N1  UNL     1     -30.031  12.379  22.736  1.00  0.00     0.081 N 
HETATM   11  C1  UNL     1     -29.089  12.998  23.601  1.00  0.00     0.309 C 
HETATM   12  C2  UNL     1     -29.689  12.653  21.354  1.00  0.00     0.309 C 
ENDBRANCH   9  10
ENDBRANCH   8   9
ENDBRANCH   1   8
BRANCH   3  13
HETATM   13  C6  UNL     1     -34.553   8.136  19.840  1.00  0.00    -0.020 C 
HETATM   14  C7  UNL     1     -35.050   7.215  18.766  1.00  0.00     0.017 C 
HETATM   15  C8  UNL     1     -35.054   7.538  21.169  1.00  0.00     0.017 C 
HETATM   16  C9  UNL     1     -35.149   9.510  19.765  1.00  0.00     0.017 C 
ENDBRANCH   3  13
TORSDOF 4
ENDMDL
