MODEL 1
REMARK VINA RESULT: -7.439247850      0.000      0.000
REMARK  12 active torsions:
REMARK  status: ('A' for Active; 'I' for Inactive)
REMARK    1  A    between atoms: N1_1  and  C1_5 
REMARK    2  A    between atoms: C1_5  and  C2_6 
REMARK    3  A    between atoms: C2_6  and  C3_7 
REMARK    4  A    between atoms: C3_7  and  C4_8 
REMARK    5  A    between atoms: C4_8  and  C5_9 
REMARK    6  A    between atoms: C15_19  and  C16_20 
REMARK    7  A    between atoms: C18_26  and  C19_27 
REMARK    8  A    between atoms: C19_27  and  C20_28 
REMARK    9  A    between atoms: C20_28  and  C21_29 
REMARK   10  A    between atoms: C23_36  and  N5_37 
REMARK       I    between atoms: N5_37  and  C24_39 
REMARK   11  A    between atoms: C24_39  and  C25_41 
REMARK   12  A    between atoms: C25_41  and  N6_42 
ROOT
HETATM    1  C5  UNL     1      22.017  18.459  31.302  1.00  0.00     0.018 C 
HETATM    2  C6  UNL     1      22.542  18.554  29.955  1.00  0.00     0.007 C 
HETATM    3  C7  UNL     1      21.600  18.795  28.808  1.00  0.00     0.000 C 
HETATM    4  C8  UNL     1      21.043  17.505  28.218  1.00  0.00     0.000 C 
HETATM    5  C9  UNL     1      21.172  17.526  26.739  1.00  0.00     0.000 C 
HETATM    6  C10 UNL     1      21.267  16.251  26.019  1.00  0.00     0.000 C 
HETATM    7  C11 UNL     1      20.951  15.000  26.748  1.00  0.00     0.000 C 
HETATM    8  C12 UNL     1      19.605  15.087  27.419  1.00  0.00     0.000 C 
HETATM    9  C13 UNL     1      18.741  13.871  27.236  1.00  0.00     0.002 C 
HETATM   10  C14 UNL     1      17.338  14.229  27.572  1.00  0.00     0.032 C 
HETATM   11  C15 UNL     1      17.161  15.248  28.674  1.00  0.00     0.146 C 
HETATM   12  N2  UNL     1      17.289  14.691  29.983  1.00  0.00    -0.349 N 
ATOM     13  H2  UNL     1      16.764  13.831  30.146  1.00  0.00     0.163 HD
HETATM   14  C17 UNL     1      18.028  15.154  31.070  1.00  0.00     0.241 C 
HETATM   15  O2  UNL     1      18.796  14.335  31.683  1.00  0.00    -0.271 OA
HETATM   16  C18 UNL     1      18.006  16.568  31.607  1.00  0.00     0.177 C 
HETATM   17  N4  UNL     1      19.221  16.795  32.380  1.00  0.00    -0.346 N 
ATOM     18  H4  UNL     1      19.592  15.970  32.853  1.00  0.00     0.163 HD
HETATM   19  C22 UNL     1      19.944  17.953  32.571  1.00  0.00     0.241 C 
HETATM   20  O4  UNL     1      20.130  18.350  33.778  1.00  0.00    -0.271 OA
HETATM   21  C23 UNL     1      20.564  18.837  31.513  1.00  0.00     0.180 C 
ENDROOT
BRANCH  21  22
HETATM   22  N5  UNL     1      20.480  20.194  31.927  1.00  0.00    -0.346 N 
HETATM   23  C24 UNL     1      19.805  21.215  31.195  1.00  0.00     0.243 C 
HETATM   24  O5  UNL     1      19.221  20.983  30.113  1.00  0.00    -0.272 OA
ATOM     25  H5  UNL     1      20.931  20.454  32.804  1.00  0.00     0.163 HD
BRANCH  23  26
HETATM   26  C25 UNL     1      19.759  22.619  31.682  1.00  0.00     0.332 C 
BRANCH  26  27
HETATM   27  N6  UNL     1      20.319  23.540  30.732  1.00  0.00    -0.071 N 
ATOM     28  H63 UNL     1      21.232  23.223  30.405  1.00  0.00     0.274 HD
ATOM     29  H62 UNL     1      19.812  23.512  29.848  1.00  0.00     0.274 HD
ATOM     30  H61 UNL     1      20.369  24.490  31.101  1.00  0.00     0.274 HD
ENDBRANCH  26  27
ENDBRANCH  23  26
ENDBRANCH  21  22
BRANCH   1  31
HETATM   31  C4  UNL     1      22.868  19.107  32.328  1.00  0.00     0.007 C 
BRANCH  31  32
HETATM   32  C3  UNL     1      23.668  18.333  33.289  1.00  0.00     0.002 C 
BRANCH  32  33
HETATM   33  C2  UNL     1      23.648  18.773  34.691  1.00  0.00     0.027 C 
BRANCH  33  34
HETATM   34  C1  UNL     1      23.226  17.612  35.626  1.00  0.00     0.229 C 
BRANCH  34  35
HETATM   35  N1  UNL     1      22.498  16.628  34.864  1.00  0.00    -0.079 N 
ATOM     36  H13 UNL     1      22.326  16.931  33.906  1.00  0.00     0.274 HD
ATOM     37  H12 UNL     1      23.064  15.805  34.656  1.00  0.00     0.274 HD
ATOM     38  H11 UNL     1      21.636  16.391  35.356  1.00  0.00     0.274 HD
ENDBRANCH  34  35
ENDBRANCH  33  34
ENDBRANCH  32  33
ENDBRANCH  31  32
ENDBRANCH   1  31
BRANCH  16  39
HETATM   39  C19 UNL     1      16.814  16.581  32.543  1.00  0.00     0.043 C 
BRANCH  39  40
HETATM   40  C20 UNL     1      17.078  16.160  33.935  1.00  0.00     0.102 C 
BRANCH  40  41
HETATM   41  C21 UNL     1      16.411  14.923  34.368  1.00  0.00     0.231 C 
HETATM   42  N3  UNL     1      17.212  13.850  34.883  1.00  0.00    -0.062 NA
HETATM   43  O3  UNL     1      15.166  14.825  34.282  1.00  0.00    -0.277 OA
ENDBRANCH  40  41
ENDBRANCH  39  40
ENDBRANCH  16  39
BRANCH  11  44
HETATM   44  C16 UNL     1      15.770  15.741  28.498  1.00  0.00     0.256 C 
HETATM   45  O1  UNL     1      14.934  14.976  28.068  1.00  0.00    -0.305 OA
ENDBRANCH  11  44
TORSDOF 12
ENDMDL
MODEL 2
REMARK VINA RESULT: -7.350474139      2.493      5.903
REMARK  12 active torsions:
REMARK  status: ('A' for Active; 'I' for Inactive)
REMARK    1  A    between atoms: N1_1  and  C1_5 
REMARK    2  A    between atoms: C1_5  and  C2_6 
REMARK    3  A    between atoms: C2_6  and  C3_7 
REMARK    4  A    between atoms: C3_7  and  C4_8 
REMARK    5  A    between atoms: C4_8  and  C5_9 
REMARK    6  A    between atoms: C15_19  and  C16_20 
REMARK    7  A    between atoms: C18_26  and  C19_27 
REMARK    8  A    between atoms: C19_27  and  C20_28 
REMARK    9  A    between atoms: C20_28  and  C21_29 
REMARK   10  A    between atoms: C23_36  and  N5_37 
REMARK       I    between atoms: N5_37  and  C24_39 
REMARK   11  A    between atoms: C24_39  and  C25_41 
REMARK   12  A    between atoms: C25_41  and  N6_42 
ROOT
HETATM    1  C5  UNL     1      19.920  19.508  28.390  1.00  0.00     0.018 C 
HETATM    2  C6  UNL     1      20.620  18.891  27.282  1.00  0.00     0.007 C 
HETATM    3  C7  UNL     1      21.092  17.468  27.402  1.00  0.00     0.000 C 
HETATM    4  C8  UNL     1      22.487  17.356  28.004  1.00  0.00     0.000 C 
HETATM    5  C9  UNL     1      23.327  16.453  27.177  1.00  0.00     0.000 C 
HETATM    6  C10 UNL     1      24.782  16.635  27.185  1.00  0.00     0.000 C 
HETATM    7  C11 UNL     1      25.381  17.511  28.219  1.00  0.00     0.000 C 
HETATM    8  C12 UNL     1      24.926  17.113  29.600  1.00  0.00     0.000 C 
HETATM    9  C13 UNL     1      26.027  17.051  30.621  1.00  0.00     0.002 C 
HETATM   10  C14 UNL     1      25.546  16.272  31.792  1.00  0.00     0.032 C 
HETATM   11  C15 UNL     1      24.078  16.412  32.122  1.00  0.00     0.146 C 
HETATM   12  N2  UNL     1      23.773  17.607  32.843  1.00  0.00    -0.349 N 
ATOM     13  H2  UNL     1      24.381  17.806  33.638  1.00  0.00     0.163 HD
HETATM   14  C17 UNL     1      22.763  18.540  32.617  1.00  0.00     0.241 C 
HETATM   15  O2  UNL     1      23.073  19.781  32.574  1.00  0.00    -0.271 OA
HETATM   16  C18 UNL     1      21.300  18.216  32.413  1.00  0.00     0.177 C 
HETATM   17  N4  UNL     1      20.662  19.337  31.732  1.00  0.00    -0.346 N 
ATOM     18  H4  UNL     1      21.059  20.253  31.943  1.00  0.00     0.163 HD
HETATM   19  C22 UNL     1      19.605  19.348  30.847  1.00  0.00     0.241 C 
HETATM   20  O4  UNL     1      18.582  20.063  31.147  1.00  0.00    -0.271 OA
HETATM   21  C23 UNL     1      19.495  18.608  29.534  1.00  0.00     0.180 C 
ENDROOT
BRANCH  21  22
HETATM   22  N5  UNL     1      18.149  18.194  29.340  1.00  0.00    -0.346 N 
HETATM   23  C24 UNL     1      17.738  16.833  29.225  1.00  0.00     0.243 C 
HETATM   24  O5  UNL     1      18.551  15.884  29.292  1.00  0.00    -0.272 OA
ATOM     25  H5  UNL     1      17.431  18.916  29.279  1.00  0.00     0.163 HD
BRANCH  23  26
HETATM   26  C25 UNL     1      16.312  16.467  29.017  1.00  0.00     0.332 C 
BRANCH  26  27
HETATM   27  N6  UNL     1      15.517  17.595  28.617  1.00  0.00    -0.071 N 
ATOM     28  H63 UNL     1      16.062  18.457  28.635  1.00  0.00     0.274 HD
ATOM     29  H62 UNL     1      15.303  17.562  27.620  1.00  0.00     0.274 HD
ATOM     30  H61 UNL     1      14.668  17.684  29.175  1.00  0.00     0.274 HD
ENDBRANCH  26  27
ENDBRANCH  23  26
ENDBRANCH  21  22
BRANCH   1  31
HETATM   31  C4  UNL     1      18.794  20.381  27.981  1.00  0.00     0.007 C 
BRANCH  31  32
HETATM   32  C3  UNL     1      18.862  21.847  28.075  1.00  0.00     0.002 C 
BRANCH  32  33
HETATM   33  C2  UNL     1      20.157  22.439  28.439  1.00  0.00     0.027 C 
BRANCH  33  34
HETATM   34  C1  UNL     1      20.143  22.933  29.906  1.00  0.00     0.229 C 
BRANCH  34  35
HETATM   35  N1  UNL     1      21.382  22.565  30.545  1.00  0.00    -0.079 N 
ATOM     36  H13 UNL     1      21.637  21.595  30.363  1.00  0.00     0.274 HD
ATOM     37  H12 UNL     1      22.190  23.011  30.110  1.00  0.00     0.274 HD
ATOM     38  H11 UNL     1      21.321  22.767  31.543  1.00  0.00     0.274 HD
ENDBRANCH  34  35
ENDBRANCH  33  34
ENDBRANCH  32  33
ENDBRANCH  31  32
ENDBRANCH   1  31
BRANCH  16  39
HETATM   39  C19 UNL     1      20.751  18.117  33.822  1.00  0.00     0.043 C 
BRANCH  39  40
HETATM   40  C20 UNL     1      20.054  16.859  34.160  1.00  0.00     0.102 C 
BRANCH  40  41
HETATM   41  C21 UNL     1      19.075  16.383  33.171  1.00  0.00     0.231 C 
HETATM   42  N3  UNL     1      17.859  17.123  32.990  1.00  0.00    -0.062 NA
HETATM   43  O3  UNL     1      19.313  15.348  32.507  1.00  0.00    -0.277 OA
ENDBRANCH  40  41
ENDBRANCH  39  40
ENDBRANCH  16  39
BRANCH  11  44
HETATM   44  C16 UNL     1      23.783  15.242  32.989  1.00  0.00     0.256 C 
HETATM   45  O1  UNL     1      22.661  14.782  32.980  1.00  0.00    -0.305 OA
ENDBRANCH  11  44
TORSDOF 12
ENDMDL
MODEL 3
REMARK VINA RESULT: -7.343975315      2.971      6.473
REMARK  12 active torsions:
REMARK  status: ('A' for Active; 'I' for Inactive)
REMARK    1  A    between atoms: N1_1  and  C1_5 
REMARK    2  A    between atoms: C1_5  and  C2_6 
REMARK    3  A    between atoms: C2_6  and  C3_7 
REMARK    4  A    between atoms: C3_7  and  C4_8 
REMARK    5  A    between atoms: C4_8  and  C5_9 
REMARK    6  A    between atoms: C15_19  and  C16_20 
REMARK    7  A    between atoms: C18_26  and  C19_27 
REMARK    8  A    between atoms: C19_27  and  C20_28 
REMARK    9  A    between atoms: C20_28  and  C21_29 
REMARK   10  A    between atoms: C23_36  and  N5_37 
REMARK       I    between atoms: N5_37  and  C24_39 
REMARK   11  A    between atoms: C24_39  and  C25_41 
REMARK   12  A    between atoms: C25_41  and  N6_42 
ROOT
HETATM    1  C5  UNL     1      19.932  19.899  28.293  1.00  0.00     0.018 C 
HETATM    2  C6  UNL     1      20.603  19.235  27.194  1.00  0.00     0.007 C 
HETATM    3  C7  UNL     1      20.970  17.782  27.319  1.00  0.00     0.000 C 
HETATM    4  C8  UNL     1      22.344  17.570  27.943  1.00  0.00     0.000 C 
HETATM    5  C9  UNL     1      23.130  16.610  27.126  1.00  0.00     0.000 C 
HETATM    6  C10 UNL     1      24.594  16.687  27.158  1.00  0.00     0.000 C 
HETATM    7  C11 UNL     1      25.238  17.518  28.203  1.00  0.00     0.000 C 
HETATM    8  C12 UNL     1      24.734  17.151  29.575  1.00  0.00     0.000 C 
HETATM    9  C13 UNL     1      25.812  17.010  30.613  1.00  0.00     0.002 C 
HETATM   10  C14 UNL     1      25.259  16.266  31.775  1.00  0.00     0.032 C 
HETATM   11  C15 UNL     1      23.799  16.510  32.083  1.00  0.00     0.146 C 
HETATM   12  N2  UNL     1      23.569  17.723  32.802  1.00  0.00    -0.349 N 
ATOM     13  H2  UNL     1      24.177  17.877  33.606  1.00  0.00     0.163 HD
HETATM   14  C17 UNL     1      22.632  18.726  32.562  1.00  0.00     0.241 C 
HETATM   15  O2  UNL     1      23.030  19.942  32.526  1.00  0.00    -0.271 OA
HETATM   16  C18 UNL     1      21.153  18.508  32.334  1.00  0.00     0.177 C 
HETATM   17  N4  UNL     1      20.608  19.672  31.646  1.00  0.00    -0.346 N 
ATOM     18  H4  UNL     1      21.065  20.558  31.865  1.00  0.00     0.163 HD
HETATM   19  C22 UNL     1      19.568  19.759  30.744  1.00  0.00     0.241 C 
HETATM   20  O4  UNL     1      18.593  20.545  31.030  1.00  0.00    -0.271 OA
HETATM   21  C23 UNL     1      19.425  19.031  29.428  1.00  0.00     0.180 C 
ENDROOT
BRANCH  21  22
HETATM   22  N5  UNL     1      18.056  18.714  29.213  1.00  0.00    -0.346 N 
HETATM   23  C24 UNL     1      17.565  17.394  28.988  1.00  0.00     0.243 C 
HETATM   24  O5  UNL     1      18.320  16.397  28.969  1.00  0.00    -0.272 OA
ATOM     25  H5  UNL     1      17.383  19.480  29.219  1.00  0.00     0.163 HD
BRANCH  23  26
HETATM   26  C25 UNL     1      16.119  17.132  28.763  1.00  0.00     0.332 C 
BRANCH  26  27
HETATM   27  N6  UNL     1      15.735  15.815  29.191  1.00  0.00    -0.071 N 
ATOM     28  H63 UNL     1      16.314  15.495  29.968  1.00  0.00     0.274 HD
ATOM     29  H62 UNL     1      14.830  15.828  29.660  1.00  0.00     0.274 HD
ATOM     30  H61 UNL     1      15.744  15.144  28.423  1.00  0.00     0.274 HD
ENDBRANCH  26  27
ENDBRANCH  23  26
ENDBRANCH  21  22
BRANCH   1  31
HETATM   31  C4  UNL     1      18.878  20.851  27.869  1.00  0.00     0.007 C 
BRANCH  31  32
HETATM   32  C3  UNL     1      19.186  22.218  27.423  1.00  0.00     0.002 C 
BRANCH  32  33
HETATM   33  C2  UNL     1      19.000  22.519  25.996  1.00  0.00     0.027 C 
BRANCH  33  34
HETATM   34  C1  UNL     1      19.992  23.614  25.531  1.00  0.00     0.229 C 
BRANCH  34  35
HETATM   35  N1  UNL     1      19.260  24.809  25.195  1.00  0.00    -0.079 N 
ATOM     36  H13 UNL     1      19.671  25.304  24.404  1.00  0.00     0.274 HD
ATOM     37  H12 UNL     1      18.351  24.602  24.779  1.00  0.00     0.274 HD
ATOM     38  H11 UNL     1      19.181  25.400  26.022  1.00  0.00     0.274 HD
ENDBRANCH  34  35
ENDBRANCH  33  34
ENDBRANCH  32  33
ENDBRANCH  31  32
ENDBRANCH   1  31
BRANCH  16  39
HETATM   39  C19 UNL     1      20.576  18.447  33.735  1.00  0.00     0.043 C 
BRANCH  39  40
HETATM   40  C20 UNL     1      20.376  17.094  34.295  1.00  0.00     0.102 C 
BRANCH  40  41
HETATM   41  C21 UNL     1      19.171  16.384  33.841  1.00  0.00     0.231 C 
HETATM   42  N3  UNL     1      19.183  14.950  33.813  1.00  0.00    -0.062 NA
HETATM   43  O3  UNL     1      18.161  17.035  33.488  1.00  0.00    -0.277 OA
ENDBRANCH  40  41
ENDBRANCH  39  40
ENDBRANCH  16  39
BRANCH  11  44
HETATM   44  C16 UNL     1      23.407  15.363  32.942  1.00  0.00     0.256 C 
HETATM   45  O1  UNL     1      23.544  15.465  34.142  1.00  0.00    -0.305 OA
ENDBRANCH  11  44
TORSDOF 12
ENDMDL
MODEL 4
REMARK VINA RESULT: -7.217657399      3.490      4.744
REMARK  12 active torsions:
REMARK  status: ('A' for Active; 'I' for Inactive)
REMARK    1  A    between atoms: N1_1  and  C1_5 
REMARK    2  A    between atoms: C1_5  and  C2_6 
REMARK    3  A    between atoms: C2_6  and  C3_7 
REMARK    4  A    between atoms: C3_7  and  C4_8 
REMARK    5  A    between atoms: C4_8  and  C5_9 
REMARK    6  A    between atoms: C15_19  and  C16_20 
REMARK    7  A    between atoms: C18_26  and  C19_27 
REMARK    8  A    between atoms: C19_27  and  C20_28 
REMARK    9  A    between atoms: C20_28  and  C21_29 
REMARK   10  A    between atoms: C23_36  and  N5_37 
REMARK       I    between atoms: N5_37  and  C24_39 
REMARK   11  A    between atoms: C24_39  and  C25_41 
REMARK   12  A    between atoms: C25_41  and  N6_42 
ROOT
HETATM    1  C5  UNL     1      19.362  18.674  30.584  1.00  0.00     0.018 C 
HETATM    2  C6  UNL     1      20.774  18.350  30.633  1.00  0.00     0.007 C 
HETATM    3  C7  UNL     1      21.504  18.021  29.360  1.00  0.00     0.000 C 
HETATM    4  C8  UNL     1      21.444  16.539  29.009  1.00  0.00     0.000 C 
HETATM    5  C9  UNL     1      22.802  16.041  28.675  1.00  0.00     0.000 C 
HETATM    6  C10 UNL     1      23.104  14.620  28.879  1.00  0.00     0.000 C 
HETATM    7  C11 UNL     1      21.983  13.686  29.137  1.00  0.00     0.000 C 
HETATM    8  C12 UNL     1      20.914  13.816  28.082  1.00  0.00     0.000 C 
HETATM    9  C13 UNL     1      20.402  12.506  27.554  1.00  0.00     0.002 C 
HETATM   10  C14 UNL     1      19.687  12.755  26.276  1.00  0.00     0.032 C 
HETATM   11  C15 UNL     1      18.943  14.068  26.179  1.00  0.00     0.146 C 
HETATM   12  N2  UNL     1      17.675  14.047  26.837  1.00  0.00    -0.349 N 
ATOM     13  H2  UNL     1      17.087  13.239  26.630  1.00  0.00     0.163 HD
HETATM   14  C17 UNL     1      17.126  14.974  27.721  1.00  0.00     0.241 C 
HETATM   15  O2  UNL     1      16.635  14.552  28.825  1.00  0.00    -0.271 OA
HETATM   16  C18 UNL     1      17.053  16.467  27.493  1.00  0.00     0.177 C 
HETATM   17  N4  UNL     1      16.889  17.131  28.781  1.00  0.00    -0.346 N 
ATOM     18  H4  UNL     1      16.372  16.596  29.480  1.00  0.00     0.163 HD
HETATM   19  C22 UNL     1      17.325  18.371  29.198  1.00  0.00     0.241 C 
HETATM   20  O4  UNL     1      16.445  19.200  29.629  1.00  0.00    -0.271 OA
HETATM   21  C23 UNL     1      18.744  18.891  29.216  1.00  0.00     0.180 C 
ENDROOT
BRANCH  21  22
HETATM   22  N5  UNL     1      18.739  20.278  28.909  1.00  0.00    -0.346 N 
HETATM   23  C24 UNL     1      19.174  20.825  27.666  1.00  0.00     0.243 C 
HETATM   24  O5  UNL     1      19.596  20.106  26.733  1.00  0.00    -0.272 OA
ATOM     25  H5  UNL     1      18.404  20.924  29.623  1.00  0.00     0.163 HD
BRANCH  23  26
HETATM   26  C25 UNL     1      19.149  22.290  27.410  1.00  0.00     0.332 C 
BRANCH  26  27
HETATM   27  N6  UNL     1      19.203  22.595  26.007  1.00  0.00    -0.071 N 
ATOM     28  H63 UNL     1      19.185  21.745  25.443  1.00  0.00     0.274 HD
ATOM     29  H62 UNL     1      18.332  23.019  25.687  1.00  0.00     0.274 HD
ATOM     30  H61 UNL     1      20.007  23.177  25.771  1.00  0.00     0.274 HD
ENDBRANCH  26  27
ENDBRANCH  23  26
ENDBRANCH  21  22
BRANCH   1  31
HETATM   31  C4  UNL     1      18.962  19.765  31.504  1.00  0.00     0.007 C 
BRANCH  31  32
HETATM   32  C3  UNL     1      19.944  20.652  32.145  1.00  0.00     0.002 C 
BRANCH  32  33
HETATM   33  C2  UNL     1      19.606  22.081  32.230  1.00  0.00     0.027 C 
BRANCH  33  34
HETATM   34  C1  UNL     1      20.233  22.865  31.051  1.00  0.00     0.229 C 
BRANCH  34  35
HETATM   35  N1  UNL     1      21.386  22.151  30.563  1.00  0.00    -0.079 N 
ATOM     36  H13 UNL     1      21.804  21.557  31.279  1.00  0.00     0.274 HD
ATOM     37  H12 UNL     1      21.135  21.420  29.897  1.00  0.00     0.274 HD
ATOM     38  H11 UNL     1      22.055  22.815  30.173  1.00  0.00     0.274 HD
ENDBRANCH  34  35
ENDBRANCH  33  34
ENDBRANCH  32  33
ENDBRANCH  31  32
ENDBRANCH   1  31
BRANCH  16  39
HETATM   39  C19 UNL     1      15.787  16.648  26.679  1.00  0.00     0.043 C 
BRANCH  39  40
HETATM   40  C20 UNL     1      14.582  17.049  27.435  1.00  0.00     0.102 C 
BRANCH  40  41
HETATM   41  C21 UNL     1      13.336  16.359  27.069  1.00  0.00     0.231 C 
HETATM   42  N3  UNL     1      12.871  15.285  27.899  1.00  0.00    -0.062 NA
HETATM   43  O3  UNL     1      12.704  16.714  26.048  1.00  0.00    -0.277 OA
ENDBRANCH  40  41
ENDBRANCH  39  40
ENDBRANCH  16  39
BRANCH  11  44
HETATM   44  C16 UNL     1      18.722  14.259  24.722  1.00  0.00     0.256 C 
HETATM   45  O1  UNL     1      18.320  15.334  24.332  1.00  0.00    -0.305 OA
ENDBRANCH  11  44
TORSDOF 12
ENDMDL
MODEL 5
REMARK VINA RESULT: -7.145289444      2.868      7.598
REMARK  12 active torsions:
REMARK  status: ('A' for Active; 'I' for Inactive)
REMARK    1  A    between atoms: N1_1  and  C1_5 
REMARK    2  A    between atoms: C1_5  and  C2_6 
REMARK    3  A    between atoms: C2_6  and  C3_7 
REMARK    4  A    between atoms: C3_7  and  C4_8 
REMARK    5  A    between atoms: C4_8  and  C5_9 
REMARK    6  A    between atoms: C15_19  and  C16_20 
REMARK    7  A    between atoms: C18_26  and  C19_27 
REMARK    8  A    between atoms: C19_27  and  C20_28 
REMARK    9  A    between atoms: C20_28  and  C21_29 
REMARK   10  A    between atoms: C23_36  and  N5_37 
REMARK       I    between atoms: N5_37  and  C24_39 
REMARK   11  A    between atoms: C24_39  and  C25_41 
REMARK   12  A    between atoms: C25_41  and  N6_42 
ROOT
HETATM    1  C5  UNL     1      16.759  16.569  26.260  1.00  0.00     0.018 C 
HETATM    2  C6  UNL     1      17.310  17.384  25.197  1.00  0.00     0.007 C 
HETATM    3  C7  UNL     1      18.759  17.786  25.246  1.00  0.00     0.000 C 
HETATM    4  C8  UNL     1      18.986  19.088  26.005  1.00  0.00     0.000 C 
HETATM    5  C9  UNL     1      19.853  19.995  25.210  1.00  0.00     0.000 C 
HETATM    6  C10 UNL     1      19.740  21.442  25.417  1.00  0.00     0.000 C 
HETATM    7  C11 UNL     1      18.984  21.934  26.592  1.00  0.00     0.000 C 
HETATM    8  C12 UNL     1      19.477  21.292  27.863  1.00  0.00     0.000 C 
HETATM    9  C13 UNL     1      19.677  22.250  29.004  1.00  0.00     0.002 C 
HETATM   10  C14 UNL     1      20.530  21.596  30.030  1.00  0.00     0.032 C 
HETATM   11  C15 UNL     1      20.351  20.103  30.186  1.00  0.00     0.146 C 
HETATM   12  N2  UNL     1      19.210  19.750  30.969  1.00  0.00    -0.349 N 
ATOM     13  H2  UNL     1      19.108  20.257  31.848  1.00  0.00     0.163 HD
HETATM   14  C17 UNL     1      18.215  18.810  30.704  1.00  0.00     0.241 C 
HETATM   15  O2  UNL     1      16.991  19.166  30.812  1.00  0.00    -0.271 OA
HETATM   16  C18 UNL     1      18.452  17.375  30.291  1.00  0.00     0.177 C 
HETATM   17  N4  UNL     1      17.249  16.870  29.640  1.00  0.00    -0.346 N 
ATOM     18  H4  UNL     1      16.374  17.268  29.980  1.00  0.00     0.163 HD
HETATM   19  C22 UNL     1      17.114  15.936  28.634  1.00  0.00     0.241 C 
HETATM   20  O4  UNL     1      16.381  14.908  28.868  1.00  0.00    -0.271 OA
HETATM   21  C23 UNL     1      17.733  15.969  27.256  1.00  0.00     0.180 C 
ENDROOT
BRANCH  21  22
HETATM   22  N5  UNL     1      18.067  14.646  26.859  1.00  0.00    -0.346 N 
HETATM   23  C24 UNL     1      19.384  14.220  26.519  1.00  0.00     0.243 C 
HETATM   24  O5  UNL     1      20.364  14.996  26.550  1.00  0.00    -0.272 OA
ATOM     25  H5  UNL     1      17.316  13.957  26.814  1.00  0.00     0.163 HD
BRANCH  23  26
HETATM   26  C25 UNL     1      19.665  12.819  26.105  1.00  0.00     0.332 C 
BRANCH  26  27
HETATM   27  N6  UNL     1      19.237  12.556  24.759  1.00  0.00    -0.071 N 
ATOM     28  H63 UNL     1      18.240  12.346  24.723  1.00  0.00     0.274 HD
ATOM     29  H62 UNL     1      19.243  13.408  24.197  1.00  0.00     0.274 HD
ATOM     30  H61 UNL     1      19.786  11.818  24.318  1.00  0.00     0.274 HD
ENDBRANCH  26  27
ENDBRANCH  23  26
ENDBRANCH  21  22
BRANCH   1  31
HETATM   31  C4  UNL     1      15.804  15.536  25.795  1.00  0.00     0.007 C 
BRANCH  31  32
HETATM   32  C3  UNL     1      14.385  15.833  25.547  1.00  0.00     0.002 C 
BRANCH  32  33
HETATM   33  C2  UNL     1      13.756  16.864  26.385  1.00  0.00     0.027 C 
BRANCH  33  34
HETATM   34  C1  UNL     1      12.838  16.219  27.453  1.00  0.00     0.229 C 
BRANCH  34  35
HETATM   35  N1  UNL     1      13.623  15.881  28.614  1.00  0.00    -0.079 N 
ATOM     36  H13 UNL     1      14.408  15.272  28.386  1.00  0.00     0.274 HD
ATOM     37  H12 UNL     1      14.154  16.677  28.967  1.00  0.00     0.274 HD
ATOM     38  H11 UNL     1      13.014  15.476  29.326  1.00  0.00     0.274 HD
ENDBRANCH  34  35
ENDBRANCH  33  34
ENDBRANCH  32  33
ENDBRANCH  31  32
ENDBRANCH   1  31
BRANCH  16  39
HETATM   39  C19 UNL     1      18.646  16.647  31.605  1.00  0.00     0.043 C 
BRANCH  39  40
HETATM   40  C20 UNL     1      20.026  16.620  32.135  1.00  0.00     0.102 C 
BRANCH  40  41
HETATM   41  C21 UNL     1      20.197  17.128  33.504  1.00  0.00     0.231 C 
HETATM   42  N3  UNL     1      20.597  16.214  34.536  1.00  0.00    -0.062 NA
HETATM   43  O3  UNL     1      19.994  18.339  33.749  1.00  0.00    -0.277 OA
ENDBRANCH  40  41
ENDBRANCH  39  40
ENDBRANCH  16  39
BRANCH  11  44
HETATM   44  C16 UNL     1      21.577  19.658  30.899  1.00  0.00     0.256 C 
HETATM   45  O1  UNL     1      22.019  20.360  31.783  1.00  0.00    -0.305 OA
ENDBRANCH  11  44
TORSDOF 12
ENDMDL
