MODEL 1
REMARK VINA RESULT: -7.058278171      0.000      0.000
REMARK  13 active torsions:
REMARK  status: ('A' for Active; 'I' for Inactive)
REMARK       I    between atoms: C1_4  and  N3_6 
REMARK    1  A    between atoms: N3_6  and  C2_8 
REMARK    2  A    between atoms: C2_8  and  C3_9 
REMARK    3  A    between atoms: C3_9  and  C4_10 
REMARK    4  A    between atoms: C4_10  and  C5_11 
REMARK    5  A    between atoms: C5_11  and  N4_12 
REMARK    6  A    between atoms: C5_11  and  C15_29 
REMARK    7  A    between atoms: N4_12  and  S1_14 
REMARK    8  A    between atoms: S1_14  and  N5_17 
REMARK    9  A    between atoms: N5_17  and  C6_19 
REMARK   10  A    between atoms: C15_29  and  O4_30 
REMARK   11  A    between atoms: C15_29  and  C16_32 
REMARK   12  A    between atoms: C16_32  and  O5_33 
REMARK   13  A    between atoms: C16_32  and  N6_35 
ROOT
HETATM    1  C5  UNL     1      17.856  15.346  27.765  1.00  0.00     0.131 C 
ENDROOT
BRANCH   1   2
HETATM    2  C4  UNL     1      17.152  14.992  26.513  1.00  0.00     0.030 C 
BRANCH   2   3
HETATM    3  C3  UNL     1      16.463  16.148  25.843  1.00  0.00     0.022 C 
BRANCH   3   4
HETATM    4  C2  UNL     1      15.118  15.708  25.251  1.00  0.00     0.122 C 
BRANCH   4   5
HETATM    5  N3  UNL     1      14.258  15.187  26.279  1.00  0.00    -0.365 N 
HETATM    6  C1  UNL     1      13.602  16.035  27.203  1.00  0.00     0.181 C 
HETATM    7  N1  UNL     1      13.783  15.897  28.492  1.00  0.00    -0.374 N 
HETATM    8  N2  UNL     1      12.730  17.062  26.777  1.00  0.00    -0.064 NA
ATOM      9  H12 UNL     1      13.311  16.508  29.157  1.00  0.00     0.158 HD
ATOM     10  H11 UNL     1      14.412  15.155  28.799  1.00  0.00     0.158 HD
ATOM     11  H3  UNL     1      14.117  14.179  26.344  1.00  0.00     0.162 HD
ENDBRANCH   4   5
ENDBRANCH   3   4
ENDBRANCH   2   3
ENDBRANCH   1   2
BRANCH   1  12
HETATM   12  N4  UNL     1      18.292  16.687  27.911  1.00  0.00    -0.295 N 
ATOM     13  H4  UNL     1      17.631  17.426  28.152  1.00  0.00     0.174 HD
BRANCH  12  14
HETATM   14  S1  UNL     1      19.922  17.033  27.677  1.00  0.00     0.315 S 
HETATM   15  O1  UNL     1      20.340  17.032  26.228  1.00  0.00    -0.183 OA
HETATM   16  O2  UNL     1      20.823  16.065  28.423  1.00  0.00    -0.183 OA
BRANCH  14  17
HETATM   17  N5  UNL     1      20.297  18.587  28.292  1.00  0.00    -0.298 N 
ATOM     18  H5  UNL     1      20.487  19.392  27.696  1.00  0.00     0.174 HD
BRANCH  17  19
HETATM   19  C6  UNL     1      20.317  18.649  29.739  1.00  0.00     0.094 C 
HETATM   20  C7  UNL     1      21.459  19.527  30.131  1.00  0.00     0.029 C 
HETATM   21  C8  UNL     1      21.245  20.427  31.294  1.00  0.00     0.040 C 
HETATM   22  C9  UNL     1      19.874  21.059  31.133  1.00  0.00     0.061 C 
HETATM   23  C10 UNL     1      19.675  22.252  32.037  1.00  0.00     0.040 C 
HETATM   24  O3  UNL     1      19.660  21.514  29.837  1.00  0.00    -0.380 OA
HETATM   25  C13 UNL     1      18.887  19.940  31.385  1.00  0.00     0.040 C 
HETATM   26  C11 UNL     1      20.293  23.345  31.164  1.00  0.00     0.029 C 
HETATM   27  C12 UNL     1      20.163  22.803  29.770  1.00  0.00     0.168 C 
HETATM   28  C14 UNL     1      18.975  18.994  30.229  1.00  0.00     0.029 C 
ENDBRANCH  17  19
ENDBRANCH  14  17
ENDBRANCH  12  14
ENDBRANCH   1  12
BRANCH   1  29
HETATM   29  C15 UNL     1      16.988  14.903  28.957  1.00  0.00     0.216 C 
BRANCH  29  30
HETATM   30  O4  UNL     1      16.187  13.906  28.531  1.00  0.00    -0.385 OA
ATOM     31  H4  UNL     1      15.292  14.148  28.736  1.00  0.00     0.210 HD
ENDBRANCH  29  30
BRANCH  29  32
HETATM   32  C16 UNL     1      17.848  14.608  30.107  1.00  0.00     0.149 C 
BRANCH  32  33
HETATM   33  O5  UNL     1      19.045  14.177  29.793  1.00  0.00    -0.347 OA
ATOM     34  H5  UNL     1      19.388  14.525  28.978  1.00  0.00     0.219 HD
ENDBRANCH  32  33
BRANCH  32  35
HETATM   35  N6  UNL     1      17.545  14.732  31.470  1.00  0.00    -0.343 N 
HETATM   36  C17 UNL     1      17.106  16.089  31.819  1.00  0.00     0.130 C 
HETATM   37  C18 UNL     1      17.980  16.568  32.944  1.00  0.00     0.020 C 
HETATM   38  C19 UNL     1      17.654  15.936  34.259  1.00  0.00     0.002 C 
HETATM   39  C20 UNL     1      16.568  14.902  34.159  1.00  0.00     0.005 C 
HETATM   40  C21 UNL     1      17.020  13.598  33.625  1.00  0.00     0.045 C 
HETATM   41  C22 UNL     1      17.673  13.588  32.282  1.00  0.00     0.066 C 
ENDBRANCH  32  35
ENDBRANCH  29  32
ENDBRANCH   1  29
TORSDOF 13
ENDMDL
MODEL 2
REMARK VINA RESULT: -6.972579430      3.718      6.688
REMARK  13 active torsions:
REMARK  status: ('A' for Active; 'I' for Inactive)
REMARK       I    between atoms: C1_4  and  N3_6 
REMARK    1  A    between atoms: N3_6  and  C2_8 
REMARK    2  A    between atoms: C2_8  and  C3_9 
REMARK    3  A    between atoms: C3_9  and  C4_10 
REMARK    4  A    between atoms: C4_10  and  C5_11 
REMARK    5  A    between atoms: C5_11  and  N4_12 
REMARK    6  A    between atoms: C5_11  and  C15_29 
REMARK    7  A    between atoms: N4_12  and  S1_14 
REMARK    8  A    between atoms: S1_14  and  N5_17 
REMARK    9  A    between atoms: N5_17  and  C6_19 
REMARK   10  A    between atoms: C15_29  and  O4_30 
REMARK   11  A    between atoms: C15_29  and  C16_32 
REMARK   12  A    between atoms: C16_32  and  O5_33 
REMARK   13  A    between atoms: C16_32  and  N6_35 
ROOT
HETATM    1  C5  UNL     1      17.802  17.003  32.440  1.00  0.00     0.131 C 
ENDROOT
BRANCH   1   2
HETATM    2  C4  UNL     1      16.624  16.211  32.858  1.00  0.00     0.030 C 
BRANCH   2   3
HETATM    3  C3  UNL     1      16.776  15.534  34.191  1.00  0.00     0.022 C 
BRANCH   3   4
HETATM    4  C2  UNL     1      15.855  14.311  34.287  1.00  0.00     0.122 C 
BRANCH   4   5
HETATM    5  N3  UNL     1      16.285  13.281  33.380  1.00  0.00    -0.365 N 
HETATM    6  C1  UNL     1      17.586  12.727  33.442  1.00  0.00     0.181 C 
HETATM    7  N1  UNL     1      18.387  12.768  32.408  1.00  0.00    -0.374 N 
HETATM    8  N2  UNL     1      18.075  12.114  34.618  1.00  0.00    -0.064 NA
ATOM      9  H12 UNL     1      19.324  12.369  32.454  1.00  0.00     0.158 HD
ATOM     10  H11 UNL     1      18.034  13.210  31.560  1.00  0.00     0.158 HD
ATOM     11  H3  UNL     1      15.634  12.940  32.672  1.00  0.00     0.162 HD
ENDBRANCH   4   5
ENDBRANCH   3   4
ENDBRANCH   2   3
ENDBRANCH   1   2
BRANCH   1  12
HETATM   12  N4  UNL     1      18.913  16.294  31.920  1.00  0.00    -0.295 N 
ATOM     13  H4  UNL     1      18.890  15.912  30.975  1.00  0.00     0.174 HD
BRANCH  12  14
HETATM   14  S1  UNL     1      20.271  16.098  32.895  1.00  0.00     0.315 S 
HETATM   15  O1  UNL     1      20.225  14.860  33.755  1.00  0.00    -0.183 OA
HETATM   16  O2  UNL     1      20.494  17.291  33.807  1.00  0.00    -0.183 OA
BRANCH  14  17
HETATM   17  N5  UNL     1      21.683  15.974  31.935  1.00  0.00    -0.298 N 
ATOM     18  H5  UNL     1      22.018  15.093  31.546  1.00  0.00     0.174 HD
BRANCH  17  19
HETATM   19  C6  UNL     1      22.357  17.239  31.726  1.00  0.00     0.094 C 
HETATM   20  C7  UNL     1      23.824  16.974  31.772  1.00  0.00     0.029 C 
HETATM   21  C8  UNL     1      24.674  17.737  30.819  1.00  0.00     0.040 C 
HETATM   22  C9  UNL     1      23.979  17.709  29.470  1.00  0.00     0.061 C 
HETATM   23  C10 UNL     1      24.889  18.128  28.340  1.00  0.00     0.040 C 
HETATM   24  O3  UNL     1      23.520  16.438  29.147  1.00  0.00    -0.380 OA
HETATM   25  C13 UNL     1      22.765  18.599  29.627  1.00  0.00     0.040 C 
HETATM   26  C11 UNL     1      25.559  16.787  28.034  1.00  0.00     0.029 C 
HETATM   27  C12 UNL     1      24.563  15.773  28.523  1.00  0.00     0.168 C 
HETATM   28  C14 UNL     1      21.804  17.892  30.531  1.00  0.00     0.029 C 
ENDBRANCH  17  19
ENDBRANCH  14  17
ENDBRANCH  12  14
ENDBRANCH   1  12
BRANCH   1  29
HETATM   29  C15 UNL     1      17.332  18.104  31.472  1.00  0.00     0.216 C 
BRANCH  29  30
HETATM   30  O4  UNL     1      16.164  18.589  31.939  1.00  0.00    -0.385 OA
ATOM     31  H4  UNL     1      15.540  18.578  31.223  1.00  0.00     0.210 HD
ENDBRANCH  29  30
BRANCH  29  32
HETATM   32  C16 UNL     1      18.412  19.075  31.272  1.00  0.00     0.149 C 
BRANCH  32  33
HETATM   33  O5  UNL     1      19.153  19.289  32.331  1.00  0.00    -0.347 OA
ATOM     34  H5  UNL     1      19.894  18.701  32.418  1.00  0.00     0.219 HD
ENDBRANCH  32  33
BRANCH  32  35
HETATM   35  N6  UNL     1      18.735  19.783  30.105  1.00  0.00    -0.343 N 
HETATM   36  C17 UNL     1      17.960  19.324  28.946  1.00  0.00     0.130 C 
HETATM   37  C18 UNL     1      18.941  18.968  27.863  1.00  0.00     0.020 C 
HETATM   38  C19 UNL     1      19.554  20.161  27.203  1.00  0.00     0.002 C 
HETATM   39  C20 UNL     1      19.112  21.462  27.813  1.00  0.00     0.005 C 
HETATM   40  C21 UNL     1      19.790  21.795  29.085  1.00  0.00     0.045 C 
HETATM   41  C22 UNL     1      19.698  20.807  30.200  1.00  0.00     0.066 C 
ENDBRANCH  32  35
ENDBRANCH  29  32
ENDBRANCH   1  29
TORSDOF 13
ENDMDL
MODEL 3
REMARK VINA RESULT: -6.952976736      2.985      5.796
REMARK  13 active torsions:
REMARK  status: ('A' for Active; 'I' for Inactive)
REMARK       I    between atoms: C1_4  and  N3_6 
REMARK    1  A    between atoms: N3_6  and  C2_8 
REMARK    2  A    between atoms: C2_8  and  C3_9 
REMARK    3  A    between atoms: C3_9  and  C4_10 
REMARK    4  A    between atoms: C4_10  and  C5_11 
REMARK    5  A    between atoms: C5_11  and  N4_12 
REMARK    6  A    between atoms: C5_11  and  C15_29 
REMARK    7  A    between atoms: N4_12  and  S1_14 
REMARK    8  A    between atoms: S1_14  and  N5_17 
REMARK    9  A    between atoms: N5_17  and  C6_19 
REMARK   10  A    between atoms: C15_29  and  O4_30 
REMARK   11  A    between atoms: C15_29  and  C16_32 
REMARK   12  A    between atoms: C16_32  and  O5_33 
REMARK   13  A    between atoms: C16_32  and  N6_35 
ROOT
HETATM    1  C5  UNL     1      20.140  16.747  32.920  1.00  0.00     0.131 C 
ENDROOT
BRANCH   1   2
HETATM    2  C4  UNL     1      19.118  15.829  33.469  1.00  0.00     0.030 C 
BRANCH   2   3
HETATM    3  C3  UNL     1      17.743  16.428  33.576  1.00  0.00     0.022 C 
BRANCH   3   4
HETATM    4  C2  UNL     1      17.314  17.043  32.238  1.00  0.00     0.122 C 
BRANCH   4   5
HETATM    5  N3  UNL     1      16.501  16.119  31.494  1.00  0.00    -0.365 N 
HETATM    6  C1  UNL     1      16.730  15.861  30.121  1.00  0.00     0.181 C 
HETATM    7  N1  UNL     1      15.792  16.061  29.231  1.00  0.00    -0.374 N 
HETATM    8  N2  UNL     1      17.976  15.384  29.654  1.00  0.00    -0.064 NA
ATOM      9  H12 UNL     1      15.958  15.875  28.242  1.00  0.00     0.158 HD
ATOM     10  H11 UNL     1      14.893  16.405  29.568  1.00  0.00     0.158 HD
ATOM     11  H3  UNL     1      15.738  15.636  31.968  1.00  0.00     0.162 HD
ENDBRANCH   4   5
ENDBRANCH   3   4
ENDBRANCH   2   3
ENDBRANCH   1   2
BRANCH   1  12
HETATM   12  N4  UNL     1      21.040  17.345  33.837  1.00  0.00    -0.295 N 
ATOM     13  H4  UNL     1      21.604  16.770  34.462  1.00  0.00     0.174 HD
BRANCH  12  14
HETATM   14  S1  UNL     1      21.156  19.024  33.873  1.00  0.00     0.315 S 
HETATM   15  O1  UNL     1      22.563  19.537  33.700  1.00  0.00    -0.183 OA
HETATM   16  O2  UNL     1      20.602  19.606  35.161  1.00  0.00    -0.183 OA
BRANCH  14  17
HETATM   17  N5  UNL     1      20.226  19.713  32.611  1.00  0.00    -0.298 N 
ATOM     18  H5  UNL     1      19.335  19.326  32.299  1.00  0.00     0.174 HD
BRANCH  17  19
HETATM   19  C6  UNL     1      20.823  20.897  32.029  1.00  0.00     0.094 C 
HETATM   20  C7  UNL     1      21.473  20.485  30.751  1.00  0.00     0.029 C 
HETATM   21  C8  UNL     1      21.380  21.438  29.613  1.00  0.00     0.040 C 
HETATM   22  C9  UNL     1      19.951  21.946  29.562  1.00  0.00     0.061 C 
HETATM   23  C10 UNL     1      19.625  22.633  28.257  1.00  0.00     0.040 C 
HETATM   24  O3  UNL     1      19.027  20.917  29.700  1.00  0.00    -0.380 OA
HETATM   25  C13 UNL     1      19.804  22.846  30.770  1.00  0.00     0.040 C 
HETATM   26  C11 UNL     1      19.234  21.418  27.415  1.00  0.00     0.029 C 
HETATM   27  C12 UNL     1      18.795  20.405  28.434  1.00  0.00     0.168 C 
HETATM   28  C14 UNL     1      19.823  21.973  31.985  1.00  0.00     0.029 C 
ENDBRANCH  17  19
ENDBRANCH  14  17
ENDBRANCH  12  14
ENDBRANCH   1  12
BRANCH   1  29
HETATM   29  C15 UNL     1      20.890  16.023  31.786  1.00  0.00     0.216 C 
BRANCH  29  30
HETATM   30  O4  UNL     1      20.257  14.854  31.560  1.00  0.00    -0.385 OA
ATOM     31  H4  UNL     1      20.163  14.755  30.620  1.00  0.00     0.210 HD
ENDBRANCH  29  30
BRANCH  29  32
HETATM   32  C16 UNL     1      21.034  16.924  30.640  1.00  0.00     0.149 C 
BRANCH  32  33
HETATM   33  O5  UNL     1      19.922  17.509  30.266  1.00  0.00    -0.347 OA
ATOM     34  H5  UNL     1      19.487  17.094  29.530  1.00  0.00     0.219 HD
ENDBRANCH  32  33
BRANCH  32  35
HETATM   35  N6  UNL     1      22.196  17.226  29.915  1.00  0.00    -0.343 N 
HETATM   36  C17 UNL     1      21.902  17.609  28.529  1.00  0.00     0.130 C 
HETATM   37  C18 UNL     1      22.718  16.718  27.635  1.00  0.00     0.020 C 
HETATM   38  C19 UNL     1      24.170  17.074  27.610  1.00  0.00     0.002 C 
HETATM   39  C20 UNL     1      24.514  18.202  28.542  1.00  0.00     0.005 C 
HETATM   40  C21 UNL     1      24.619  17.802  29.962  1.00  0.00     0.045 C 
HETATM   41  C22 UNL     1      23.432  17.147  30.588  1.00  0.00     0.066 C 
ENDBRANCH  32  35
ENDBRANCH  29  32
ENDBRANCH   1  29
TORSDOF 13
ENDMDL
MODEL 4
REMARK VINA RESULT: -6.918242103      3.140      6.289
REMARK  13 active torsions:
REMARK  status: ('A' for Active; 'I' for Inactive)
REMARK       I    between atoms: C1_4  and  N3_6 
REMARK    1  A    between atoms: N3_6  and  C2_8 
REMARK    2  A    between atoms: C2_8  and  C3_9 
REMARK    3  A    between atoms: C3_9  and  C4_10 
REMARK    4  A    between atoms: C4_10  and  C5_11 
REMARK    5  A    between atoms: C5_11  and  N4_12 
REMARK    6  A    between atoms: C5_11  and  C15_29 
REMARK    7  A    between atoms: N4_12  and  S1_14 
REMARK    8  A    between atoms: S1_14  and  N5_17 
REMARK    9  A    between atoms: N5_17  and  C6_19 
REMARK   10  A    between atoms: C15_29  and  O4_30 
REMARK   11  A    between atoms: C15_29  and  C16_32 
REMARK   12  A    between atoms: C16_32  and  O5_33 
REMARK   13  A    between atoms: C16_32  and  N6_35 
ROOT
HETATM    1  C5  UNL     1      18.845  17.755  29.041  1.00  0.00     0.131 C 
ENDROOT
BRANCH   1   2
HETATM    2  C4  UNL     1      19.117  18.509  27.797  1.00  0.00     0.030 C 
BRANCH   2   3
HETATM    3  C3  UNL     1      18.906  19.992  27.915  1.00  0.00     0.022 C 
BRANCH   3   4
HETATM    4  C2  UNL     1      19.948  20.616  28.852  1.00  0.00     0.122 C 
BRANCH   4   5
HETATM    5  N3  UNL     1      19.414  21.784  29.499  1.00  0.00    -0.365 N 
HETATM    6  C1  UNL     1      19.999  22.322  30.670  1.00  0.00     0.181 C 
HETATM    7  N1  UNL     1      19.305  22.456  31.770  1.00  0.00    -0.374 N 
HETATM    8  N2  UNL     1      21.351  22.731  30.702  1.00  0.00    -0.064 NA
ATOM      9  H12 UNL     1      19.727  22.843  32.614  1.00  0.00     0.158 HD
ATOM     10  H11 UNL     1      18.329  22.161  31.747  1.00  0.00     0.158 HD
ATOM     11  H3  UNL     1      18.590  22.237  29.103  1.00  0.00     0.162 HD
ENDBRANCH   4   5
ENDBRANCH   3   4
ENDBRANCH   2   3
ENDBRANCH   1   2
BRANCH   1  12
HETATM   12  N4  UNL     1      17.721  18.149  29.810  1.00  0.00    -0.295 N 
ATOM     13  H4  UNL     1      16.798  18.219  29.384  1.00  0.00     0.174 HD
BRANCH  12  14
HETATM   14  S1  UNL     1      17.945  18.497  31.441  1.00  0.00     0.315 S 
HETATM   15  O1  UNL     1      16.943  17.828  32.347  1.00  0.00    -0.183 OA
HETATM   16  O2  UNL     1      17.900  19.990  31.716  1.00  0.00    -0.183 OA
BRANCH  14  17
HETATM   17  N5  UNL     1      19.493  17.976  31.956  1.00  0.00    -0.298 N 
ATOM     18  H5  UNL     1      19.760  16.993  32.015  1.00  0.00     0.174 HD
BRANCH  17  19
HETATM   19  C6  UNL     1      20.388  19.062  32.300  1.00  0.00     0.094 C 
HETATM   20  C7  UNL     1      20.384  19.189  33.786  1.00  0.00     0.029 C 
HETATM   21  C8  UNL     1      21.681  19.512  34.436  1.00  0.00     0.040 C 
HETATM   22  C9  UNL     1      22.741  18.638  33.792  1.00  0.00     0.061 C 
HETATM   23  C10 UNL     1      24.024  18.599  34.588  1.00  0.00     0.040 C 
HETATM   24  O3  UNL     1      22.323  17.319  33.666  1.00  0.00    -0.380 OA
HETATM   25  C13 UNL     1      22.917  19.188  32.393  1.00  0.00     0.040 C 
HETATM   26  C11 UNL     1      23.684  17.479  35.573  1.00  0.00     0.029 C 
HETATM   27  C12 UNL     1      22.640  16.675  34.852  1.00  0.00     0.168 C 
HETATM   28  C14 UNL     1      21.677  18.861  31.622  1.00  0.00     0.029 C 
ENDBRANCH  17  19
ENDBRANCH  14  17
ENDBRANCH  12  14
ENDBRANCH   1  12
BRANCH   1  29
HETATM   29  C15 UNL     1      18.798  16.254  28.702  1.00  0.00     0.216 C 
BRANCH  29  30
HETATM   30  O4  UNL     1      19.497  15.598  29.650  1.00  0.00    -0.385 OA
ATOM     31  H4  UNL     1      19.895  14.839  29.242  1.00  0.00     0.210 HD
ENDBRANCH  29  30
BRANCH  29  32
HETATM   32  C16 UNL     1      17.406  15.838  28.510  1.00  0.00     0.149 C 
BRANCH  32  33
HETATM   33  O5  UNL     1      16.844  15.311  29.570  1.00  0.00    -0.347 OA
ATOM     34  H5  UNL     1      16.430  15.940  30.150  1.00  0.00     0.219 HD
ENDBRANCH  32  33
BRANCH  32  35
HETATM   35  N6  UNL     1      16.624  15.938  27.349  1.00  0.00    -0.343 N 
HETATM   36  C17 UNL     1      17.258  15.287  26.196  1.00  0.00     0.130 C 
HETATM   37  C18 UNL     1      17.329  16.303  25.091  1.00  0.00     0.020 C 
HETATM   38  C19 UNL     1      16.010  16.565  24.440  1.00  0.00     0.002 C 
HETATM   39  C20 UNL     1      14.879  15.808  25.080  1.00  0.00     0.005 C 
HETATM   40  C21 UNL     1      14.393  16.402  26.344  1.00  0.00     0.045 C 
HETATM   41  C22 UNL     1      15.383  16.598  27.444  1.00  0.00     0.066 C 
ENDBRANCH  32  35
ENDBRANCH  29  32
ENDBRANCH   1  29
TORSDOF 13
ENDMDL
MODEL 5
REMARK VINA RESULT: -6.909211699      3.062      5.345
REMARK  13 active torsions:
REMARK  status: ('A' for Active; 'I' for Inactive)
REMARK       I    between atoms: C1_4  and  N3_6 
REMARK    1  A    between atoms: N3_6  and  C2_8 
REMARK    2  A    between atoms: C2_8  and  C3_9 
REMARK    3  A    between atoms: C3_9  and  C4_10 
REMARK    4  A    between atoms: C4_10  and  C5_11 
REMARK    5  A    between atoms: C5_11  and  N4_12 
REMARK    6  A    between atoms: C5_11  and  C15_29 
REMARK    7  A    between atoms: N4_12  and  S1_14 
REMARK    8  A    between atoms: S1_14  and  N5_17 
REMARK    9  A    between atoms: N5_17  and  C6_19 
REMARK   10  A    between atoms: C15_29  and  O4_30 
REMARK   11  A    between atoms: C15_29  and  C16_32 
REMARK   12  A    between atoms: C16_32  and  O5_33 
REMARK   13  A    between atoms: C16_32  and  N6_35 
ROOT
HETATM    1  C5  UNL     1      17.560  17.047  29.580  1.00  0.00     0.131 C 
ENDROOT
BRANCH   1   2
HETATM    2  C4  UNL     1      17.280  16.459  28.251  1.00  0.00     0.030 C 
BRANCH   2   3
HETATM    3  C3  UNL     1      16.214  15.400  28.257  1.00  0.00     0.022 C 
BRANCH   3   4
HETATM    4  C2  UNL     1      15.501  15.340  26.899  1.00  0.00     0.122 C 
BRANCH   4   5
HETATM    5  N3  UNL     1      14.117  14.989  27.069  1.00  0.00    -0.365 N 
HETATM    6  C1  UNL     1      13.143  15.949  27.433  1.00  0.00     0.181 C 
HETATM    7  N1  UNL     1      12.417  15.799  28.511  1.00  0.00    -0.374 N 
HETATM    8  N2  UNL     1      12.916  17.107  26.654  1.00  0.00    -0.064 NA
ATOM      9  H12 UNL     1      11.716  16.491  28.773  1.00  0.00     0.158 HD
ATOM     10  H11 UNL     1      12.581  14.964  29.073  1.00  0.00     0.158 HD
ATOM     11  H3  UNL     1      13.829  14.021  26.923  1.00  0.00     0.162 HD
ENDBRANCH   4   5
ENDBRANCH   3   4
ENDBRANCH   2   3
ENDBRANCH   1   2
BRANCH   1  12
HETATM   12  N4  UNL     1      18.837  16.802  30.145  1.00  0.00    -0.295 N 
ATOM     13  H4  UNL     1      19.659  17.302  29.809  1.00  0.00     0.174 HD
BRANCH  12  14
HETATM   14  S1  UNL     1      18.964  15.668  31.382  1.00  0.00     0.315 S 
HETATM   15  O1  UNL     1      19.008  14.242  30.894  1.00  0.00    -0.183 OA
HETATM   16  O2  UNL     1      17.828  15.785  32.382  1.00  0.00    -0.183 OA
BRANCH  14  17
HETATM   17  N5  UNL     1      20.402  15.922  32.278  1.00  0.00    -0.298 N 
ATOM     18  H5  UNL     1      21.010  15.163  32.584  1.00  0.00     0.174 HD
BRANCH  17  19
HETATM   19  C6  UNL     1      20.672  17.317  32.560  1.00  0.00     0.094 C 
HETATM   20  C7  UNL     1      20.520  17.511  34.031  1.00  0.00     0.029 C 
HETATM   21  C8  UNL     1      21.480  18.436  34.688  1.00  0.00     0.040 C 
HETATM   22  C9  UNL     1      22.861  18.119  34.144  1.00  0.00     0.061 C 
HETATM   23  C10 UNL     1      23.967  18.726  34.975  1.00  0.00     0.040 C 
HETATM   24  O3  UNL     1      23.106  16.752  34.110  1.00  0.00    -0.380 OA
HETATM   25  C13 UNL     1      22.847  18.608  32.711  1.00  0.00     0.040 C 
HETATM   26  C11 UNL     1      24.122  17.634  36.035  1.00  0.00     0.029 C 
HETATM   27  C12 UNL     1      23.612  16.398  35.351  1.00  0.00     0.168 C 
HETATM   28  C14 UNL     1      21.947  17.699  31.936  1.00  0.00     0.029 C 
ENDBRANCH  17  19
ENDBRANCH  14  17
ENDBRANCH  12  14
ENDBRANCH   1  12
BRANCH   1  29
HETATM   29  C15 UNL     1      17.249  18.554  29.523  1.00  0.00     0.216 C 
BRANCH  29  30
HETATM   30  O4  UNL     1      15.908  18.694  29.512  1.00  0.00    -0.385 OA
ATOM     31  H4  UNL     1      15.710  19.590  29.759  1.00  0.00     0.210 HD
ENDBRANCH  29  30
BRANCH  29  32
HETATM   32  C16 UNL     1      17.971  19.245  30.595  1.00  0.00     0.149 C 
BRANCH  32  33
HETATM   33  O5  UNL     1      17.674  18.833  31.803  1.00  0.00    -0.347 OA
ATOM     34  H5  UNL     1      16.762  18.597  31.925  1.00  0.00     0.219 HD
ENDBRANCH  32  33
BRANCH  32  35
HETATM   35  N6  UNL     1      18.921  20.270  30.479  1.00  0.00    -0.343 N 
HETATM   36  C17 UNL     1      19.569  20.574  31.760  1.00  0.00     0.130 C 
HETATM   37  C18 UNL     1      19.407  22.047  32.007  1.00  0.00     0.020 C 
HETATM   38  C19 UNL     1      20.299  22.892  31.156  1.00  0.00     0.002 C 
HETATM   39  C20 UNL     1      21.116  22.089  30.184  1.00  0.00     0.005 C 
HETATM   40  C21 UNL     1      20.368  21.643  28.988  1.00  0.00     0.045 C 
HETATM   41  C22 UNL     1      19.135  20.831  29.204  1.00  0.00     0.066 C 
ENDBRANCH  32  35
ENDBRANCH  29  32
ENDBRANCH   1  29
TORSDOF 13
ENDMDL
