MODEL 1
REMARK VINA RESULT: -6.716230823      0.000      0.000
REMARK  8 active torsions:
REMARK  status: ('A' for Active; 'I' for Inactive)
REMARK    1  A    between atoms: C3_3  and  C4_4 
REMARK    2  A    between atoms: C4_4  and  C5_5 
REMARK    3  A    between atoms: C5_5  and  C6_6 
REMARK    4  A    between atoms: C6_6  and  N1_7 
REMARK    5  A    between atoms: C6_6  and  C20_25 
REMARK       I    between atoms: N1_7  and  C7_9 
REMARK       I    between atoms: C7_9  and  N2_11 
REMARK    6  A    between atoms: C15_19  and  C16_20 
REMARK       I    between atoms: C20_25  and  N3_27 
REMARK    7  A    between atoms: N3_27  and  C21_29 
REMARK    8  A    between atoms: N4_34  and  O4_35 
ROOT
HETATM    1  C1  UNL     1      79.114  66.501   9.154  1.00  0.00     0.012 C 
HETATM    2  C2  UNL     1      79.221  67.071  10.216  1.00  0.00    -0.117 C 
HETATM    3  C3  UNL     1      79.350  67.747  11.491  1.00  0.00     0.093 C 
ENDROOT
BRANCH   3   4
HETATM    4  C4  UNL     1      77.951  68.268  11.869  1.00  0.00     0.014 C 
BRANCH   4   5
HETATM    5  C5  UNL     1      77.168  67.079  12.284  1.00  0.00     0.036 C 
BRANCH   5   6
HETATM    6  C6  UNL     1      77.723  66.246  13.394  1.00  0.00     0.178 C 
BRANCH   6   7
HETATM    7  N1  UNL     1      77.912  64.905  12.791  1.00  0.00    -0.329 N 
HETATM    8  C7  UNL     1      79.135  64.205  12.902  1.00  0.00     0.323 C 
HETATM    9  O1  UNL     1      80.086  64.721  13.525  1.00  0.00    -0.247 OA
HETATM   10  N2  UNL     1      79.282  62.926  12.311  1.00  0.00    -0.298 N 
HETATM   11  C8  UNL     1      78.266  62.186  11.542  1.00  0.00     0.147 C 
HETATM   12  C19 UNL     1      80.463  62.127  12.361  1.00  0.00     0.046 A 
HETATM   13  C9  UNL     1      79.169  61.539  10.494  1.00  0.00    -0.002 C 
HETATM   14  C10 UNL     1      79.410  62.541   9.411  1.00  0.00     0.021 C 
HETATM   15  C11 UNL     1      78.578  60.247   9.992  1.00  0.00     0.021 C 
HETATM   16  C12 UNL     1      80.419  61.284  11.270  1.00  0.00    -0.021 A 
HETATM   17  C13 UNL     1      81.469  60.402  11.095  1.00  0.00     0.011 A 
HETATM   18  C14 UNL     1      82.524  60.363  11.979  1.00  0.00     0.016 A 
HETATM   19  C15 UNL     1      82.589  61.207  13.090  1.00  0.00     0.011 A 
HETATM   20  C18 UNL     1      81.538  62.083  13.255  1.00  0.00     0.045 A 
ATOM     21  H1  UNL     1      77.139  64.476  12.282  1.00  0.00     0.165 HD
BRANCH  19  22
HETATM   22  C16 UNL     1      83.703  61.157  14.013  1.00  0.00     0.155 C 
HETATM   23  C17 UNL     1      84.423  59.891  14.228  1.00  0.00     0.096 C 
HETATM   24  O2  UNL     1      84.048  62.184  14.624  1.00  0.00    -0.293 OA
ENDBRANCH  19  22
ENDBRANCH   6   7
BRANCH   6  25
HETATM   25  C20 UNL     1      76.896  66.135  14.594  1.00  0.00     0.240 C 
HETATM   26  O3  UNL     1      76.653  67.167  15.271  1.00  0.00    -0.271 OA
HETATM   27  N3  UNL     1      76.352  64.907  15.024  1.00  0.00    -0.355 N 
ATOM     28  H3  UNL     1      76.533  64.060  14.486  1.00  0.00     0.162 HD
BRANCH  27  29
HETATM   29  C21 UNL     1      75.526  64.832  16.241  1.00  0.00     0.089 C 
HETATM   30  C22 UNL     1      74.103  64.625  15.772  1.00  0.00     0.057 C 
HETATM   31  C23 UNL     1      73.156  64.190  16.836  1.00  0.00     0.049 C 
HETATM   32  C24 UNL     1      72.032  63.312  16.268  1.00  0.00     0.040 C 
HETATM   33  C25 UNL     1      72.436  65.452  17.339  1.00  0.00     0.040 C 
HETATM   34  N4  UNL     1      73.749  63.577  17.970  1.00  0.00    -0.278 N 
HETATM   35  C26 UNL     1      74.994  62.937  17.787  1.00  0.00     0.049 C 
HETATM   36  C27 UNL     1      75.519  62.545  19.176  1.00  0.00     0.040 C 
HETATM   37  C28 UNL     1      74.871  61.611  17.023  1.00  0.00     0.040 C 
HETATM   38  C29 UNL     1      76.050  63.732  17.102  1.00  0.00     0.057 C 
BRANCH  34  39
HETATM   39  O4  UNL     1      73.583  64.232  19.133  1.00  0.00    -0.291 OA
ATOM     40  H4  UNL     1      74.355  64.287  19.684  1.00  0.00     0.244 HD
ENDBRANCH  34  39
ENDBRANCH  27  29
ENDBRANCH   6  25
ENDBRANCH   5   6
ENDBRANCH   4   5
ENDBRANCH   3   4
TORSDOF 8
ENDMDL
MODEL 2
REMARK VINA RESULT: -6.550936712      2.445      4.150
REMARK  8 active torsions:
REMARK  status: ('A' for Active; 'I' for Inactive)
REMARK    1  A    between atoms: C3_3  and  C4_4 
REMARK    2  A    between atoms: C4_4  and  C5_5 
REMARK    3  A    between atoms: C5_5  and  C6_6 
REMARK    4  A    between atoms: C6_6  and  N1_7 
REMARK    5  A    between atoms: C6_6  and  C20_25 
REMARK       I    between atoms: N1_7  and  C7_9 
REMARK       I    between atoms: C7_9  and  N2_11 
REMARK    6  A    between atoms: C15_19  and  C16_20 
REMARK       I    between atoms: C20_25  and  N3_27 
REMARK    7  A    between atoms: N3_27  and  C21_29 
REMARK    8  A    between atoms: N4_34  and  O4_35 
ROOT
HETATM    1  C1  UNL     1      79.576  67.573  11.401  1.00  0.00     0.012 C 
HETATM    2  C2  UNL     1      79.562  66.727  12.266  1.00  0.00    -0.117 C 
HETATM    3  C3  UNL     1      79.551  65.716  13.304  1.00  0.00     0.093 C 
ENDROOT
BRANCH   3   4
HETATM    4  C4  UNL     1      79.559  64.346  12.600  1.00  0.00     0.014 C 
BRANCH   4   5
HETATM    5  C5  UNL     1      80.730  63.614  13.141  1.00  0.00     0.036 C 
BRANCH   5   6
HETATM    6  C6  UNL     1      80.458  62.387  13.949  1.00  0.00     0.178 C 
BRANCH   6   7
HETATM    7  N1  UNL     1      80.916  61.269  13.090  1.00  0.00    -0.329 N 
HETATM    8  C7  UNL     1      82.282  60.919  12.990  1.00  0.00     0.323 C 
HETATM    9  O1  UNL     1      83.132  61.561  13.642  1.00  0.00    -0.247 OA
HETATM   10  N2  UNL     1      82.686  59.847  12.157  1.00  0.00    -0.298 N 
HETATM   11  C8  UNL     1      81.816  59.000  11.324  1.00  0.00     0.147 C 
HETATM   12  C19 UNL     1      84.031  59.403  11.982  1.00  0.00     0.046 A 
HETATM   13  C9  UNL     1      82.734  58.808  10.119  1.00  0.00    -0.002 C 
HETATM   14  C10 UNL     1      82.590  60.006   9.235  1.00  0.00     0.021 C 
HETATM   15  C11 UNL     1      82.442  57.508   9.415  1.00  0.00     0.021 C 
HETATM   16  C12 UNL     1      84.085  58.776  10.754  1.00  0.00    -0.021 A 
HETATM   17  C13 UNL     1      85.299  58.255  10.350  1.00  0.00     0.011 A 
HETATM   18  C14 UNL     1      86.420  58.356  11.144  1.00  0.00     0.016 A 
HETATM   19  C15 UNL     1      86.388  58.986  12.390  1.00  0.00     0.011 A 
HETATM   20  C18 UNL     1      85.172  59.502  12.783  1.00  0.00     0.045 A 
ATOM     21  H1  UNL     1      80.228  60.739  12.557  1.00  0.00     0.165 HD
BRANCH  19  22
HETATM   22  C16 UNL     1      87.572  59.086  13.218  1.00  0.00     0.155 C 
HETATM   23  C17 UNL     1      88.672  58.123  13.045  1.00  0.00     0.096 C 
HETATM   24  O2  UNL     1      87.656  59.985  14.073  1.00  0.00    -0.293 OA
ENDBRANCH  19  22
ENDBRANCH   6   7
BRANCH   6  25
HETATM   25  C20 UNL     1      79.068  62.168  14.344  1.00  0.00     0.240 C 
HETATM   26  O3  UNL     1      78.386  61.302  13.739  1.00  0.00    -0.271 OA
HETATM   27  N3  UNL     1      78.458  62.894  15.389  1.00  0.00    -0.355 N 
ATOM     28  H3  UNL     1      78.997  63.597  15.895  1.00  0.00     0.162 HD
BRANCH  27  29
HETATM   29  C21 UNL     1      77.053  62.651  15.757  1.00  0.00     0.089 C 
HETATM   30  C22 UNL     1      76.995  62.726  17.267  1.00  0.00     0.057 C 
HETATM   31  C23 UNL     1      75.622  62.843  17.830  1.00  0.00     0.049 C 
HETATM   32  C24 UNL     1      75.615  63.632  19.147  1.00  0.00     0.040 C 
HETATM   33  C25 UNL     1      75.181  61.426  18.234  1.00  0.00     0.040 C 
HETATM   34  N4  UNL     1      74.635  63.341  16.941  1.00  0.00    -0.278 N 
HETATM   35  C26 UNL     1      75.070  64.173  15.887  1.00  0.00     0.049 C 
HETATM   36  C27 UNL     1      73.871  64.404  14.957  1.00  0.00     0.040 C 
HETATM   37  C28 UNL     1      75.473  65.574  16.368  1.00  0.00     0.040 C 
HETATM   38  C29 UNL     1      76.201  63.659  15.064  1.00  0.00     0.057 C 
BRANCH  34  39
HETATM   39  O4  UNL     1      73.636  62.487  16.650  1.00  0.00    -0.291 OA
ATOM     40  H4  UNL     1      73.895  61.699  16.188  1.00  0.00     0.244 HD
ENDBRANCH  34  39
ENDBRANCH  27  29
ENDBRANCH   6  25
ENDBRANCH   5   6
ENDBRANCH   4   5
ENDBRANCH   3   4
TORSDOF 8
ENDMDL
MODEL 3
REMARK VINA RESULT: -6.411230144      2.106      3.673
REMARK  8 active torsions:
REMARK  status: ('A' for Active; 'I' for Inactive)
REMARK    1  A    between atoms: C3_3  and  C4_4 
REMARK    2  A    between atoms: C4_4  and  C5_5 
REMARK    3  A    between atoms: C5_5  and  C6_6 
REMARK    4  A    between atoms: C6_6  and  N1_7 
REMARK    5  A    between atoms: C6_6  and  C20_25 
REMARK       I    between atoms: N1_7  and  C7_9 
REMARK       I    between atoms: C7_9  and  N2_11 
REMARK    6  A    between atoms: C15_19  and  C16_20 
REMARK       I    between atoms: C20_25  and  N3_27 
REMARK    7  A    between atoms: N3_27  and  C21_29 
REMARK    8  A    between atoms: N4_34  and  O4_35 
ROOT
HETATM    1  C1  UNL     1      76.939  67.054  13.850  1.00  0.00     0.012 C 
HETATM    2  C2  UNL     1      77.872  66.757  13.138  1.00  0.00    -0.117 C 
HETATM    3  C3  UNL     1      78.983  66.398  12.281  1.00  0.00     0.093 C 
ENDROOT
BRANCH   3   4
HETATM    4  C4  UNL     1      79.939  65.532  13.121  1.00  0.00     0.014 C 
BRANCH   4   5
HETATM    5  C5  UNL     1      79.822  64.154  12.585  1.00  0.00     0.036 C 
BRANCH   5   6
HETATM    6  C6  UNL     1      79.729  63.038  13.576  1.00  0.00     0.178 C 
BRANCH   6   7
HETATM    7  N1  UNL     1      80.246  61.854  12.849  1.00  0.00    -0.329 N 
HETATM    8  C7  UNL     1      81.608  61.482  12.907  1.00  0.00     0.323 C 
HETATM    9  O1  UNL     1      82.404  62.160  13.590  1.00  0.00    -0.247 OA
HETATM   10  N2  UNL     1      82.069  60.346  12.198  1.00  0.00    -0.298 N 
HETATM   11  C8  UNL     1      81.266  59.449  11.349  1.00  0.00     0.147 C 
HETATM   12  C19 UNL     1      83.415  59.873  12.186  1.00  0.00     0.046 A 
HETATM   13  C9  UNL     1      82.290  59.156  10.256  1.00  0.00    -0.002 C 
HETATM   14  C10 UNL     1      82.255  60.286   9.277  1.00  0.00     0.021 C 
HETATM   15  C11 UNL     1      82.042  57.811   9.624  1.00  0.00     0.021 C 
HETATM   16  C12 UNL     1      83.574  59.156  11.019  1.00  0.00    -0.021 A 
HETATM   17  C13 UNL     1      84.811  58.592  10.773  1.00  0.00     0.011 A 
HETATM   18  C14 UNL     1      85.853  58.738  11.662  1.00  0.00     0.016 A 
HETATM   19  C15 UNL     1      85.715  59.460  12.849  1.00  0.00     0.011 A 
HETATM   20  C18 UNL     1      84.477  60.019  13.085  1.00  0.00     0.045 A 
ATOM     21  H1  UNL     1      79.601  61.293  12.292  1.00  0.00     0.165 HD
BRANCH  19  22
HETATM   22  C16 UNL     1      86.815  59.607  13.778  1.00  0.00     0.155 C 
HETATM   23  C17 UNL     1      88.190  59.309  13.341  1.00  0.00     0.096 C 
HETATM   24  O2  UNL     1      86.597  59.984  14.943  1.00  0.00    -0.293 OA
ENDBRANCH  19  22
ENDBRANCH   6   7
BRANCH   6  25
HETATM   25  C20 UNL     1      78.396  62.751  14.103  1.00  0.00     0.240 C 
HETATM   26  O3  UNL     1      77.658  61.932  13.497  1.00  0.00    -0.271 OA
HETATM   27  N3  UNL     1      77.902  63.360  15.277  1.00  0.00    -0.355 N 
ATOM     28  H3  UNL     1      78.488  64.022  15.785  1.00  0.00     0.162 HD
BRANCH  27  29
HETATM   29  C21 UNL     1      76.552  63.051  15.777  1.00  0.00     0.089 C 
HETATM   30  C22 UNL     1      76.678  62.926  17.279  1.00  0.00     0.057 C 
HETATM   31  C23 UNL     1      75.384  62.948  18.014  1.00  0.00     0.049 C 
HETATM   32  C24 UNL     1      75.539  63.558  19.415  1.00  0.00     0.040 C 
HETATM   33  C25 UNL     1      74.993  61.485  18.278  1.00  0.00     0.040 C 
HETATM   34  N4  UNL     1      74.297  63.544  17.324  1.00  0.00    -0.278 N 
HETATM   35  C26 UNL     1      74.603  64.514  16.344  1.00  0.00     0.049 C 
HETATM   36  C27 UNL     1      73.300  64.848  15.604  1.00  0.00     0.040 C 
HETATM   37  C28 UNL     1      75.064  65.845  16.953  1.00  0.00     0.040 C 
HETATM   38  C29 UNL     1      75.624  64.128  15.330  1.00  0.00     0.057 C 
BRANCH  34  39
HETATM   39  O4  UNL     1      73.269  62.723  17.046  1.00  0.00    -0.291 OA
ATOM     40  H4  UNL     1      72.404  63.106  17.139  1.00  0.00     0.244 HD
ENDBRANCH  34  39
ENDBRANCH  27  29
ENDBRANCH   6  25
ENDBRANCH   5   6
ENDBRANCH   4   5
ENDBRANCH   3   4
TORSDOF 8
ENDMDL
MODEL 4
REMARK VINA RESULT: -6.313577433      2.745      4.392
REMARK  8 active torsions:
REMARK  status: ('A' for Active; 'I' for Inactive)
REMARK    1  A    between atoms: C3_3  and  C4_4 
REMARK    2  A    between atoms: C4_4  and  C5_5 
REMARK    3  A    between atoms: C5_5  and  C6_6 
REMARK    4  A    between atoms: C6_6  and  N1_7 
REMARK    5  A    between atoms: C6_6  and  C20_25 
REMARK       I    between atoms: N1_7  and  C7_9 
REMARK       I    between atoms: C7_9  and  N2_11 
REMARK    6  A    between atoms: C15_19  and  C16_20 
REMARK       I    between atoms: C20_25  and  N3_27 
REMARK    7  A    between atoms: N3_27  and  C21_29 
REMARK    8  A    between atoms: N4_34  and  O4_35 
ROOT
HETATM    1  C1  UNL     1      79.630  67.837  11.506  1.00  0.00     0.012 C 
HETATM    2  C2  UNL     1      79.350  66.755  11.972  1.00  0.00    -0.117 C 
HETATM    3  C3  UNL     1      79.011  65.464  12.534  1.00  0.00     0.093 C 
ENDROOT
BRANCH   3   4
HETATM    4  C4  UNL     1      80.326  64.819  13.008  1.00  0.00     0.014 C 
BRANCH   4   5
HETATM    5  C5  UNL     1      80.259  63.397  12.592  1.00  0.00     0.036 C 
BRANCH   5   6
HETATM    6  C6  UNL     1      80.747  62.373  13.566  1.00  0.00     0.178 C 
BRANCH   6   7
HETATM    7  N1  UNL     1      81.221  61.253  12.718  1.00  0.00    -0.329 N 
HETATM    8  C7  UNL     1      82.580  60.868  12.686  1.00  0.00     0.323 C 
HETATM    9  O1  UNL     1      83.412  61.481  13.389  1.00  0.00    -0.247 OA
HETATM   10  N2  UNL     1      82.999  59.794  11.863  1.00  0.00    -0.298 N 
HETATM   11  C8  UNL     1      82.152  58.979  10.975  1.00  0.00     0.147 C 
HETATM   12  C19 UNL     1      84.339  59.316  11.752  1.00  0.00     0.046 A 
HETATM   13  C9  UNL     1      83.126  58.775   9.818  1.00  0.00    -0.002 C 
HETATM   14  C10 UNL     1      83.061  59.986   8.941  1.00  0.00     0.021 C 
HETATM   15  C11 UNL     1      82.838  57.491   9.084  1.00  0.00     0.021 C 
HETATM   16  C12 UNL     1      84.441  58.701  10.521  1.00  0.00    -0.021 A 
HETATM   17  C13 UNL     1      85.661  58.152  10.175  1.00  0.00     0.011 A 
HETATM   18  C14 UNL     1      86.741  58.215  11.027  1.00  0.00     0.016 A 
HETATM   19  C15 UNL     1      86.660  58.833  12.277  1.00  0.00     0.011 A 
HETATM   20  C18 UNL     1      85.439  59.377  12.613  1.00  0.00     0.045 A 
ATOM     21  H1  UNL     1      80.547  60.746  12.144  1.00  0.00     0.165 HD
BRANCH  19  22
HETATM   22  C16 UNL     1      87.801  58.892  13.166  1.00  0.00     0.155 C 
HETATM   23  C17 UNL     1      88.913  57.942  12.999  1.00  0.00     0.096 C 
HETATM   24  O2  UNL     1      87.839  59.746  14.070  1.00  0.00    -0.293 OA
ENDBRANCH  19  22
ENDBRANCH   6   7
BRANCH   6  25
HETATM   25  C20 UNL     1      79.767  61.882  14.532  1.00  0.00     0.240 C 
HETATM   26  O3  UNL     1      80.116  61.019  15.377  1.00  0.00    -0.271 OA
HETATM   27  N3  UNL     1      78.435  62.345  14.556  1.00  0.00    -0.355 N 
ATOM     28  H3  UNL     1      78.135  63.050  13.883  1.00  0.00     0.162 HD
BRANCH  27  29
HETATM   29  C21 UNL     1      77.472  61.825  15.541  1.00  0.00     0.089 C 
HETATM   30  C22 UNL     1      77.126  62.987  16.446  1.00  0.00     0.057 C 
HETATM   31  C23 UNL     1      75.924  62.773  17.299  1.00  0.00     0.049 C 
HETATM   32  C24 UNL     1      75.193  64.092  17.589  1.00  0.00     0.040 C 
HETATM   33  C25 UNL     1      76.429  62.307  18.675  1.00  0.00     0.040 C 
HETATM   34  N4  UNL     1      75.015  61.785  16.840  1.00  0.00    -0.278 N 
HETATM   35  C26 UNL     1      74.989  61.519  15.454  1.00  0.00     0.049 C 
HETATM   36  C27 UNL     1      74.098  60.288  15.237  1.00  0.00     0.040 C 
HETATM   37  C28 UNL     1      74.317  62.640  14.649  1.00  0.00     0.040 C 
HETATM   38  C29 UNL     1      76.306  61.255  14.808  1.00  0.00     0.057 C 
BRANCH  34  39
HETATM   39  O4  UNL     1      74.858  60.723  17.651  1.00  0.00    -0.291 OA
ATOM     40  H4  UNL     1      75.498  60.029  17.544  1.00  0.00     0.244 HD
ENDBRANCH  34  39
ENDBRANCH  27  29
ENDBRANCH   6  25
ENDBRANCH   5   6
ENDBRANCH   4   5
ENDBRANCH   3   4
TORSDOF 8
ENDMDL
MODEL 5
REMARK VINA RESULT: -6.305107879      3.899     10.749
REMARK  8 active torsions:
REMARK  status: ('A' for Active; 'I' for Inactive)
REMARK    1  A    between atoms: C3_3  and  C4_4 
REMARK    2  A    between atoms: C4_4  and  C5_5 
REMARK    3  A    between atoms: C5_5  and  C6_6 
REMARK    4  A    between atoms: C6_6  and  N1_7 
REMARK    5  A    between atoms: C6_6  and  C20_25 
REMARK       I    between atoms: N1_7  and  C7_9 
REMARK       I    between atoms: C7_9  and  N2_11 
REMARK    6  A    between atoms: C15_19  and  C16_20 
REMARK       I    between atoms: C20_25  and  N3_27 
REMARK    7  A    between atoms: N3_27  and  C21_29 
REMARK    8  A    between atoms: N4_34  and  O4_35 
ROOT
HETATM    1  C1  UNL     1      84.238  60.287   8.311  1.00  0.00     0.012 C 
HETATM    2  C2  UNL     1      83.540  59.631   9.052  1.00  0.00    -0.117 C 
HETATM    3  C3  UNL     1      82.702  58.845   9.934  1.00  0.00     0.093 C 
ENDROOT
BRANCH   3   4
HETATM    4  C4  UNL     1      82.032  59.827  10.913  1.00  0.00     0.014 C 
BRANCH   4   5
HETATM    5  C5  UNL     1      82.194  59.233  12.263  1.00  0.00     0.036 C 
BRANCH   5   6
HETATM    6  C6  UNL     1      82.861  60.071  13.305  1.00  0.00     0.178 C 
BRANCH   6   7
HETATM    7  N1  UNL     1      82.117  61.353  13.282  1.00  0.00    -0.329 N 
HETATM    8  C7  UNL     1      80.861  61.495  13.913  1.00  0.00     0.323 C 
HETATM    9  O1  UNL     1      80.358  60.522  14.512  1.00  0.00    -0.247 OA
HETATM   10  N2  UNL     1      80.175  62.734  13.869  1.00  0.00    -0.298 N 
HETATM   11  C8  UNL     1      80.626  63.969  13.204  1.00  0.00     0.147 C 
HETATM   12  C19 UNL     1      78.909  62.996  14.471  1.00  0.00     0.046 A 
HETATM   13  C9  UNL     1      79.281  64.483  12.694  1.00  0.00    -0.002 C 
HETATM   14  C10 UNL     1      78.976  63.779  11.410  1.00  0.00     0.021 C 
HETATM   15  C11 UNL     1      79.287  65.984  12.565  1.00  0.00     0.021 C 
HETATM   16  C12 UNL     1      78.347  64.046  13.774  1.00  0.00    -0.021 A 
HETATM   17  C13 UNL     1      77.100  64.489  14.172  1.00  0.00     0.011 A 
HETATM   18  C14 UNL     1      76.437  63.904  15.228  1.00  0.00     0.016 A 
HETATM   19  C15 UNL     1      76.987  62.840  15.947  1.00  0.00     0.011 A 
HETATM   20  C18 UNL     1      78.231  62.407  15.542  1.00  0.00     0.045 A 
ATOM     21  H1  UNL     1      82.523  62.153  12.797  1.00  0.00     0.165 HD
BRANCH  19  22
HETATM   22  C16 UNL     1      76.282  62.234  17.057  1.00  0.00     0.155 C 
HETATM   23  C17 UNL     1      76.659  62.572  18.439  1.00  0.00     0.096 C 
HETATM   24  O2  UNL     1      75.361  61.428  16.839  1.00  0.00    -0.293 OA
ENDBRANCH  19  22
ENDBRANCH   6   7
BRANCH   6  25
HETATM   25  C20 UNL     1      84.288  60.324  13.114  1.00  0.00     0.240 C 
HETATM   26  O3  UNL     1      84.786  61.394  13.549  1.00  0.00    -0.271 OA
HETATM   27  N3  UNL     1      85.136  59.405  12.460  1.00  0.00    -0.355 N 
ATOM     28  H3  UNL     1      84.751  58.530  12.106  1.00  0.00     0.162 HD
BRANCH  27  29
HETATM   29  C21 UNL     1      86.568  59.695  12.281  1.00  0.00     0.089 C 
HETATM   30  C22 UNL     1      87.288  58.375  12.447  1.00  0.00     0.057 C 
HETATM   31  C23 UNL     1      88.701  58.375  11.978  1.00  0.00     0.049 C 
HETATM   32  C24 UNL     1      89.128  56.993  11.465  1.00  0.00     0.040 C 
HETATM   33  C25 UNL     1      89.585  58.611  13.214  1.00  0.00     0.040 C 
HETATM   34  N4  UNL     1      89.034  59.385  11.038  1.00  0.00    -0.278 N 
HETATM   35  C26 UNL     1      87.992  59.892  10.232  1.00  0.00     0.049 C 
HETATM   36  C27 UNL     1      88.550  61.098   9.463  1.00  0.00     0.040 C 
HETATM   37  C28 UNL     1      87.548  58.902   9.147  1.00  0.00     0.040 C 
HETATM   38  C29 UNL     1      86.760  60.330  10.946  1.00  0.00     0.057 C 
BRANCH  34  39
HETATM   39  O4  UNL     1      89.955  60.276  11.449  1.00  0.00    -0.291 OA
ATOM     40  H4  UNL     1      90.370  60.780  10.760  1.00  0.00     0.244 HD
ENDBRANCH  34  39
ENDBRANCH  27  29
ENDBRANCH   6  25
ENDBRANCH   5   6
ENDBRANCH   4   5
ENDBRANCH   3   4
TORSDOF 8
ENDMDL
