MODEL 1
REMARK VINA RESULT: -5.813872388      0.000      0.000
REMARK  3 active torsions:
REMARK  status: ('A' for Active; 'I' for Inactive)
REMARK    1  A    between atoms: C4_4  and  C5_5 
REMARK    2  A    between atoms: C5_5  and  N1_6 
REMARK    3  A    between atoms: N1_6  and  C6_8 
ROOT
HETATM    1  C5  UNL     1     -34.472   3.841  13.603  1.00  0.00     0.153 C 
ENDROOT
BRANCH   1   2
HETATM    2  C4  UNL     1     -35.707   3.701  12.751  1.00  0.00     0.203 C 
HETATM    3  C3  UNL     1     -35.506   4.482  11.473  1.00  0.00     0.035 C 
HETATM    4  C2  UNL     1     -36.746   4.426  10.601  1.00  0.00     0.004 C 
HETATM    5  C1  UNL     1     -37.003   2.938  10.334  1.00  0.00     0.027 C 
HETATM    6  C10 UNL     1     -37.255   2.305  11.691  1.00  0.00     0.233 C 
HETATM    7  N3  UNL     1     -36.104   2.348  12.545  1.00  0.00    -0.069 N 
ATOM      8  H32 UNL     1     -35.341   1.774  12.188  1.00  0.00     0.277 HD
ATOM      9  H31 UNL     1     -36.260   1.856  13.424  1.00  0.00     0.277 HD
ENDBRANCH   1   2
BRANCH   1  10
HETATM   10  N1  UNL     1     -34.748   3.799  15.007  1.00  0.00    -0.378 N 
ATOM     11  H1  UNL     1     -35.060   2.939  15.458  1.00  0.00     0.160 HD
BRANCH  10  12
HETATM   12  C6  UNL     1     -34.571   5.010  15.755  1.00  0.00     0.072 C 
HETATM   13  N2  UNL     1     -34.305   5.096  17.000  1.00  0.00    -0.380 N 
HETATM   14  C7  UNL     1     -34.190   6.474  17.437  1.00  0.00     0.121 C 
ATOM     15  H2  UNL     1     -34.186   4.290  17.615  1.00  0.00     0.160 HD
HETATM   16  C8  UNL     1     -34.954   7.229  16.367  1.00  0.00     0.027 C 
HETATM   17  C9  UNL     1     -34.676   6.365  15.156  1.00  0.00     0.077 C 
ENDBRANCH  10  12
ENDBRANCH   1  10
TORSDOF 3
ENDMDL
MODEL 2
REMARK VINA RESULT: -5.612039195      1.157      5.615
REMARK  3 active torsions:
REMARK  status: ('A' for Active; 'I' for Inactive)
REMARK    1  A    between atoms: C4_4  and  C5_5 
REMARK    2  A    between atoms: C5_5  and  N1_6 
REMARK    3  A    between atoms: N1_6  and  C6_8 
ROOT
HETATM    1  C5  UNL     1     -34.493   4.865  14.299  1.00  0.00     0.153 C 
ENDROOT
BRANCH   1   2
HETATM    2  C4  UNL     1     -34.460   5.023  15.797  1.00  0.00     0.203 C 
HETATM    3  C3  UNL     1     -34.969   6.400  16.152  1.00  0.00     0.035 C 
HETATM    4  C2  UNL     1     -34.901   6.636  17.649  1.00  0.00     0.004 C 
HETATM    5  C1  UNL     1     -35.746   5.526  18.286  1.00  0.00     0.027 C 
HETATM    6  C10 UNL     1     -35.078   4.217  17.904  1.00  0.00     0.233 C 
HETATM    7  N3  UNL     1     -35.117   3.967  16.493  1.00  0.00    -0.069 N 
ATOM      8  H32 UNL     1     -36.069   3.819  16.156  1.00  0.00     0.277 HD
ATOM      9  H31 UNL     1     -34.733   3.052  16.255  1.00  0.00     0.277 HD
ENDBRANCH   1   2
BRANCH   1  10
HETATM   10  N1  UNL     1     -34.694   3.512  13.878  1.00  0.00    -0.378 N 
ATOM     11  H1  UNL     1     -34.196   2.741  14.322  1.00  0.00     0.160 HD
BRANCH  10  12
HETATM   12  C6  UNL     1     -35.621   3.281  12.808  1.00  0.00     0.072 C 
HETATM   13  N2  UNL     1     -36.203   2.177  12.539  1.00  0.00    -0.380 N 
HETATM   14  C7  UNL     1     -37.080   2.292  11.390  1.00  0.00     0.121 C 
ATOM     15  H2  UNL     1     -36.068   1.317  13.070  1.00  0.00     0.160 HD
HETATM   16  C8  UNL     1     -36.535   3.513  10.673  1.00  0.00     0.027 C 
HETATM   17  C9  UNL     1     -36.039   4.332  11.845  1.00  0.00     0.077 C 
ENDBRANCH  10  12
ENDBRANCH   1  10
TORSDOF 3
ENDMDL
MODEL 3
REMARK VINA RESULT: -5.610890085      1.401      1.676
REMARK  3 active torsions:
REMARK  status: ('A' for Active; 'I' for Inactive)
REMARK    1  A    between atoms: C4_4  and  C5_5 
REMARK    2  A    between atoms: C5_5  and  N1_6 
REMARK    3  A    between atoms: N1_6  and  C6_8 
ROOT
HETATM    1  C5  UNL     1     -35.027   4.650  14.622  1.00  0.00     0.153 C 
ENDROOT
BRANCH   1   2
HETATM    2  C4  UNL     1     -35.955   4.499  13.444  1.00  0.00     0.203 C 
HETATM    3  C3  UNL     1     -35.127   4.302  12.196  1.00  0.00     0.035 C 
HETATM    4  C2  UNL     1     -36.010   4.205  10.967  1.00  0.00     0.004 C 
HETATM    5  C1  UNL     1     -36.957   3.027  11.224  1.00  0.00     0.027 C 
HETATM    6  C10 UNL     1     -37.764   3.397  12.455  1.00  0.00     0.233 C 
HETATM    7  N3  UNL     1     -36.958   3.505  13.635  1.00  0.00    -0.069 N 
ATOM      8  H32 UNL     1     -36.561   2.607  13.912  1.00  0.00     0.277 HD
ATOM      9  H31 UNL     1     -37.519   3.681  14.469  1.00  0.00     0.277 HD
ENDBRANCH   1   2
BRANCH   1  10
HETATM   10  N1  UNL     1     -35.632   4.286  15.866  1.00  0.00    -0.378 N 
ATOM     11  H1  UNL     1     -36.515   3.777  15.896  1.00  0.00     0.160 HD
BRANCH  10  12
HETATM   12  C6  UNL     1     -34.950   4.662  17.071  1.00  0.00     0.072 C 
HETATM   13  N2  UNL     1     -34.618   3.883  18.025  1.00  0.00    -0.380 N 
HETATM   14  C7  UNL     1     -33.940   4.591  19.094  1.00  0.00     0.121 C 
ATOM     15  H2  UNL     1     -34.807   2.880  18.035  1.00  0.00     0.160 HD
HETATM   16  C8  UNL     1     -34.382   6.026  18.878  1.00  0.00     0.027 C 
HETATM   17  C9  UNL     1     -34.528   6.054  17.372  1.00  0.00     0.077 C 
ENDBRANCH  10  12
ENDBRANCH   1  10
TORSDOF 3
ENDMDL
MODEL 4
REMARK VINA RESULT: -5.596084329      1.980      2.521
REMARK  3 active torsions:
REMARK  status: ('A' for Active; 'I' for Inactive)
REMARK    1  A    between atoms: C4_4  and  C5_5 
REMARK    2  A    between atoms: C5_5  and  N1_6 
REMARK    3  A    between atoms: N1_6  and  C6_8 
ROOT
HETATM    1  C5  UNL     1     -34.869   4.868  15.268  1.00  0.00     0.153 C 
ENDROOT
BRANCH   1   2
HETATM    2  C4  UNL     1     -35.735   4.634  14.057  1.00  0.00     0.203 C 
HETATM    3  C3  UNL     1     -34.904   3.965  12.987  1.00  0.00     0.035 C 
HETATM    4  C2  UNL     1     -35.712   3.761  11.720  1.00  0.00     0.004 C 
HETATM    5  C1  UNL     1     -36.922   2.912  12.127  1.00  0.00     0.027 C 
HETATM    6  C10 UNL     1     -37.691   3.736  13.143  1.00  0.00     0.233 C 
HETATM    7  N3  UNL     1     -36.953   3.955  14.352  1.00  0.00    -0.069 N 
ATOM      8  H32 UNL     1     -36.794   3.089  14.867  1.00  0.00     0.277 HD
ATOM      9  H31 UNL     1     -37.505   4.446  15.055  1.00  0.00     0.277 HD
ENDBRANCH   1   2
BRANCH   1  10
HETATM   10  N1  UNL     1     -35.025   3.863  16.274  1.00  0.00    -0.378 N 
ATOM     11  H1  UNL     1     -34.942   2.872  16.049  1.00  0.00     0.160 HD
BRANCH  10  12
HETATM   12  C6  UNL     1     -35.303   4.301  17.612  1.00  0.00     0.072 C 
HETATM   13  N2  UNL     1     -36.275   5.042  17.977  1.00  0.00    -0.380 N 
HETATM   14  C7  UNL     1     -36.260   5.293  19.405  1.00  0.00     0.121 C 
ATOM     15  H2  UNL     1     -36.980   5.414  17.340  1.00  0.00     0.160 HD
HETATM   16  C8  UNL     1     -34.816   5.020  19.779  1.00  0.00     0.027 C 
HETATM   17  C9  UNL     1     -34.466   3.934  18.784  1.00  0.00     0.077 C 
ENDBRANCH  10  12
ENDBRANCH   1  10
TORSDOF 3
ENDMDL
MODEL 5
REMARK VINA RESULT: -5.555455419      1.523      5.837
REMARK  3 active torsions:
REMARK  status: ('A' for Active; 'I' for Inactive)
REMARK    1  A    between atoms: C4_4  and  C5_5 
REMARK    2  A    between atoms: C5_5  and  N1_6 
REMARK    3  A    between atoms: N1_6  and  C6_8 
ROOT
HETATM    1  C5  UNL     1     -34.852   5.193  14.886  1.00  0.00     0.153 C 
ENDROOT
BRANCH   1   2
HETATM    2  C4  UNL     1     -34.617   5.155  16.374  1.00  0.00     0.203 C 
HETATM    3  C3  UNL     1     -35.227   6.390  16.995  1.00  0.00     0.035 C 
HETATM    4  C2  UNL     1     -34.967   6.433  18.488  1.00  0.00     0.004 C 
HETATM    5  C1  UNL     1     -35.570   5.143  19.056  1.00  0.00     0.027 C 
HETATM    6  C10 UNL     1     -34.816   4.001  18.398  1.00  0.00     0.233 C 
HETATM    7  N3  UNL     1     -35.034   3.936  16.983  1.00  0.00    -0.069 N 
ATOM      8  H32 UNL     1     -36.000   3.703  16.755  1.00  0.00     0.277 HD
ATOM      9  H31 UNL     1     -34.584   3.123  16.563  1.00  0.00     0.277 HD
ENDBRANCH   1   2
BRANCH   1  10
HETATM   10  N1  UNL     1     -35.298   3.942  14.353  1.00  0.00    -0.378 N 
ATOM     11  H1  UNL     1     -35.386   3.117  14.945  1.00  0.00     0.160 HD
BRANCH  10  12
HETATM   12  C6  UNL     1     -35.615   3.892  12.955  1.00  0.00     0.072 C 
HETATM   13  N2  UNL     1     -35.506   4.852  12.121  1.00  0.00    -0.380 N 
HETATM   14  C7  UNL     1     -35.913   4.459  10.786  1.00  0.00     0.121 C 
ATOM     15  H2  UNL     1     -35.172   5.784  12.365  1.00  0.00     0.160 HD
HETATM   16  C8  UNL     1     -36.793   3.251  11.044  1.00  0.00     0.027 C 
HETATM   17  C9  UNL     1     -36.128   2.674  12.275  1.00  0.00     0.077 C 
ENDBRANCH  10  12
ENDBRANCH   1  10
TORSDOF 3
ENDMDL
