MODEL 1
REMARK VINA RESULT: -5.779060231      0.000      0.000
REMARK  4 active torsions:
REMARK  status: ('A' for Active; 'I' for Inactive)
REMARK    1  A    between atoms: S1_2  and  C2_3 
REMARK    2  A    between atoms: S1_2  and  C7_15 
REMARK    3  A    between atoms: C2_3  and  C3_4 
REMARK    4  A    between atoms: C5_6  and  N1_7 
ROOT
HETATM    1  C3  UNL     1      12.462  44.346  25.225  1.00  0.00     0.022 A 
HETATM    2  C4  UNL     1      13.293  44.264  24.100  1.00  0.00     0.073 A 
HETATM    3  C5  UNL     1      12.898  44.773  22.883  1.00  0.00     0.101 A 
HETATM    4  N2  UNL     1      11.704  45.366  22.722  1.00  0.00    -0.339 N 
ATOM      5  H2  UNL     1      11.411  45.742  21.820  1.00  0.00     0.168 HD
HETATM    6  C6  UNL     1      10.905  45.441  23.818  1.00  0.00     0.182 A 
HETATM    7  N3  UNL     1      11.278  44.948  25.014  1.00  0.00    -0.355 N 
ATOM      8  H3  UNL     1      10.632  45.036  25.798  1.00  0.00     0.166 HD
ENDROOT
BRANCH   1   9
HETATM    9  C2  UNL     1      12.882  43.777  26.518  1.00  0.00     0.120 C 
BRANCH   9  10
HETATM   10  S1  UNL     1      12.957  44.887  27.865  1.00  0.00    -0.210 SA
HETATM   11  C1  UNL     1      14.490  45.826  27.611  1.00  0.00     0.079 C 
BRANCH  10  12
HETATM   12  C7  UNL     1      13.103  44.096  29.449  1.00  0.00    -0.012 C 
HETATM   13  C8  UNL     1      14.332  44.644  30.182  1.00  0.00     0.025 C 
HETATM   14  C9  UNL     1      11.920  44.454  30.326  1.00  0.00     0.025 C 
HETATM   15  C10 UNL     1      13.182  42.597  29.361  1.00  0.00     0.025 C 
ENDBRANCH  10  12
ENDBRANCH   9  10
ENDBRANCH   1   9
BRANCH   3  16
HETATM   16  N1  UNL     1      13.673  44.690  21.857  1.00  0.00    -0.385 N 
ATOM     17  H12 UNL     1      13.288  44.942  20.947  1.00  0.00     0.157 HD
ATOM     18  H11 UNL     1      14.639  44.379  21.962  1.00  0.00     0.157 HD
ENDBRANCH   3  16
TORSDOF 4
ENDMDL
MODEL 2
REMARK VINA RESULT: -5.658693961      1.677      2.520
REMARK  4 active torsions:
REMARK  status: ('A' for Active; 'I' for Inactive)
REMARK    1  A    between atoms: S1_2  and  C2_3 
REMARK    2  A    between atoms: S1_2  and  C7_15 
REMARK    3  A    between atoms: C2_3  and  C3_4 
REMARK    4  A    between atoms: C5_6  and  N1_7 
ROOT
HETATM    1  C3  UNL     1      12.166  45.418  26.681  1.00  0.00     0.022 A 
HETATM    2  C4  UNL     1      11.814  46.463  25.815  1.00  0.00     0.073 A 
HETATM    3  C5  UNL     1      11.759  46.272  24.453  1.00  0.00     0.101 A 
HETATM    4  N2  UNL     1      12.039  45.082  23.897  1.00  0.00    -0.339 N 
ATOM      5  H2  UNL     1      12.000  44.941  22.887  1.00  0.00     0.168 HD
HETATM    6  C6  UNL     1      12.379  44.075  24.744  1.00  0.00     0.182 A 
HETATM    7  N3  UNL     1      12.437  44.248  26.077  1.00  0.00    -0.355 N 
ATOM      8  H3  UNL     1      12.699  43.451  26.658  1.00  0.00     0.166 HD
ENDROOT
BRANCH   1   9
HETATM    9  C2  UNL     1      12.247  45.637  28.135  1.00  0.00     0.120 C 
BRANCH   9  10
HETATM   10  S1  UNL     1      13.527  44.796  28.976  1.00  0.00    -0.210 SA
HETATM   11  C1  UNL     1      12.862  43.137  29.298  1.00  0.00     0.079 C 
BRANCH  10  12
HETATM   12  C7  UNL     1      13.938  45.494  30.557  1.00  0.00    -0.012 C 
HETATM   13  C8  UNL     1      15.457  45.663  30.662  1.00  0.00     0.025 C 
HETATM   14  C9  UNL     1      13.370  46.893  30.677  1.00  0.00     0.025 C 
HETATM   15  C10 UNL     1      13.429  44.683  31.716  1.00  0.00     0.025 C 
ENDBRANCH  10  12
ENDBRANCH   9  10
ENDBRANCH   1   9
BRANCH   3  16
HETATM   16  N1  UNL     1      11.435  47.242  23.669  1.00  0.00    -0.385 N 
ATOM     17  H12 UNL     1      10.501  47.642  23.767  1.00  0.00     0.157 HD
ATOM     18  H11 UNL     1      12.097  47.591  22.977  1.00  0.00     0.157 HD
ENDBRANCH   3  16
TORSDOF 4
ENDMDL
MODEL 3
REMARK VINA RESULT: -5.649251927      1.469      2.210
REMARK  4 active torsions:
REMARK  status: ('A' for Active; 'I' for Inactive)
REMARK    1  A    between atoms: S1_2  and  C2_3 
REMARK    2  A    between atoms: S1_2  and  C7_15 
REMARK    3  A    between atoms: C2_3  and  C3_4 
REMARK    4  A    between atoms: C5_6  and  N1_7 
ROOT
HETATM    1  C3  UNL     1      12.312  45.412  26.225  1.00  0.00     0.022 A 
HETATM    2  C4  UNL     1      13.438  45.664  25.429  1.00  0.00     0.073 A 
HETATM    3  C5  UNL     1      13.434  45.387  24.081  1.00  0.00     0.101 A 
HETATM    4  N2  UNL     1      12.357  44.864  23.473  1.00  0.00    -0.339 N 
ATOM      5  H2  UNL     1      12.355  44.657  22.474  1.00  0.00     0.168 HD
HETATM    6  C6  UNL     1      11.270  44.623  24.252  1.00  0.00     0.182 A 
HETATM    7  N3  UNL     1      11.260  44.889  25.572  1.00  0.00    -0.355 N 
ATOM      8  H3  UNL     1      10.413  44.684  26.101  1.00  0.00     0.166 HD
ENDROOT
BRANCH   1   9
HETATM    9  C2  UNL     1      12.333  45.689  27.672  1.00  0.00     0.120 C 
BRANCH   9  10
HETATM   10  S1  UNL     1      13.531  44.827  28.609  1.00  0.00    -0.210 SA
HETATM   11  C1  UNL     1      12.869  43.146  28.781  1.00  0.00     0.079 C 
BRANCH  10  12
HETATM   12  C7  UNL     1      13.754  45.456  30.255  1.00  0.00    -0.012 C 
HETATM   13  C8  UNL     1      13.166  44.464  31.264  1.00  0.00     0.025 C 
HETATM   14  C9  UNL     1      15.230  45.540  30.589  1.00  0.00     0.025 C 
HETATM   15  C10 UNL     1      13.151  46.818  30.459  1.00  0.00     0.025 C 
ENDBRANCH  10  12
ENDBRANCH   9  10
ENDBRANCH   1   9
BRANCH   3  16
HETATM   16  N1  UNL     1      14.477  45.623  23.362  1.00  0.00    -0.385 N 
ATOM     17  H12 UNL     1      15.389  45.587  23.817  1.00  0.00     0.157 HD
ATOM     18  H11 UNL     1      14.383  45.840  22.369  1.00  0.00     0.157 HD
ENDBRANCH   3  16
TORSDOF 4
ENDMDL
MODEL 4
REMARK VINA RESULT: -5.647125116      1.677      2.317
REMARK  4 active torsions:
REMARK  status: ('A' for Active; 'I' for Inactive)
REMARK    1  A    between atoms: S1_2  and  C2_3 
REMARK    2  A    between atoms: S1_2  and  C7_15 
REMARK    3  A    between atoms: C2_3  and  C3_4 
REMARK    4  A    between atoms: C5_6  and  N1_7 
ROOT
HETATM    1  C3  UNL     1      12.931  45.326  26.082  1.00  0.00     0.022 A 
HETATM    2  C4  UNL     1      12.423  46.434  25.391  1.00  0.00     0.073 A 
HETATM    3  C5  UNL     1      11.718  46.281  24.218  1.00  0.00     0.101 A 
HETATM    4  N2  UNL     1      11.489  45.068  23.687  1.00  0.00    -0.339 N 
ATOM      5  H2  UNL     1      10.968  44.955  22.818  1.00  0.00     0.168 HD
HETATM    6  C6  UNL     1      11.986  44.000  24.365  1.00  0.00     0.182 A 
HETATM    7  N3  UNL     1      12.677  44.135  25.512  1.00  0.00    -0.355 N 
ATOM      8  H3  UNL     1      13.024  43.293  25.971  1.00  0.00     0.166 HD
ENDROOT
BRANCH   1   9
HETATM    9  C2  UNL     1      13.706  45.501  27.323  1.00  0.00     0.120 C 
BRANCH   9  10
HETATM   10  S1  UNL     1      12.928  44.984  28.801  1.00  0.00    -0.210 SA
HETATM   11  C1  UNL     1      11.352  45.885  28.838  1.00  0.00     0.079 C 
BRANCH  10  12
HETATM   12  C7  UNL     1      13.806  45.436  30.278  1.00  0.00    -0.012 C 
HETATM   13  C8  UNL     1      15.309  45.480  29.986  1.00  0.00     0.025 C 
HETATM   14  C9  UNL     1      13.437  46.844  30.697  1.00  0.00     0.025 C 
HETATM   15  C10 UNL     1      13.533  44.517  31.437  1.00  0.00     0.025 C 
ENDBRANCH  10  12
ENDBRANCH   9  10
ENDBRANCH   1   9
BRANCH   3  16
HETATM   16  N1  UNL     1      11.256  47.308  23.593  1.00  0.00    -0.385 N 
ATOM     17  H12 UNL     1      11.749  48.195  23.704  1.00  0.00     0.157 HD
ATOM     18  H11 UNL     1      10.424  47.228  23.009  1.00  0.00     0.157 HD
ENDBRANCH   3  16
TORSDOF 4
ENDMDL
MODEL 5
REMARK VINA RESULT: -5.645243718      1.476      1.913
REMARK  4 active torsions:
REMARK  status: ('A' for Active; 'I' for Inactive)
REMARK    1  A    between atoms: S1_2  and  C2_3 
REMARK    2  A    between atoms: S1_2  and  C7_15 
REMARK    3  A    between atoms: C2_3  and  C3_4 
REMARK    4  A    between atoms: C5_6  and  N1_7 
ROOT
HETATM    1  C3  UNL     1      12.319  45.402  26.239  1.00  0.00     0.022 A 
HETATM    2  C4  UNL     1      13.444  45.659  25.443  1.00  0.00     0.073 A 
HETATM    3  C5  UNL     1      13.438  45.390  24.093  1.00  0.00     0.101 A 
HETATM    4  N2  UNL     1      12.360  44.872  23.482  1.00  0.00    -0.339 N 
ATOM      5  H2  UNL     1      12.357  44.672  22.482  1.00  0.00     0.168 HD
HETATM    6  C6  UNL     1      11.275  44.626  24.262  1.00  0.00     0.182 A 
HETATM    7  N3  UNL     1      11.266  44.884  25.583  1.00  0.00    -0.355 N 
ATOM      8  H3  UNL     1      10.419  44.676  26.112  1.00  0.00     0.166 HD
ENDROOT
BRANCH   1   9
HETATM    9  C2  UNL     1      12.341  45.669  27.687  1.00  0.00     0.120 C 
BRANCH   9  10
HETATM   10  S1  UNL     1      13.539  44.800  28.617  1.00  0.00    -0.210 SA
HETATM   11  C1  UNL     1      12.870  43.121  28.786  1.00  0.00     0.079 C 
BRANCH  10  12
HETATM   12  C7  UNL     1      13.770  45.423  30.265  1.00  0.00    -0.012 C 
HETATM   13  C8  UNL     1      15.262  45.667  30.514  1.00  0.00     0.025 C 
HETATM   14  C9  UNL     1      13.112  46.779  30.410  1.00  0.00     0.025 C 
HETATM   15  C10 UNL     1      13.212  44.517  31.327  1.00  0.00     0.025 C 
ENDBRANCH  10  12
ENDBRANCH   9  10
ENDBRANCH   1   9
BRANCH   3  16
HETATM   16  N1  UNL     1      14.480  45.632  23.374  1.00  0.00    -0.385 N 
ATOM     17  H12 UNL     1      15.381  45.701  23.848  1.00  0.00     0.157 HD
ATOM     18  H11 UNL     1      14.396  45.749  22.364  1.00  0.00     0.157 HD
ENDBRANCH   3  16
TORSDOF 4
ENDMDL
