MODEL 1
REMARK VINA RESULT: -4.773820038      0.000      0.000
REMARK  2 active torsions:
REMARK  status: ('A' for Active; 'I' for Inactive)
REMARK    1  A    between atoms: C1_2  and  N1_3 
REMARK    2  A    between atoms: N1_3  and  C2_5 
ROOT
HETATM    1  C2  UNL     1      -1.485  15.431  16.678  1.00  0.00     0.095 C 
HETATM    2  C3  UNL     1      -2.116  15.400  18.073  1.00  0.00     0.035 C 
HETATM    3  C4  UNL     1      -1.130  15.790  19.135  1.00  0.00     0.239 C 
HETATM    4  N2  UNL     1       0.007  16.490  18.599  1.00  0.00    -0.074 N 
ATOM      5  H21 UNL     1       0.717  15.854  18.235  1.00  0.00     0.277 HD
ATOM      6  H22 UNL     1       0.568  16.931  19.327  1.00  0.00     0.277 HD
HETATM    7  C5  UNL     1      -0.440  17.429  17.612  1.00  0.00     0.239 C 
HETATM    8  C6  UNL     1      -1.587  16.941  16.784  1.00  0.00     0.035 C 
HETATM    9  C7  UNL     1      -2.822  16.697  17.648  1.00  0.00     0.016 C 
ENDROOT
BRANCH   1  10
HETATM   10  N1  UNL     1      -2.378  14.814  15.741  1.00  0.00    -0.363 N 
ATOM     11  H1  UNL     1      -3.301  15.211  15.568  1.00  0.00     0.162 HD
BRANCH  10  12
HETATM   12  C1  UNL     1      -1.963  13.649  15.061  1.00  0.00     0.348 C 
HETATM   13  O1  UNL     1      -1.563  12.611  15.646  1.00  0.00    -0.284 OA
ENDBRANCH  10  12
ENDBRANCH   1  10
TORSDOF 2
ENDMDL
MODEL 2
REMARK VINA RESULT: -4.685876205      1.287      1.791
REMARK  2 active torsions:
REMARK  status: ('A' for Active; 'I' for Inactive)
REMARK    1  A    between atoms: C1_2  and  N1_3 
REMARK    2  A    between atoms: N1_3  and  C2_5 
ROOT
HETATM    1  C2  UNL     1      -1.855  15.796  16.584  1.00  0.00     0.095 C 
HETATM    2  C3  UNL     1      -0.817  16.297  17.592  1.00  0.00     0.035 C 
HETATM    3  C4  UNL     1      -0.494  17.747  17.380  1.00  0.00     0.239 C 
HETATM    4  N2  UNL     1      -1.495  18.424  16.600  1.00  0.00    -0.074 N 
ATOM      5  H21 UNL     1      -1.358  18.292  15.597  1.00  0.00     0.277 HD
ATOM      6  H22 UNL     1      -1.387  19.438  16.627  1.00  0.00     0.277 HD
HETATM    7  C5  UNL     1      -2.796  18.003  17.032  1.00  0.00     0.239 C 
HETATM    8  C6  UNL     1      -2.871  16.558  17.414  1.00  0.00     0.035 C 
HETATM    9  C7  UNL     1      -1.969  16.259  18.609  1.00  0.00     0.016 C 
ENDROOT
BRANCH   1  10
HETATM   10  N1  UNL     1      -1.939  14.367  16.661  1.00  0.00    -0.363 N 
ATOM     11  H1  UNL     1      -2.014  13.901  17.565  1.00  0.00     0.162 HD
BRANCH  10  12
HETATM   12  C1  UNL     1      -1.915  13.611  15.469  1.00  0.00     0.348 C 
HETATM   13  O1  UNL     1      -1.511  12.422  15.411  1.00  0.00    -0.284 OA
ENDBRANCH  10  12
ENDBRANCH   1  10
TORSDOF 2
ENDMDL
MODEL 3
REMARK VINA RESULT: -4.499242688      2.830      4.249
REMARK  2 active torsions:
REMARK  status: ('A' for Active; 'I' for Inactive)
REMARK    1  A    between atoms: C1_2  and  N1_3 
REMARK    2  A    between atoms: N1_3  and  C2_5 
ROOT
HETATM    1  C2  UNL     1      -0.407  16.558  18.302  1.00  0.00     0.095 C 
HETATM    2  C3  UNL     1      -1.838  16.653  18.837  1.00  0.00     0.035 C 
HETATM    3  C4  UNL     1      -2.842  16.734  17.724  1.00  0.00     0.239 C 
HETATM    4  N2  UNL     1      -2.304  16.289  16.467  1.00  0.00    -0.074 N 
ATOM      5  H21 UNL     1      -1.781  17.023  15.989  1.00  0.00     0.277 HD
ATOM      6  H22 UNL     1      -3.029  16.149  15.764  1.00  0.00     0.277 HD
HETATM    7  C5  UNL     1      -1.517  15.110  16.680  1.00  0.00     0.239 C 
HETATM    8  C6  UNL     1      -0.746  15.118  17.963  1.00  0.00     0.035 C 
HETATM    9  C7  UNL     1      -1.683  15.161  19.166  1.00  0.00     0.016 C 
ENDROOT
BRANCH   1  10
HETATM   10  N1  UNL     1       0.516  16.740  19.383  1.00  0.00    -0.363 N 
ATOM     11  H1  UNL     1       1.262  16.063  19.546  1.00  0.00     0.162 HD
BRANCH  10  12
HETATM   12  C1  UNL     1       0.381  17.867  20.221  1.00  0.00     0.348 C 
HETATM   13  O1  UNL     1       0.135  17.790  21.451  1.00  0.00    -0.284 OA
ENDBRANCH  10  12
ENDBRANCH   1  10
TORSDOF 2
ENDMDL
MODEL 4
REMARK VINA RESULT: -4.488803459      1.408      1.515
REMARK  2 active torsions:
REMARK  status: ('A' for Active; 'I' for Inactive)
REMARK    1  A    between atoms: C1_2  and  N1_3 
REMARK    2  A    between atoms: N1_3  and  C2_5 
ROOT
HETATM    1  C2  UNL     1      -1.007  16.007  17.719  1.00  0.00     0.095 C 
HETATM    2  C3  UNL     1      -1.307  16.547  19.120  1.00  0.00     0.035 C 
HETATM    3  C4  UNL     1      -0.115  17.239  19.715  1.00  0.00     0.239 C 
HETATM    4  N2  UNL     1       0.859  17.605  18.721  1.00  0.00    -0.074 N 
ATOM      5  H21 UNL     1       1.480  16.831  18.486  1.00  0.00     0.277 HD
ATOM      6  H22 UNL     1       1.561  18.247  19.087  1.00  0.00     0.277 HD
HETATM    7  C5  UNL     1       0.185  18.132  17.570  1.00  0.00     0.239 C 
HETATM    8  C6  UNL     1      -1.110  17.449  17.259  1.00  0.00     0.035 C 
HETATM    9  C7  UNL     1      -2.114  17.634  18.393  1.00  0.00     0.016 C 
ENDROOT
BRANCH   1  10
HETATM   10  N1  UNL     1      -2.076  15.146  17.304  1.00  0.00    -0.363 N 
ATOM     11  H1  UNL     1      -3.045  15.455  17.374  1.00  0.00     0.162 HD
BRANCH  10  12
HETATM   12  C1  UNL     1      -1.769  13.864  16.798  1.00  0.00     0.348 C 
HETATM   13  O1  UNL     1      -1.772  12.823  17.502  1.00  0.00    -0.284 OA
ENDBRANCH  10  12
ENDBRANCH   1  10
TORSDOF 2
ENDMDL
MODEL 5
REMARK VINA RESULT: -4.437129152      1.828      2.241
REMARK  2 active torsions:
REMARK  status: ('A' for Active; 'I' for Inactive)
REMARK    1  A    between atoms: C1_2  and  N1_3 
REMARK    2  A    between atoms: N1_3  and  C2_5 
ROOT
HETATM    1  C2  UNL     1      -1.027  15.938  18.797  1.00  0.00     0.095 C 
HETATM    2  C3  UNL     1      -2.026  17.069  19.054  1.00  0.00     0.035 C 
HETATM    3  C4  UNL     1      -1.745  17.773  20.350  1.00  0.00     0.239 C 
HETATM    4  N2  UNL     1      -0.411  17.528  20.829  1.00  0.00    -0.074 N 
ATOM      5  H21 UNL     1      -0.339  16.649  21.341  1.00  0.00     0.277 HD
ATOM      6  H22 UNL     1      -0.151  18.158  21.587  1.00  0.00     0.277 HD
HETATM    7  C5  UNL     1       0.506  17.594  19.728  1.00  0.00     0.239 C 
HETATM    8  C6  UNL     1      -0.039  17.036  18.450  1.00  0.00     0.035 C 
HETATM    9  C7  UNL     1      -1.248  17.836  17.973  1.00  0.00     0.016 C 
ENDROOT
BRANCH   1  10
HETATM   10  N1  UNL     1      -1.483  15.144  17.693  1.00  0.00    -0.363 N 
ATOM     11  H1  UNL     1      -2.151  15.526  17.024  1.00  0.00     0.162 HD
BRANCH  10  12
HETATM   12  C1  UNL     1      -0.997  13.828  17.546  1.00  0.00     0.348 C 
HETATM   13  O1  UNL     1      -1.743  12.826  17.403  1.00  0.00    -0.284 OA
ENDBRANCH  10  12
ENDBRANCH   1  10
TORSDOF 2
ENDMDL
