MODEL 1
REMARK VINA RESULT: -8.352069952      0.000      0.000
REMARK  16 active torsions:
REMARK  status: ('A' for Active; 'I' for Inactive)
REMARK    1  A    between atoms: O1_2  and  C2_3 
REMARK    2  A    between atoms: C2_3  and  O2_4 
REMARK    3  A    between atoms: C2_3  and  C3_6 
REMARK    4  A    between atoms: C3_6  and  N1_7 
REMARK    5  A    between atoms: C3_6  and  C13_37 
REMARK    6  A    between atoms: N1_7  and  C4_9 
REMARK    7  A    between atoms: N4_16  and  N5_17 
REMARK    8  A    between atoms: C6_20  and  C7_21 
REMARK    9  A    between atoms: C7_21  and  S1_22 
REMARK   10  A    between atoms: S1_22  and  C8_23 
REMARK   11  A    between atoms: C9_28  and  C10_29 
REMARK   12  A    between atoms: C10_29  and  C11_31 
REMARK   13  A    between atoms: C11_31  and  C12_33 
REMARK   14  A    between atoms: C14_38  and  O7_39 
REMARK   15  A    between atoms: C15_43  and  N9_44 
REMARK   16  A    between atoms: N9_44  and  O8_46 
ROOT
HETATM    1  C4  UNL     1       5.160 -23.430  -3.690  1.00  0.00     0.148 A 
HETATM    2  N2  UNL     1       5.975 -22.743  -2.859  1.00  0.00    -0.173 N 
ATOM      3  H2  UNL     1       6.949 -22.505  -3.050  1.00  0.00     0.186 HD
HETATM    4  C5  UNL     1       5.308 -22.425  -1.752  1.00  0.00     0.698 A 
HETATM    5  N3  UNL     1       5.769 -21.763  -0.725  1.00  0.00    -0.233 N 
ATOM      6  H31 UNL     1       5.258 -21.520   0.123  1.00  0.00     0.174 HD
ATOM      7  H32 UNL     1       6.725 -21.413  -0.668  1.00  0.00     0.174 HD
HETATM    8  N4  UNL     1       4.039 -22.891  -1.827  1.00  0.00    -0.093 N 
HETATM    9  C6  UNL     1       3.913 -23.515  -3.000  1.00  0.00     0.106 A 
ENDROOT
BRANCH   1  10
HETATM   10  N1  UNL     1       5.492 -23.962  -4.911  1.00  0.00    -0.336 N 
ATOM     11  H1  UNL     1       4.976 -23.597  -5.712  1.00  0.00     0.168 HD
BRANCH  10  12
HETATM   12  C3  UNL     1       6.392 -24.881  -5.177  1.00  0.00     0.112 C 
BRANCH  12  13
HETATM   13  C2  UNL     1       6.073 -26.252  -4.958  1.00  0.00     0.206 C 
BRANCH  13  14
HETATM   14  O1  UNL     1       6.239 -26.990  -3.825  1.00  0.00    -0.334 OA
HETATM   15  C1  UNL     1       5.250 -27.043  -2.790  1.00  0.00     0.212 C 
ENDBRANCH  13  14
BRANCH  13  16
HETATM   16  O2  UNL     1       5.550 -26.952  -5.925  1.00  0.00    -0.339 OA
ATOM     17  H2  UNL     1       4.625 -27.117  -5.786  1.00  0.00     0.220 HD
ENDBRANCH  13  16
ENDBRANCH  12  13
BRANCH  12  18
HETATM   18  C13 UNL     1       7.639 -24.296  -5.682  1.00  0.00     0.115 A 
HETATM   19  C14 UNL     1       7.909 -23.925  -6.960  1.00  0.00     0.173 A 
HETATM   20  N8  UNL     1       9.115 -23.398  -7.277  1.00  0.00    -0.168 N 
HETATM   21  C15 UNL     1      10.090 -23.210  -6.398  1.00  0.00     0.706 A 
ATOM     22  H8  UNL     1       9.284 -23.130  -8.246  1.00  0.00     0.186 HD
HETATM   23  N10 UNL     1       9.859 -23.564  -5.134  1.00  0.00    -0.153 N 
HETATM   24  C16 UNL     1       8.686 -24.091  -4.761  1.00  0.00     0.276 A 
ATOM     25  H10 UNL     1      10.591 -23.430  -4.436  1.00  0.00     0.187 HD
HETATM   26  O9  UNL     1       8.537 -24.405  -3.531  1.00  0.00    -0.267 OA
BRANCH  19  27
HETATM   27  O7  UNL     1       7.019 -24.051  -7.973  1.00  0.00    -0.345 OA
ATOM     28  H7  UNL     1       6.562 -23.314  -8.360  1.00  0.00     0.219 HD
ENDBRANCH  19  27
BRANCH  21  29
HETATM   29  N9  UNL     1      11.218 -22.698  -6.787  1.00  0.00    -0.098 N 
ATOM     30  H9  UNL     1      11.831 -23.252  -7.385  1.00  0.00     0.213 HD
BRANCH  29  31
HETATM   31  O8  UNL     1      11.609 -21.444  -6.422  1.00  0.00    -0.276 OA
ATOM     32  H8  UNL     1      11.730 -20.747  -7.056  1.00  0.00     0.245 HD
ENDBRANCH  29  31
ENDBRANCH  21  29
ENDBRANCH  12  18
ENDBRANCH  10  12
ENDBRANCH   1  10
BRANCH   9  33
HETATM   33  C7  UNL     1       2.764 -24.149  -3.659  1.00  0.00     0.145 C 
BRANCH  33  34
HETATM   34  S1  UNL     1       1.230 -23.318  -3.379  1.00  0.00    -0.097 SA
BRANCH  34  35
HETATM   35  C8  UNL     1       1.062 -21.749  -4.223  1.00  0.00     0.129 A 
HETATM   36  N6  UNL     1       1.618 -20.581  -3.831  1.00  0.00    -0.287 N 
HETATM   37  N7  UNL     1       1.419 -19.539  -4.499  1.00  0.00    -0.289 N 
ATOM     38  H6  UNL     1       2.199 -20.548  -2.993  1.00  0.00     0.188 HD
HETATM   39  C9  UNL     1       0.661 -19.576  -5.591  1.00  0.00     0.146 A 
ATOM     40  H7  UNL     1       1.840 -18.658  -4.203  1.00  0.00     0.188 HD
HETATM   41  S2  UNL     1       0.243 -21.232  -5.606  1.00  0.00    -0.041 SA
BRANCH  39  42
HETATM   42  C10 UNL     1       0.301 -18.489  -6.511  1.00  0.00     0.263 C 
HETATM   43  O3  UNL     1       0.265 -18.763  -7.732  1.00  0.00    -0.281 OA
BRANCH  42  44
HETATM   44  C11 UNL     1       0.017 -17.192  -5.957  1.00  0.00     0.300 C 
HETATM   45  O4  UNL     1       0.559 -16.820  -4.897  1.00  0.00    -0.277 OA
BRANCH  44  46
HETATM   46  C12 UNL     1      -0.908 -16.305  -6.635  1.00  0.00     0.255 C 
HETATM   47  O5  UNL     1      -2.139 -16.389  -6.451  1.00  0.00    -0.641 OA
HETATM   48  O6  UNL     1      -0.474 -15.315  -7.525  1.00  0.00    -0.641 OA
ENDBRANCH  44  46
ENDBRANCH  42  44
ENDBRANCH  39  42
ENDBRANCH  34  35
ENDBRANCH  33  34
ENDBRANCH   9  33
BRANCH   8  49
HETATM   49  N5  UNL     1       3.037 -22.691  -0.865  1.00  0.00    -0.324 N 
ATOM     50  H52 UNL     1       3.132 -22.776   0.146  1.00  0.00     0.178 HD
ATOM     51  H51 UNL     1       2.059 -22.475  -1.062  1.00  0.00     0.178 HD
ENDBRANCH   8  49
TORSDOF 16
ENDMDL
MODEL 2
REMARK VINA RESULT: -8.231191255      4.366      6.390
REMARK  16 active torsions:
REMARK  status: ('A' for Active; 'I' for Inactive)
REMARK    1  A    between atoms: O1_2  and  C2_3 
REMARK    2  A    between atoms: C2_3  and  O2_4 
REMARK    3  A    between atoms: C2_3  and  C3_6 
REMARK    4  A    between atoms: C3_6  and  N1_7 
REMARK    5  A    between atoms: C3_6  and  C13_37 
REMARK    6  A    between atoms: N1_7  and  C4_9 
REMARK    7  A    between atoms: N4_16  and  N5_17 
REMARK    8  A    between atoms: C6_20  and  C7_21 
REMARK    9  A    between atoms: C7_21  and  S1_22 
REMARK   10  A    between atoms: S1_22  and  C8_23 
REMARK   11  A    between atoms: C9_28  and  C10_29 
REMARK   12  A    between atoms: C10_29  and  C11_31 
REMARK   13  A    between atoms: C11_31  and  C12_33 
REMARK   14  A    between atoms: C14_38  and  O7_39 
REMARK   15  A    between atoms: C15_43  and  N9_44 
REMARK   16  A    between atoms: N9_44  and  O8_46 
ROOT
HETATM    1  C4  UNL     1       8.654 -20.653  -3.417  1.00  0.00     0.148 A 
HETATM    2  N2  UNL     1       8.071 -19.768  -2.578  1.00  0.00    -0.173 N 
ATOM      3  H2  UNL     1       8.043 -18.757  -2.713  1.00  0.00     0.186 HD
HETATM    4  C5  UNL     1       7.539 -20.423  -1.549  1.00  0.00     0.698 A 
HETATM    5  N3  UNL     1       6.895 -19.901  -0.539  1.00  0.00    -0.233 N 
ATOM      6  H31 UNL     1       6.487 -20.403   0.249  1.00  0.00     0.174 HD
ATOM      7  H32 UNL     1       6.732 -18.899  -0.437  1.00  0.00     0.174 HD
HETATM    8  N4  UNL     1       7.754 -21.752  -1.685  1.00  0.00    -0.093 N 
HETATM    9  C6  UNL     1       8.438 -21.931  -2.817  1.00  0.00     0.106 A 
ENDROOT
BRANCH   1  10
HETATM   10  N1  UNL     1       9.340 -20.362  -4.570  1.00  0.00    -0.336 N 
ATOM     11  H1  UNL     1       8.919 -20.697  -5.437  1.00  0.00     0.168 HD
BRANCH  10  12
HETATM   12  C3  UNL     1      10.470 -19.705  -4.696  1.00  0.00     0.112 C 
BRANCH  12  13
HETATM   13  C2  UNL     1      11.700 -20.384  -4.459  1.00  0.00     0.206 C 
BRANCH  13  14
HETATM   14  O1  UNL     1      11.899 -21.594  -3.867  1.00  0.00    -0.334 OA
HETATM   15  C1  UNL     1      12.380 -22.733  -4.589  1.00  0.00     0.212 C 
ENDBRANCH  13  14
BRANCH  13  16
HETATM   16  O2  UNL     1      12.820 -19.831  -4.833  1.00  0.00    -0.339 OA
ATOM     17  H2  UNL     1      12.721 -19.332  -5.634  1.00  0.00     0.220 HD
ENDBRANCH  13  16
ENDBRANCH  12  13
BRANCH  12  18
HETATM   18  C13 UNL     1      10.251 -18.306  -5.081  1.00  0.00     0.115 A 
HETATM   19  C14 UNL     1      10.253 -17.796  -6.340  1.00  0.00     0.173 A 
HETATM   20  N8  UNL     1      10.036 -16.474  -6.540  1.00  0.00    -0.168 N 
HETATM   21  C15 UNL     1       9.812 -15.609  -5.561  1.00  0.00     0.706 A 
ATOM     22  H8  UNL     1      10.045 -16.124  -7.497  1.00  0.00     0.186 HD
HETATM   23  N10 UNL     1       9.803 -16.077  -4.312  1.00  0.00    -0.153 N 
HETATM   24  C16 UNL     1      10.012 -17.374  -4.053  1.00  0.00     0.276 A 
ATOM     25  H10 UNL     1       9.633 -15.434  -3.539  1.00  0.00     0.187 HD
HETATM   26  O9  UNL     1       9.988 -17.749  -2.831  1.00  0.00    -0.267 OA
BRANCH  19  27
HETATM   27  O7  UNL     1      10.466 -18.548  -7.446  1.00  0.00    -0.345 OA
ATOM     28  H7  UNL     1       9.795 -18.718  -8.097  1.00  0.00     0.219 HD
ENDBRANCH  19  27
BRANCH  21  29
HETATM   29  N9  UNL     1       9.613 -14.357  -5.840  1.00  0.00    -0.098 N 
ATOM     30  H9  UNL     1       8.792 -13.890  -5.454  1.00  0.00     0.213 HD
BRANCH  29  31
HETATM   31  O8  UNL     1      10.464 -13.646  -6.633  1.00  0.00    -0.276 OA
ATOM     32  H8  UNL     1      10.430 -12.698  -6.690  1.00  0.00     0.245 HD
ENDBRANCH  29  31
ENDBRANCH  21  29
ENDBRANCH  12  18
ENDBRANCH  10  12
ENDBRANCH   1  10
BRANCH   9  33
HETATM   33  C7  UNL     1       8.891 -23.142  -3.513  1.00  0.00     0.145 C 
BRANCH  33  34
HETATM   34  S1  UNL     1       7.994 -23.494  -4.994  1.00  0.00    -0.097 SA
BRANCH  34  35
HETATM   35  C8  UNL     1       6.213 -23.433  -4.826  1.00  0.00     0.129 A 
HETATM   36  N6  UNL     1       5.330 -23.329  -5.844  1.00  0.00    -0.287 N 
HETATM   37  N7  UNL     1       4.101 -23.283  -5.602  1.00  0.00    -0.289 N 
ATOM     38  H6  UNL     1       5.663 -23.289  -6.807  1.00  0.00     0.188 HD
HETATM   39  C9  UNL     1       3.661 -23.333  -4.348  1.00  0.00     0.146 A 
ATOM     40  H7  UNL     1       3.435 -23.206  -6.370  1.00  0.00     0.188 HD
HETATM   41  S2  UNL     1       5.148 -23.456  -3.516  1.00  0.00    -0.041 SA
BRANCH  39  42
HETATM   42  C10 UNL     1       2.282 -23.295  -3.842  1.00  0.00     0.263 C 
HETATM   43  O3  UNL     1       1.897 -24.271  -3.160  1.00  0.00    -0.281 OA
BRANCH  42  44
HETATM   44  C11 UNL     1       1.469 -22.152  -4.163  1.00  0.00     0.300 C 
HETATM   45  O4  UNL     1       1.162 -21.900  -5.345  1.00  0.00    -0.277 OA
BRANCH  44  46
HETATM   46  C12 UNL     1       1.002 -21.281  -3.103  1.00  0.00     0.255 C 
HETATM   47  O5  UNL     1       1.336 -21.467  -1.915  1.00  0.00    -0.641 OA
HETATM   48  O6  UNL     1       0.158 -20.191  -3.351  1.00  0.00    -0.641 OA
ENDBRANCH  44  46
ENDBRANCH  42  44
ENDBRANCH  39  42
ENDBRANCH  34  35
ENDBRANCH  33  34
ENDBRANCH   9  33
BRANCH   8  49
HETATM   49  N5  UNL     1       7.285 -22.750  -0.817  1.00  0.00    -0.324 N 
ATOM     50  H52 UNL     1       7.031 -22.639   0.165  1.00  0.00     0.178 HD
ATOM     51  H51 UNL     1       7.179 -23.738  -1.048  1.00  0.00     0.178 HD
ENDBRANCH   8  49
TORSDOF 16
ENDMDL
MODEL 3
REMARK VINA RESULT: -8.223307391      3.223      8.845
REMARK  16 active torsions:
REMARK  status: ('A' for Active; 'I' for Inactive)
REMARK    1  A    between atoms: O1_2  and  C2_3 
REMARK    2  A    between atoms: C2_3  and  O2_4 
REMARK    3  A    between atoms: C2_3  and  C3_6 
REMARK    4  A    between atoms: C3_6  and  N1_7 
REMARK    5  A    between atoms: C3_6  and  C13_37 
REMARK    6  A    between atoms: N1_7  and  C4_9 
REMARK    7  A    between atoms: N4_16  and  N5_17 
REMARK    8  A    between atoms: C6_20  and  C7_21 
REMARK    9  A    between atoms: C7_21  and  S1_22 
REMARK   10  A    between atoms: S1_22  and  C8_23 
REMARK   11  A    between atoms: C9_28  and  C10_29 
REMARK   12  A    between atoms: C10_29  and  C11_31 
REMARK   13  A    between atoms: C11_31  and  C12_33 
REMARK   14  A    between atoms: C14_38  and  O7_39 
REMARK   15  A    between atoms: C15_43  and  N9_44 
REMARK   16  A    between atoms: N9_44  and  O8_46 
ROOT
HETATM    1  C4  UNL     1       3.051 -23.075  -4.703  1.00  0.00     0.148 A 
HETATM    2  N2  UNL     1       3.111 -24.147  -5.524  1.00  0.00    -0.173 N 
ATOM      3  H2  UNL     1       2.662 -24.218  -6.437  1.00  0.00     0.186 HD
HETATM    4  C5  UNL     1       3.848 -25.097  -4.953  1.00  0.00     0.698 A 
HETATM    5  N3  UNL     1       4.127 -26.273  -5.447  1.00  0.00    -0.233 N 
ATOM      6  H31 UNL     1       4.691 -27.001  -5.010  1.00  0.00     0.174 HD
ATOM      7  H32 UNL     1       3.791 -26.593  -6.356  1.00  0.00     0.174 HD
HETATM    8  N4  UNL     1       4.294 -24.674  -3.747  1.00  0.00    -0.093 N 
HETATM    9  C6  UNL     1       3.823 -23.439  -3.559  1.00  0.00     0.106 A 
ENDROOT
BRANCH   1  10
HETATM   10  N1  UNL     1       2.356 -21.912  -4.923  1.00  0.00    -0.336 N 
ATOM     11  H1  UNL     1       2.876 -21.159  -5.373  1.00  0.00     0.168 HD
BRANCH  10  12
HETATM   12  C3  UNL     1       1.104 -21.648  -4.625  1.00  0.00     0.112 C 
BRANCH  12  13
HETATM   13  C2  UNL     1       0.450 -22.417  -3.621  1.00  0.00     0.206 C 
BRANCH  13  14
HETATM   14  O1  UNL     1      -0.342 -23.514  -3.775  1.00  0.00    -0.334 OA
HETATM   15  C1  UNL     1      -0.188 -24.693  -2.977  1.00  0.00     0.212 C 
ENDBRANCH  13  14
BRANCH  13  16
HETATM   16  O2  UNL     1       0.585 -22.084  -2.368  1.00  0.00    -0.339 OA
ATOM     17  H2  UNL     1       0.383 -21.168  -2.219  1.00  0.00     0.220 HD
ENDBRANCH  13  16
ENDBRANCH  12  13
BRANCH  12  18
HETATM   18  C13 UNL     1       0.572 -20.542  -5.429  1.00  0.00     0.115 A 
HETATM   19  C14 UNL     1      -0.362 -20.621  -6.412  1.00  0.00     0.173 A 
HETATM   20  N8  UNL     1      -0.754 -19.505  -7.071  1.00  0.00    -0.168 N 
HETATM   21  C15 UNL     1      -0.276 -18.295  -6.819  1.00  0.00     0.706 A 
ATOM     22  H8  UNL     1      -1.458 -19.601  -7.803  1.00  0.00     0.186 HD
HETATM   23  N10 UNL     1       0.642 -18.181  -5.860  1.00  0.00    -0.153 N 
HETATM   24  C16 UNL     1       1.070 -19.249  -5.174  1.00  0.00     0.276 A 
ATOM     25  H10 UNL     1       1.027 -17.262  -5.644  1.00  0.00     0.187 HD
HETATM   26  O9  UNL     1       1.952 -19.061  -4.268  1.00  0.00    -0.267 OA
BRANCH  19  27
HETATM   27  O7  UNL     1      -0.947 -21.784  -6.788  1.00  0.00    -0.345 OA
ATOM     28  H7  UNL     1      -0.687 -22.271  -7.561  1.00  0.00     0.219 HD
ENDBRANCH  19  27
BRANCH  21  29
HETATM   29  N9  UNL     1      -0.708 -17.277  -7.499  1.00  0.00    -0.098 N 
ATOM     30  H9  UNL     1      -0.247 -17.041  -8.378  1.00  0.00     0.213 HD
BRANCH  29  31
HETATM   31  O8  UNL     1      -1.755 -16.514  -7.078  1.00  0.00    -0.276 OA
ATOM     32  H8  UNL     1      -1.735 -15.564  -7.109  1.00  0.00     0.245 HD
ENDBRANCH  29  31
ENDBRANCH  21  29
ENDBRANCH  12  18
ENDBRANCH  10  12
ENDBRANCH   1  10
BRANCH   9  33
HETATM   33  C7  UNL     1       4.026 -22.461  -2.483  1.00  0.00     0.145 C 
BRANCH  33  34
HETATM   34  S1  UNL     1       5.552 -22.660  -1.615  1.00  0.00    -0.097 SA
BRANCH  34  35
HETATM   35  C8  UNL     1       7.010 -22.192  -2.541  1.00  0.00     0.129 A 
HETATM   36  N6  UNL     1       7.776 -21.103  -2.306  1.00  0.00    -0.287 N 
HETATM   37  N7  UNL     1       8.770 -20.870  -3.032  1.00  0.00    -0.289 N 
ATOM     38  H6  UNL     1       7.544 -20.473  -1.538  1.00  0.00     0.188 HD
HETATM   39  C9  UNL     1       9.075 -21.688  -4.035  1.00  0.00     0.146 A 
ATOM     40  H7  UNL     1       9.348 -20.049  -2.853  1.00  0.00     0.188 HD
HETATM   41  S2  UNL     1       7.824 -22.840  -3.871  1.00  0.00    -0.041 SA
BRANCH  39  42
HETATM   42  C10 UNL     1      10.181 -21.608  -4.999  1.00  0.00     0.263 C 
HETATM   43  O3  UNL     1      10.394 -22.616  -5.709  1.00  0.00    -0.281 OA
BRANCH  42  44
HETATM   44  C11 UNL     1      10.943 -20.388  -5.063  1.00  0.00     0.300 C 
HETATM   45  O4  UNL     1      10.376 -19.279  -4.992  1.00  0.00    -0.277 OA
BRANCH  44  46
HETATM   46  C12 UNL     1      12.384 -20.446  -5.212  1.00  0.00     0.255 C 
HETATM   47  O5  UNL     1      13.126 -20.714  -4.245  1.00  0.00    -0.641 OA
HETATM   48  O6  UNL     1      13.016 -20.207  -6.438  1.00  0.00    -0.641 OA
ENDBRANCH  44  46
ENDBRANCH  42  44
ENDBRANCH  39  42
ENDBRANCH  34  35
ENDBRANCH  33  34
ENDBRANCH   9  33
BRANCH   8  49
HETATM   49  N5  UNL     1       5.146 -25.391  -2.892  1.00  0.00    -0.324 N 
ATOM     50  H52 UNL     1       5.226 -25.289  -1.881  1.00  0.00     0.178 HD
ATOM     51  H51 UNL     1       5.834 -26.085  -3.184  1.00  0.00     0.178 HD
ENDBRANCH   8  49
TORSDOF 16
ENDMDL
MODEL 4
REMARK VINA RESULT: -8.209182118      3.444      6.183
REMARK  16 active torsions:
REMARK  status: ('A' for Active; 'I' for Inactive)
REMARK    1  A    between atoms: O1_2  and  C2_3 
REMARK    2  A    between atoms: C2_3  and  O2_4 
REMARK    3  A    between atoms: C2_3  and  C3_6 
REMARK    4  A    between atoms: C3_6  and  N1_7 
REMARK    5  A    between atoms: C3_6  and  C13_37 
REMARK    6  A    between atoms: N1_7  and  C4_9 
REMARK    7  A    between atoms: N4_16  and  N5_17 
REMARK    8  A    between atoms: C6_20  and  C7_21 
REMARK    9  A    between atoms: C7_21  and  S1_22 
REMARK   10  A    between atoms: S1_22  and  C8_23 
REMARK   11  A    between atoms: C9_28  and  C10_29 
REMARK   12  A    between atoms: C10_29  and  C11_31 
REMARK   13  A    between atoms: C11_31  and  C12_33 
REMARK   14  A    between atoms: C14_38  and  O7_39 
REMARK   15  A    between atoms: C15_43  and  N9_44 
REMARK   16  A    between atoms: N9_44  and  O8_46 
ROOT
HETATM    1  C4  UNL     1       4.794 -24.409  -2.574  1.00  0.00     0.148 A 
HETATM    2  N2  UNL     1       5.429 -25.552  -2.228  1.00  0.00    -0.173 N 
ATOM      3  H2  UNL     1       5.929 -25.707  -1.353  1.00  0.00     0.186 HD
HETATM    4  C5  UNL     1       5.296 -26.442  -3.209  1.00  0.00     0.698 A 
HETATM    5  N3  UNL     1       5.776 -27.657  -3.231  1.00  0.00    -0.233 N 
ATOM      6  H31 UNL     1       5.675 -28.339  -3.982  1.00  0.00     0.174 HD
ATOM      7  H32 UNL     1       6.323 -28.057  -2.468  1.00  0.00     0.174 HD
HETATM    8  N4  UNL     1       4.572 -25.912  -4.221  1.00  0.00    -0.093 N 
HETATM    9  C6  UNL     1       4.249 -24.665  -3.869  1.00  0.00     0.106 A 
ENDROOT
BRANCH   1  10
HETATM   10  N1  UNL     1       4.737 -23.249  -1.843  1.00  0.00    -0.336 N 
ATOM     11  H1  UNL     1       4.068 -22.551  -2.167  1.00  0.00     0.168 HD
BRANCH  10  12
HETATM   12  C3  UNL     1       5.436 -22.927  -0.779  1.00  0.00     0.112 C 
BRANCH  12  13
HETATM   13  C2  UNL     1       6.691 -22.274  -0.941  1.00  0.00     0.206 C 
BRANCH  13  14
HETATM   14  O1  UNL     1       6.957 -20.938  -0.940  1.00  0.00    -0.334 OA
HETATM   15  C1  UNL     1       7.824 -20.326  -1.901  1.00  0.00     0.212 C 
ENDBRANCH  13  14
BRANCH  13  16
HETATM   16  O2  UNL     1       7.768 -22.987  -1.119  1.00  0.00    -0.339 OA
ATOM     17  H2  UNL     1       8.083 -22.939  -2.013  1.00  0.00     0.220 HD
ENDBRANCH  13  16
ENDBRANCH  12  13
BRANCH  12  18
HETATM   18  C13 UNL     1       4.758 -23.321   0.461  1.00  0.00     0.115 A 
HETATM   19  C14 UNL     1       4.980 -24.445   1.193  1.00  0.00     0.173 A 
HETATM   20  N8  UNL     1       4.268 -24.674   2.322  1.00  0.00    -0.168 N 
HETATM   21  C15 UNL     1       3.336 -23.853   2.784  1.00  0.00     0.706 A 
ATOM     22  H8  UNL     1       4.461 -25.527   2.846  1.00  0.00     0.186 HD
HETATM   23  N10 UNL     1       3.093 -22.741   2.090  1.00  0.00    -0.153 N 
HETATM   24  C16 UNL     1       3.763 -22.461   0.966  1.00  0.00     0.276 A 
ATOM     25  H10 UNL     1       2.381 -22.091   2.423  1.00  0.00     0.187 HD
HETATM   26  O9  UNL     1       3.476 -21.375   0.355  1.00  0.00    -0.267 OA
BRANCH  19  27
HETATM   27  O7  UNL     1       5.898 -25.381   0.854  1.00  0.00    -0.345 OA
ATOM     28  H7  UNL     1       5.710 -26.109   0.274  1.00  0.00     0.219 HD
ENDBRANCH  19  27
BRANCH  21  29
HETATM   29  N9  UNL     1       2.700 -24.150   3.876  1.00  0.00    -0.098 N 
ATOM     30  H9  UNL     1       3.148 -24.764   4.556  1.00  0.00     0.213 HD
BRANCH  29  31
HETATM   31  O8  UNL     1       1.453 -23.669   4.143  1.00  0.00    -0.276 OA
ATOM     32  H8  UNL     1       1.229 -23.281   4.981  1.00  0.00     0.245 HD
ENDBRANCH  29  31
ENDBRANCH  21  29
ENDBRANCH  12  18
ENDBRANCH  10  12
ENDBRANCH   1  10
BRANCH   9  33
HETATM   33  C7  UNL     1       3.425 -23.640  -4.521  1.00  0.00     0.145 C 
BRANCH  33  34
HETATM   34  S1  UNL     1       1.884 -23.339  -3.712  1.00  0.00    -0.097 SA
BRANCH  34  35
HETATM   35  C8  UNL     1       1.058 -21.830  -4.207  1.00  0.00     0.129 A 
HETATM   36  N6  UNL     1       0.795 -20.777  -3.402  1.00  0.00    -0.287 N 
HETATM   37  N7  UNL     1       0.198 -19.775  -3.860  1.00  0.00    -0.289 N 
ATOM     38  H6  UNL     1       1.083 -20.797  -2.424  1.00  0.00     0.188 HD
HETATM   39  C9  UNL     1      -0.181 -19.743  -5.134  1.00  0.00     0.146 A 
ATOM     40  H7  UNL     1       0.001 -18.979  -3.252  1.00  0.00     0.188 HD
HETATM   41  S2  UNL     1       0.385 -21.269  -5.651  1.00  0.00    -0.041 SA
BRANCH  39  42
HETATM   42  C10 UNL     1      -0.884 -18.683  -5.871  1.00  0.00     0.263 C 
HETATM   43  O3  UNL     1      -1.813 -19.037  -6.631  1.00  0.00    -0.281 OA
BRANCH  42  44
HETATM   44  C11 UNL     1      -0.463 -17.321  -5.675  1.00  0.00     0.300 C 
HETATM   45  O4  UNL     1       0.443 -17.046  -4.863  1.00  0.00    -0.277 OA
BRANCH  44  46
HETATM   46  C12 UNL     1      -1.097 -16.256  -6.426  1.00  0.00     0.255 C 
HETATM   47  O5  UNL     1      -2.296 -15.960  -6.246  1.00  0.00    -0.641 OA
HETATM   48  O6  UNL     1      -0.405 -15.507  -7.385  1.00  0.00    -0.641 OA
ENDBRANCH  44  46
ENDBRANCH  42  44
ENDBRANCH  39  42
ENDBRANCH  34  35
ENDBRANCH  33  34
ENDBRANCH   9  33
BRANCH   8  49
HETATM   49  N5  UNL     1       4.187 -26.584  -5.392  1.00  0.00    -0.324 N 
ATOM     50  H52 UNL     1       3.368 -27.178  -5.516  1.00  0.00     0.178 HD
ATOM     51  H51 UNL     1       4.710 -26.599  -6.268  1.00  0.00     0.178 HD
ENDBRANCH   8  49
TORSDOF 16
ENDMDL
MODEL 5
REMARK VINA RESULT: -8.186344030      2.301      3.464
REMARK  16 active torsions:
REMARK  status: ('A' for Active; 'I' for Inactive)
REMARK    1  A    between atoms: O1_2  and  C2_3 
REMARK    2  A    between atoms: C2_3  and  O2_4 
REMARK    3  A    between atoms: C2_3  and  C3_6 
REMARK    4  A    between atoms: C3_6  and  N1_7 
REMARK    5  A    between atoms: C3_6  and  C13_37 
REMARK    6  A    between atoms: N1_7  and  C4_9 
REMARK    7  A    between atoms: N4_16  and  N5_17 
REMARK    8  A    between atoms: C6_20  and  C7_21 
REMARK    9  A    between atoms: C7_21  and  S1_22 
REMARK   10  A    between atoms: S1_22  and  C8_23 
REMARK   11  A    between atoms: C9_28  and  C10_29 
REMARK   12  A    between atoms: C10_29  and  C11_31 
REMARK   13  A    between atoms: C11_31  and  C12_33 
REMARK   14  A    between atoms: C14_38  and  O7_39 
REMARK   15  A    between atoms: C15_43  and  N9_44 
REMARK   16  A    between atoms: N9_44  and  O8_46 
ROOT
HETATM    1  C4  UNL     1       6.329 -24.014  -4.303  1.00  0.00     0.148 A 
HETATM    2  N2  UNL     1       6.901 -25.220  -4.091  1.00  0.00    -0.173 N 
ATOM      3  H2  UNL     1       7.819 -25.373  -3.673  1.00  0.00     0.186 HD
HETATM    4  C5  UNL     1       6.077 -26.177  -4.512  1.00  0.00     0.698 A 
HETATM    5  N3  UNL     1       6.289 -27.465  -4.470  1.00  0.00    -0.233 N 
ATOM      6  H31 UNL     1       5.658 -28.198  -4.793  1.00  0.00     0.174 HD
ATOM      7  H32 UNL     1       7.143 -27.880  -4.097  1.00  0.00     0.174 HD
HETATM    8  N4  UNL     1       4.944 -25.627  -5.008  1.00  0.00    -0.093 N 
HETATM    9  C6  UNL     1       5.064 -24.302  -4.899  1.00  0.00     0.106 A 
ENDROOT
BRANCH   1  10
HETATM   10  N1  UNL     1       6.882 -22.786  -4.036  1.00  0.00    -0.336 N 
ATOM     11  H1  UNL     1       6.430 -21.987  -4.481  1.00  0.00     0.168 HD
BRANCH  10  12
HETATM   12  C3  UNL     1       7.920 -22.512  -3.279  1.00  0.00     0.112 C 
BRANCH  12  13
HETATM   13  C2  UNL     1       7.964 -23.019  -1.949  1.00  0.00     0.206 C 
BRANCH  13  14
HETATM   14  O1  UNL     1       8.496 -24.193  -1.507  1.00  0.00    -0.334 OA
HETATM   15  C1  UNL     1       9.789 -24.653  -1.915  1.00  0.00     0.212 C 
ENDBRANCH  13  14
BRANCH  13  16
HETATM   16  O2  UNL     1       7.448 -22.319  -0.978  1.00  0.00    -0.339 OA
ATOM     17  H2  UNL     1       6.795 -21.704  -1.290  1.00  0.00     0.220 HD
ENDBRANCH  13  16
ENDBRANCH  12  13
BRANCH  12  18
HETATM   18  C13 UNL     1       8.906 -21.683  -3.982  1.00  0.00     0.115 A 
HETATM   19  C14 UNL     1       9.184 -20.373  -3.753  1.00  0.00     0.173 A 
HETATM   20  N8  UNL     1      10.126 -19.739  -4.490  1.00  0.00    -0.168 N 
HETATM   21  C15 UNL     1      10.824 -20.323  -5.455  1.00  0.00     0.706 A 
ATOM     22  H8  UNL     1      10.310 -18.756  -4.292  1.00  0.00     0.186 HD
HETATM   23  N10 UNL     1      10.575 -21.608  -5.705  1.00  0.00    -0.153 N 
HETATM   24  C16 UNL     1       9.655 -22.288  -5.010  1.00  0.00     0.276 A 
ATOM     25  H10 UNL     1      11.097 -22.083  -6.441  1.00  0.00     0.187 HD
HETATM   26  O9  UNL     1       9.473 -23.519  -5.307  1.00  0.00    -0.267 OA
BRANCH  19  27
HETATM   27  O7  UNL     1       8.560 -19.637  -2.804  1.00  0.00    -0.345 OA
ATOM     28  H7  UNL     1       8.261 -18.747  -2.948  1.00  0.00     0.219 HD
ENDBRANCH  19  27
BRANCH  21  29
HETATM   29  N9  UNL     1      11.709 -19.640  -6.113  1.00  0.00    -0.098 N 
ATOM     30  H9  UNL     1      12.676 -19.964  -6.121  1.00  0.00     0.213 HD
BRANCH  29  31
HETATM   31  O8  UNL     1      11.390 -18.503  -6.794  1.00  0.00    -0.276 OA
ATOM     32  H8  UNL     1      11.963 -18.130  -7.454  1.00  0.00     0.245 HD
ENDBRANCH  29  31
ENDBRANCH  21  29
ENDBRANCH  12  18
ENDBRANCH  10  12
ENDBRANCH   1  10
BRANCH   9  33
HETATM   33  C7  UNL     1       4.140 -23.202  -5.201  1.00  0.00     0.145 C 
BRANCH  33  34
HETATM   34  S1  UNL     1       2.941 -22.907  -3.937  1.00  0.00    -0.097 SA
BRANCH  34  35
HETATM   35  C8  UNL     1       1.778 -21.595  -4.297  1.00  0.00     0.129 A 
HETATM   36  N6  UNL     1       1.069 -20.899  -3.381  1.00  0.00    -0.287 N 
HETATM   37  N7  UNL     1       0.272 -20.007  -3.754  1.00  0.00    -0.289 N 
ATOM     38  H6  UNL     1       1.183 -21.100  -2.387  1.00  0.00     0.188 HD
HETATM   39  C9  UNL     1       0.119 -19.742  -5.048  1.00  0.00     0.146 A 
ATOM     40  H7  UNL     1      -0.261 -19.481  -3.062  1.00  0.00     0.188 HD
HETATM   41  S2  UNL     1       1.212 -20.873  -5.714  1.00  0.00    -0.041 SA
BRANCH  39  42
HETATM   42  C10 UNL     1      -0.749 -18.751  -5.699  1.00  0.00     0.263 C 
HETATM   43  O3  UNL     1      -1.770 -19.182  -6.282  1.00  0.00    -0.281 OA
BRANCH  42  44
HETATM   44  C11 UNL     1      -0.373 -17.364  -5.629  1.00  0.00     0.300 C 
HETATM   45  O4  UNL     1       0.544 -16.991  -4.871  1.00  0.00    -0.277 OA
BRANCH  44  46
HETATM   46  C12 UNL     1      -1.066 -16.387  -6.445  1.00  0.00     0.255 C 
HETATM   47  O5  UNL     1      -2.290 -16.179  -6.309  1.00  0.00    -0.641 OA
HETATM   48  O6  UNL     1      -0.408 -15.630  -7.421  1.00  0.00    -0.641 OA
ENDBRANCH  44  46
ENDBRANCH  42  44
ENDBRANCH  39  42
ENDBRANCH  34  35
ENDBRANCH  33  34
ENDBRANCH   9  33
BRANCH   8  49
HETATM   49  N5  UNL     1       3.832 -26.337  -5.487  1.00  0.00    -0.324 N 
ATOM     50  H52 UNL     1       3.695 -26.696  -6.432  1.00  0.00     0.178 HD
ATOM     51  H51 UNL     1       2.987 -26.547  -4.956  1.00  0.00     0.178 HD
ENDBRANCH   8  49
TORSDOF 16
ENDMDL
