MODEL 1
REMARK VINA RESULT: -9.475340497      0.000      0.000
REMARK  14 active torsions:
REMARK  status: ('A' for Active; 'I' for Inactive)
REMARK       I    between atoms: C2_2  and  N1_4 
REMARK    1  A    between atoms: N1_4  and  C3_6 
REMARK    2  A    between atoms: C3_6  and  O2_7 
REMARK    3  A    between atoms: C3_6  and  C4_9 
REMARK    4  A    between atoms: N2_11  and  C6_12 
REMARK    5  A    between atoms: C9_15  and  N3_16 
REMARK    6  A    between atoms: N3_16  and  C10_17 
REMARK    7  A    between atoms: N3_16  and  N5_24 
REMARK    8  A    between atoms: C10_17  and  C11_18 
REMARK    9  A    between atoms: C13_27  and  C14_28 
REMARK       I    between atoms: C14_28  and  N7_30 
REMARK   10  A    between atoms: N7_30  and  N8_32 
REMARK   11  A    between atoms: C15_37  and  C16_38 
REMARK   12  A    between atoms: C16_38  and  N11_43 
REMARK   13  A    between atoms: N10_39  and  O4_41 
REMARK   14  A    between atoms: C18_47  and  N13_48 
ROOT
HETATM    1  N11 UNL     1       1.707 -21.901  -4.189  1.00  0.00    -0.276 N 
ATOM      2  H11 UNL     1       2.020 -21.703  -5.139  1.00  0.00     0.179 HD
HETATM    3  C17 UNL     1       0.958 -20.936  -3.544  1.00  0.00     0.183 C 
HETATM    4  N12 UNL     1       0.315 -20.129  -3.008  1.00  0.00    -0.172 NA
ENDROOT
BRANCH   1   5
HETATM    5  C16 UNL     1       2.071 -23.144  -3.625  1.00  0.00     0.165 C 
HETATM    6  N10 UNL     1       1.159 -23.965  -3.289  1.00  0.00    -0.250 N 
ATOM      7  H10 UNL     1       1.507 -24.843  -2.904  1.00  0.00     0.196 HD
BRANCH   5   8
HETATM    8  C15 UNL     1       3.442 -23.606  -3.401  1.00  0.00     0.128 A 
HETATM    9  N9  UNL     1       3.812 -24.799  -3.967  1.00  0.00    -0.331 N 
HETATM   10  C13 UNL     1       5.041 -25.285  -3.778  1.00  0.00     0.193 A 
ATOM     11  H9  UNL     1       3.144 -25.320  -4.535  1.00  0.00     0.168 HD
HETATM   12  N6  UNL     1       5.874 -24.568  -3.028  1.00  0.00    -0.258 N 
HETATM   13  N5  UNL     1       5.548 -23.392  -2.454  1.00  0.00    -0.173 N 
ATOM     14  H6  UNL     1       6.816 -24.930  -2.877  1.00  0.00     0.191 HD
HETATM   15  C18 UNL     1       4.318 -22.885  -2.629  1.00  0.00     0.170 A 
BRANCH  10  16
HETATM   16  C14 UNL     1       5.519 -26.542  -4.341  1.00  0.00     0.304 C 
HETATM   17  O3  UNL     1       5.393 -26.825  -5.556  1.00  0.00    -0.263 OA
HETATM   18  N7  UNL     1       6.149 -27.485  -3.495  1.00  0.00    -0.270 N 
ATOM     19  H7  UNL     1       6.259 -27.270  -2.504  1.00  0.00     0.189 HD
BRANCH  18  20
HETATM   20  N8  UNL     1       6.620 -28.697  -3.982  1.00  0.00    -0.342 N 
ATOM     21  H82 UNL     1       7.309 -28.679  -4.734  1.00  0.00     0.176 HD
ATOM     22  H81 UNL     1       6.292 -29.587  -3.606  1.00  0.00     0.176 HD
ENDBRANCH  18  20
ENDBRANCH  10  16
BRANCH  13  23
HETATM   23  N3  UNL     1       6.528 -22.759  -1.690  1.00  0.00    -0.267 N 
BRANCH  23  24
HETATM   24  C9  UNL     1       7.203 -21.573  -1.978  1.00  0.00     0.053 A 
HETATM   25  C8  UNL     1       6.997 -20.378  -1.309  1.00  0.00     0.033 A 
HETATM   26  C7  UNL     1       7.646 -19.204  -1.613  1.00  0.00     0.034 A 
HETATM   27  C6  UNL     1       8.550 -19.219  -2.640  1.00  0.00     0.057 A 
HETATM   28  C20 UNL     1       8.798 -20.364  -3.335  1.00  0.00     0.034 A 
HETATM   29  C19 UNL     1       8.123 -21.545  -3.004  1.00  0.00     0.033 A 
BRANCH  27  30
HETATM   30  N2  UNL     1       9.229 -18.023  -3.006  1.00  0.00    -0.251 N 
HETATM   31  C5  UNL     1       9.239 -16.814  -2.412  1.00  0.00     0.149 A 
HETATM   32  C4  UNL     1      10.032 -15.943  -3.113  1.00  0.00     0.092 A 
HETATM   33  N15 UNL     1      10.505 -16.655  -4.152  1.00  0.00    -0.284 N 
HETATM   34  N14 UNL     1      10.027 -17.880  -4.083  1.00  0.00    -0.236 N 
ATOM     35  H15 UNL     1      11.131 -16.303  -4.876  1.00  0.00     0.188 HD
ATOM     36  H14 UNL     1      10.234 -18.621  -4.753  1.00  0.00     0.209 HD
BRANCH  32  37
HETATM   37  C3  UNL     1      10.330 -14.493  -2.819  1.00  0.00     0.274 C 
BRANCH  37  38
HETATM   38  N1  UNL     1      11.693 -14.427  -2.279  1.00  0.00    -0.330 N 
HETATM   39  C2  UNL     1      12.222 -13.197  -1.895  1.00  0.00     0.215 C 
HETATM   40  C1  UNL     1      13.583 -13.076  -1.344  1.00  0.00     0.117 C 
HETATM   41  O1  UNL     1      11.535 -12.145  -2.012  1.00  0.00    -0.274 OA
ATOM     42  H1  UNL     1      12.249 -15.278  -2.185  1.00  0.00     0.165 HD
ENDBRANCH  37  38
BRANCH  37  43
HETATM   43  O2  UNL     1      10.308 -13.728  -3.969  1.00  0.00    -0.371 OA
ATOM     44  H2  UNL     1       9.416 -13.424  -4.088  1.00  0.00     0.212 HD
ENDBRANCH  37  43
ENDBRANCH  32  37
ENDBRANCH  27  30
ENDBRANCH  23  24
BRANCH  23  45
HETATM   45  C10 UNL     1       6.882 -23.414  -0.416  1.00  0.00     0.195 C 
BRANCH  45  46
HETATM   46  C11 UNL     1       5.745 -23.575   0.518  1.00  0.00     0.269 C 
HETATM   47  N4  UNL     1       5.211 -22.324   1.021  1.00  0.00    -0.052 N 
HETATM   48  C12 UNL     1       6.243 -22.305   2.028  1.00  0.00     0.309 C 
ATOM     49  H42 UNL     1       5.090 -21.528   0.395  1.00  0.00     0.279 HD
ATOM     50  H41 UNL     1       4.230 -22.255   1.290  1.00  0.00     0.279 HD
HETATM   51  S1  UNL     1       6.248 -24.084   2.182  1.00  0.00    -0.107 SA
ENDBRANCH  45  46
ENDBRANCH  23  45
ENDBRANCH  13  23
BRANCH  15  52
HETATM   52  N13 UNL     1       4.002 -21.790  -2.040  1.00  0.00    -0.381 N 
ATOM     53 2H13 UNL     1       4.386 -20.882  -2.301  1.00  0.00     0.157 HD
ATOM     54 1H13 UNL     1       3.304 -21.808  -1.297  1.00  0.00     0.157 HD
ENDBRANCH  15  52
ENDBRANCH   5   8
BRANCH   6  55
HETATM   55  O4  UNL     1      -0.168 -23.882  -3.351  1.00  0.00    -0.288 OA
ATOM     56  H4  UNL     1      -0.753 -23.656  -4.064  1.00  0.00     0.244 HD
ENDBRANCH   6  55
ENDBRANCH   1   5
TORSDOF 14
ENDMDL
MODEL 2
REMARK VINA RESULT: -9.269045779      0.866      1.167
REMARK  14 active torsions:
REMARK  status: ('A' for Active; 'I' for Inactive)
REMARK       I    between atoms: C2_2  and  N1_4 
REMARK    1  A    between atoms: N1_4  and  C3_6 
REMARK    2  A    between atoms: C3_6  and  O2_7 
REMARK    3  A    between atoms: C3_6  and  C4_9 
REMARK    4  A    between atoms: N2_11  and  C6_12 
REMARK    5  A    between atoms: C9_15  and  N3_16 
REMARK    6  A    between atoms: N3_16  and  C10_17 
REMARK    7  A    between atoms: N3_16  and  N5_24 
REMARK    8  A    between atoms: C10_17  and  C11_18 
REMARK    9  A    between atoms: C13_27  and  C14_28 
REMARK       I    between atoms: C14_28  and  N7_30 
REMARK   10  A    between atoms: N7_30  and  N8_32 
REMARK   11  A    between atoms: C15_37  and  C16_38 
REMARK   12  A    between atoms: C16_38  and  N11_43 
REMARK   13  A    between atoms: N10_39  and  O4_41 
REMARK   14  A    between atoms: C18_47  and  N13_48 
ROOT
HETATM    1  N11 UNL     1       1.480 -21.987  -4.278  1.00  0.00    -0.276 N 
ATOM      2  H11 UNL     1       1.627 -21.848  -5.277  1.00  0.00     0.179 HD
HETATM    3  C17 UNL     1       0.846 -20.980  -3.576  1.00  0.00     0.183 C 
HETATM    4  N12 UNL     1       0.299 -20.138  -2.989  1.00  0.00    -0.172 NA
ENDROOT
BRANCH   1   5
HETATM    5  C16 UNL     1       1.938 -23.196  -3.709  1.00  0.00     0.165 C 
HETATM    6  N10 UNL     1       1.091 -24.062  -3.324  1.00  0.00    -0.250 N 
ATOM      7  H10 UNL     1       1.504 -24.911  -2.939  1.00  0.00     0.196 HD
BRANCH   5   8
HETATM    8  C15 UNL     1       3.342 -23.574  -3.535  1.00  0.00     0.128 A 
HETATM    9  N9  UNL     1       3.795 -24.673  -4.218  1.00  0.00    -0.331 N 
HETATM   10  C13 UNL     1       5.059 -25.080  -4.081  1.00  0.00     0.193 A 
ATOM     11  H9  UNL     1       3.163 -25.182  -4.835  1.00  0.00     0.168 HD
HETATM   12  N6  UNL     1       5.842 -24.382  -3.263  1.00  0.00    -0.258 N 
HETATM   13  N5  UNL     1       5.434 -23.297  -2.574  1.00  0.00    -0.173 N 
ATOM     14  H6  UNL     1       6.810 -24.685  -3.151  1.00  0.00     0.191 HD
HETATM   15  C18 UNL     1       4.169 -22.870  -2.696  1.00  0.00     0.170 A 
BRANCH  10  16
HETATM   16  C14 UNL     1       5.625 -26.235  -4.768  1.00  0.00     0.304 C 
HETATM   17  O3  UNL     1       4.991 -26.876  -5.640  1.00  0.00    -0.263 OA
HETATM   18  N7  UNL     1       6.936 -26.659  -4.447  1.00  0.00    -0.270 N 
ATOM     19  H7  UNL     1       7.465 -26.149  -3.739  1.00  0.00     0.189 HD
BRANCH  18  20
HETATM   20  N8  UNL     1       7.519 -27.753  -5.072  1.00  0.00    -0.342 N 
ATOM     21  H82 UNL     1       7.164 -28.031  -5.987  1.00  0.00     0.176 HD
ATOM     22  H81 UNL     1       8.282 -28.273  -4.636  1.00  0.00     0.176 HD
ENDBRANCH  18  20
ENDBRANCH  10  16
BRANCH  13  23
HETATM   23  N3  UNL     1       6.371 -22.672  -1.751  1.00  0.00    -0.267 N 
BRANCH  23  24
HETATM   24  C9  UNL     1       7.089 -21.504  -2.008  1.00  0.00     0.053 A 
HETATM   25  C8  UNL     1       6.918 -20.316  -1.317  1.00  0.00     0.033 A 
HETATM   26  C7  UNL     1       7.611 -19.160  -1.591  1.00  0.00     0.034 A 
HETATM   27  C6  UNL     1       8.526 -19.186  -2.608  1.00  0.00     0.057 A 
HETATM   28  C20 UNL     1       8.741 -20.325  -3.323  1.00  0.00     0.034 A 
HETATM   29  C19 UNL     1       8.022 -21.489  -3.024  1.00  0.00     0.033 A 
BRANCH  27  30
HETATM   30  N2  UNL     1       9.250 -18.008  -2.942  1.00  0.00    -0.251 N 
HETATM   31  C5  UNL     1       9.266 -16.800  -2.346  1.00  0.00     0.149 A 
HETATM   32  C4  UNL     1      10.110 -15.949  -3.011  1.00  0.00     0.092 A 
HETATM   33  N15 UNL     1      10.607 -16.672  -4.030  1.00  0.00    -0.284 N 
HETATM   34  N14 UNL     1      10.096 -17.885  -3.984  1.00  0.00    -0.236 N 
ATOM     35  H15 UNL     1      11.273 -16.335  -4.727  1.00  0.00     0.188 HD
ATOM     36  H14 UNL     1      10.311 -18.629  -4.646  1.00  0.00     0.209 HD
BRANCH  32  37
HETATM   37  C3  UNL     1      10.431 -14.507  -2.701  1.00  0.00     0.274 C 
BRANCH  37  38
HETATM   38  N1  UNL     1      11.820 -14.462  -2.227  1.00  0.00    -0.330 N 
HETATM   39  C2  UNL     1      12.371 -13.246  -1.828  1.00  0.00     0.215 C 
HETATM   40  C1  UNL     1      13.758 -13.145  -1.341  1.00  0.00     0.117 C 
HETATM   41  O1  UNL     1      11.682 -12.190  -1.876  1.00  0.00    -0.274 OA
ATOM     42  H1  UNL     1      12.377 -15.315  -2.190  1.00  0.00     0.165 HD
ENDBRANCH  37  38
BRANCH  37  43
HETATM   43  O2  UNL     1      10.360 -13.718  -3.833  1.00  0.00    -0.371 OA
ATOM     44  H2  UNL     1      10.855 -14.158  -4.514  1.00  0.00     0.212 HD
ENDBRANCH  37  43
ENDBRANCH  32  37
ENDBRANCH  27  30
ENDBRANCH  23  24
BRANCH  23  45
HETATM   45  C10 UNL     1       6.619 -23.313  -0.446  1.00  0.00     0.195 C 
BRANCH  45  46
HETATM   46  C11 UNL     1       7.922 -24.010  -0.352  1.00  0.00     0.269 C 
HETATM   47  N4  UNL     1       7.922 -25.345  -0.918  1.00  0.00    -0.052 N 
HETATM   48  C12 UNL     1       7.381 -25.853   0.318  1.00  0.00     0.309 C 
ATOM     49  H42 UNL     1       7.446 -25.529  -1.801  1.00  0.00     0.279 HD
ATOM     50  H41 UNL     1       8.779 -25.740  -1.304  1.00  0.00     0.279 HD
HETATM   51  S1  UNL     1       8.272 -24.659   1.302  1.00  0.00    -0.107 SA
ENDBRANCH  45  46
ENDBRANCH  23  45
ENDBRANCH  13  23
BRANCH  15  52
HETATM   52  N13 UNL     1       3.776 -21.866  -1.999  1.00  0.00    -0.381 N 
ATOM     53 2H13 UNL     1       4.162 -20.927  -2.102  1.00  0.00     0.157 HD
ATOM     54 1H13 UNL     1       3.015 -21.990  -1.332  1.00  0.00     0.157 HD
ENDBRANCH  15  52
ENDBRANCH   5   8
BRANCH   6  55
HETATM   55  O4  UNL     1      -0.241 -24.058  -3.332  1.00  0.00    -0.288 OA
ATOM     56  H4  UNL     1      -0.867 -24.248  -4.020  1.00  0.00     0.244 HD
ENDBRANCH   6  55
ENDBRANCH   1   5
TORSDOF 14
ENDMDL
MODEL 3
REMARK VINA RESULT: -9.165085205      1.161      3.776
REMARK  14 active torsions:
REMARK  status: ('A' for Active; 'I' for Inactive)
REMARK       I    between atoms: C2_2  and  N1_4 
REMARK    1  A    between atoms: N1_4  and  C3_6 
REMARK    2  A    between atoms: C3_6  and  O2_7 
REMARK    3  A    between atoms: C3_6  and  C4_9 
REMARK    4  A    between atoms: N2_11  and  C6_12 
REMARK    5  A    between atoms: C9_15  and  N3_16 
REMARK    6  A    between atoms: N3_16  and  C10_17 
REMARK    7  A    between atoms: N3_16  and  N5_24 
REMARK    8  A    between atoms: C10_17  and  C11_18 
REMARK    9  A    between atoms: C13_27  and  C14_28 
REMARK       I    between atoms: C14_28  and  N7_30 
REMARK   10  A    between atoms: N7_30  and  N8_32 
REMARK   11  A    between atoms: C15_37  and  C16_38 
REMARK   12  A    between atoms: C16_38  and  N11_43 
REMARK   13  A    between atoms: N10_39  and  O4_41 
REMARK   14  A    between atoms: C18_47  and  N13_48 
ROOT
HETATM    1  N11 UNL     1       6.290 -27.068  -4.631  1.00  0.00    -0.276 N 
ATOM      2  H11 UNL     1       6.554 -28.048  -4.730  1.00  0.00     0.179 HD
HETATM    3  C17 UNL     1       6.706 -26.187  -5.609  1.00  0.00     0.183 C 
HETATM    4  N12 UNL     1       7.045 -25.450  -6.442  1.00  0.00    -0.172 NA
ENDROOT
BRANCH   1   5
HETATM    5  C16 UNL     1       5.522 -26.708  -3.501  1.00  0.00     0.165 C 
HETATM    6  N10 UNL     1       5.060 -27.621  -2.747  1.00  0.00    -0.250 N 
ATOM      7  H10 UNL     1       4.530 -27.276  -1.947  1.00  0.00     0.196 HD
BRANCH   5   8
HETATM    8  C15 UNL     1       5.215 -25.338  -3.085  1.00  0.00     0.128 A 
HETATM    9  N9  UNL     1       4.007 -24.813  -3.467  1.00  0.00    -0.331 N 
HETATM   10  C13 UNL     1       3.680 -23.561  -3.139  1.00  0.00     0.193 A 
ATOM     11  H9  UNL     1       3.354 -25.382  -4.006  1.00  0.00     0.168 HD
HETATM   12  N6  UNL     1       4.567 -22.861  -2.437  1.00  0.00    -0.258 N 
HETATM   13  N5  UNL     1       5.764 -23.340  -2.043  1.00  0.00    -0.173 N 
ATOM     14  H6  UNL     1       4.327 -21.902  -2.181  1.00  0.00     0.191 HD
HETATM   15  C18 UNL     1       6.114 -24.596  -2.362  1.00  0.00     0.170 A 
BRANCH  10  16
HETATM   16  C14 UNL     1       2.420 -22.923  -3.502  1.00  0.00     0.304 C 
HETATM   17  O3  UNL     1       1.614 -23.439  -4.313  1.00  0.00    -0.263 OA
HETATM   18  N7  UNL     1       2.084 -21.675  -2.926  1.00  0.00    -0.270 N 
ATOM     19  H7  UNL     1       2.729 -21.241  -2.265  1.00  0.00     0.189 HD
BRANCH  18  20
HETATM   20  N8  UNL     1       0.898 -21.026  -3.240  1.00  0.00    -0.342 N 
ATOM     21  H82 UNL     1       0.267 -21.471  -3.909  1.00  0.00     0.176 HD
ATOM     22  H81 UNL     1       0.652 -20.129  -2.819  1.00  0.00     0.176 HD
ENDBRANCH  18  20
ENDBRANCH  10  16
BRANCH  13  23
HETATM   23  N3  UNL     1       6.590 -22.484  -1.315  1.00  0.00    -0.267 N 
BRANCH  23  24
HETATM   24  C9  UNL     1       7.246 -21.340  -1.769  1.00  0.00     0.053 A 
HETATM   25  C8  UNL     1       8.185 -21.332  -2.787  1.00  0.00     0.033 A 
HETATM   26  C7  UNL     1       8.848 -20.206  -3.214  1.00  0.00     0.034 A 
HETATM   27  C6  UNL     1       8.562 -19.020  -2.594  1.00  0.00     0.057 A 
HETATM   28  C20 UNL     1       7.647 -18.962  -1.587  1.00  0.00     0.034 A 
HETATM   29  C19 UNL     1       6.986 -20.124  -1.172  1.00  0.00     0.033 A 
BRANCH  27  30
HETATM   30  N2  UNL     1       9.240 -17.832  -2.987  1.00  0.00    -0.251 N 
HETATM   31  C5  UNL     1       9.277 -16.620  -2.402  1.00  0.00     0.149 A 
HETATM   32  C4  UNL     1      10.058 -15.760  -3.130  1.00  0.00     0.092 A 
HETATM   33  N15 UNL     1      10.496 -16.483  -4.176  1.00  0.00    -0.284 N 
HETATM   34  N14 UNL     1      10.010 -17.704  -4.086  1.00  0.00    -0.236 N 
ATOM     35  H15 UNL     1      11.106 -16.141  -4.919  1.00  0.00     0.188 HD
ATOM     36  H14 UNL     1      10.192 -18.450  -4.756  1.00  0.00     0.209 HD
BRANCH  32  37
HETATM   37  C3  UNL     1      10.375 -14.311  -2.854  1.00  0.00     0.274 C 
BRANCH  37  38
HETATM   38  N1  UNL     1      11.721 -14.261  -2.271  1.00  0.00    -0.330 N 
HETATM   39  C2  UNL     1      12.236 -13.044  -1.831  1.00  0.00     0.215 C 
HETATM   40  C1  UNL     1      13.580 -12.939  -1.235  1.00  0.00     0.117 C 
HETATM   41  O1  UNL     1      11.551 -11.990  -1.934  1.00  0.00    -0.274 OA
ATOM     42  H1  UNL     1      12.276 -15.113  -2.189  1.00  0.00     0.165 HD
ENDBRANCH  37  38
BRANCH  37  43
HETATM   43  O2  UNL     1      10.407 -13.568  -4.019  1.00  0.00    -0.371 OA
ATOM     44  H2  UNL     1       9.514 -13.306  -4.209  1.00  0.00     0.212 HD
ENDBRANCH  37  43
ENDBRANCH  32  37
ENDBRANCH  27  30
ENDBRANCH  23  24
BRANCH  23  45
HETATM   45  C10 UNL     1       6.778 -22.819   0.109  1.00  0.00     0.195 C 
BRANCH  45  46
HETATM   46  C11 UNL     1       5.520 -22.888   0.886  1.00  0.00     0.269 C 
HETATM   47  N4  UNL     1       5.051 -21.603   1.369  1.00  0.00    -0.052 N 
HETATM   48  C12 UNL     1       5.941 -21.719   2.497  1.00  0.00     0.309 C 
ATOM     49  H42 UNL     1       5.091 -20.782   0.766  1.00  0.00     0.279 HD
ATOM     50  H41 UNL     1       4.055 -21.442   1.516  1.00  0.00     0.279 HD
HETATM   51  S1  UNL     1       5.752 -23.493   2.577  1.00  0.00    -0.107 SA
ENDBRANCH  45  46
ENDBRANCH  23  45
ENDBRANCH  13  23
BRANCH  15  52
HETATM   52  N13 UNL     1       7.275 -25.028  -2.024  1.00  0.00    -0.381 N 
ATOM     53 2H13 UNL     1       8.130 -24.483  -2.135  1.00  0.00     0.157 HD
ATOM     54 1H13 UNL     1       7.356 -25.946  -1.588  1.00  0.00     0.157 HD
ENDBRANCH  15  52
ENDBRANCH   5   8
BRANCH   6  55
HETATM   55  O4  UNL     1       5.143 -28.948  -2.816  1.00  0.00    -0.288 OA
ATOM     56  H4  UNL     1       5.568 -29.583  -2.250  1.00  0.00     0.244 HD
ENDBRANCH   6  55
ENDBRANCH   1   5
TORSDOF 14
ENDMDL
MODEL 4
REMARK VINA RESULT: -9.141369444      2.350      3.862
REMARK  14 active torsions:
REMARK  status: ('A' for Active; 'I' for Inactive)
REMARK       I    between atoms: C2_2  and  N1_4 
REMARK    1  A    between atoms: N1_4  and  C3_6 
REMARK    2  A    between atoms: C3_6  and  O2_7 
REMARK    3  A    between atoms: C3_6  and  C4_9 
REMARK    4  A    between atoms: N2_11  and  C6_12 
REMARK    5  A    between atoms: C9_15  and  N3_16 
REMARK    6  A    between atoms: N3_16  and  C10_17 
REMARK    7  A    between atoms: N3_16  and  N5_24 
REMARK    8  A    between atoms: C10_17  and  C11_18 
REMARK    9  A    between atoms: C13_27  and  C14_28 
REMARK       I    between atoms: C14_28  and  N7_30 
REMARK   10  A    between atoms: N7_30  and  N8_32 
REMARK   11  A    between atoms: C15_37  and  C16_38 
REMARK   12  A    between atoms: C16_38  and  N11_43 
REMARK   13  A    between atoms: N10_39  and  O4_41 
REMARK   14  A    between atoms: C18_47  and  N13_48 
ROOT
HETATM    1  N11 UNL     1       3.381 -23.707  -5.805  1.00  0.00    -0.276 N 
ATOM      2  H11 UNL     1       3.525 -23.851  -6.804  1.00  0.00     0.179 HD
HETATM    3  C17 UNL     1       2.457 -22.756  -5.420  1.00  0.00     0.183 C 
HETATM    4  N12 UNL     1       1.667 -21.965  -5.097  1.00  0.00    -0.172 NA
ENDROOT
BRANCH   1   5
HETATM    5  C16 UNL     1       4.142 -24.495  -4.913  1.00  0.00     0.165 C 
HETATM    6  N10 UNL     1       4.229 -25.748  -5.110  1.00  0.00    -0.250 N 
ATOM      7  H10 UNL     1       4.808 -26.239  -4.429  1.00  0.00     0.196 HD
BRANCH   5   8
HETATM    8  C15 UNL     1       4.884 -23.990  -3.756  1.00  0.00     0.128 A 
HETATM    9  N9  UNL     1       4.234 -23.952  -2.549  1.00  0.00    -0.331 N 
HETATM   10  C13 UNL     1       4.850 -23.480  -1.463  1.00  0.00     0.193 A 
ATOM     11  H9  UNL     1       3.273 -24.288  -2.481  1.00  0.00     0.168 HD
HETATM   12  N6  UNL     1       6.102 -23.054  -1.607  1.00  0.00    -0.258 N 
HETATM   13  N5  UNL     1       6.775 -23.073  -2.775  1.00  0.00    -0.173 N 
ATOM     14  H6  UNL     1       6.582 -22.690  -0.783  1.00  0.00     0.191 HD
HETATM   15  C18 UNL     1       6.176 -23.543  -3.879  1.00  0.00     0.170 A 
BRANCH  10  16
HETATM   16  C14 UNL     1       4.236 -23.404  -0.143  1.00  0.00     0.304 C 
HETATM   17  O3  UNL     1       4.457 -24.256   0.751  1.00  0.00    -0.263 OA
HETATM   18  N7  UNL     1       3.356 -22.336   0.152  1.00  0.00    -0.270 N 
ATOM     19  H7  UNL     1       3.165 -21.635  -0.564  1.00  0.00     0.189 HD
BRANCH  18  20
HETATM   20  N8  UNL     1       2.746 -22.220   1.394  1.00  0.00    -0.342 N 
ATOM     21  H82 UNL     1       2.642 -23.062   1.961  1.00  0.00     0.176 HD
ATOM     22  H81 UNL     1       2.406 -21.322   1.739  1.00  0.00     0.176 HD
ENDBRANCH  18  20
ENDBRANCH  10  16
BRANCH  13  23
HETATM   23  N3  UNL     1       8.083 -22.588  -2.769  1.00  0.00    -0.267 N 
BRANCH  23  24
HETATM   24  C9  UNL     1       8.511 -21.282  -3.008  1.00  0.00     0.053 A 
HETATM   25  C8  UNL     1       9.447 -20.932  -3.966  1.00  0.00     0.033 A 
HETATM   26  C7  UNL     1       9.885 -19.646  -4.181  1.00  0.00     0.034 A 
HETATM   27  C6  UNL     1       9.362 -18.652  -3.399  1.00  0.00     0.057 A 
HETATM   28  C20 UNL     1       8.436 -18.932  -2.440  1.00  0.00     0.034 A 
HETATM   29  C19 UNL     1       8.008 -20.251  -2.243  1.00  0.00     0.033 A 
BRANCH  27  30
HETATM   30  N2  UNL     1       9.802 -17.310  -3.570  1.00  0.00    -0.251 N 
HETATM   31  C5  UNL     1       9.997 -16.338  -2.658  1.00  0.00     0.149 A 
HETATM   32  C4  UNL     1      10.425 -15.187  -3.269  1.00  0.00     0.092 A 
HETATM   33  N15 UNL     1      10.484 -15.485  -4.579  1.00  0.00    -0.284 N 
HETATM   34  N14 UNL     1      10.116 -16.738  -4.750  1.00  0.00    -0.236 N 
ATOM     35  H15 UNL     1      10.768 -14.845  -5.321  1.00  0.00     0.188 HD
ATOM     36  H14 UNL     1      10.074 -17.211  -5.652  1.00  0.00     0.209 HD
BRANCH  32  37
HETATM   37  C3  UNL     1      10.760 -13.855  -2.643  1.00  0.00     0.274 C 
BRANCH  37  38
HETATM   38  N1  UNL     1      12.112 -13.964  -2.082  1.00  0.00    -0.330 N 
HETATM   39  C2  UNL     1      12.708 -12.846  -1.504  1.00  0.00     0.215 C 
HETATM   40  C1  UNL     1      14.062 -12.900  -0.923  1.00  0.00     0.117 C 
HETATM   41  O1  UNL     1      12.092 -11.746  -1.463  1.00  0.00    -0.274 OA
ATOM     42  H1  UNL     1      12.611 -14.853  -2.115  1.00  0.00     0.165 HD
ENDBRANCH  37  38
BRANCH  37  43
HETATM   43  O2  UNL     1      10.788 -12.845  -3.585  1.00  0.00    -0.371 OA
ATOM     44  H2  UNL     1       9.912 -12.481  -3.632  1.00  0.00     0.212 HD
ENDBRANCH  37  43
ENDBRANCH  32  37
ENDBRANCH  27  30
ENDBRANCH  23  24
BRANCH  23  45
HETATM   45  C10 UNL     1       9.138 -23.570  -2.457  1.00  0.00     0.195 C 
BRANCH  45  46
HETATM   46  C11 UNL     1       9.787 -24.160  -3.649  1.00  0.00     0.269 C 
HETATM   47  N4  UNL     1       9.604 -25.594  -3.775  1.00  0.00    -0.052 N 
HETATM   48  C12 UNL     1      10.709 -25.800  -2.873  1.00  0.00     0.309 C 
ATOM     49  H42 UNL     1       8.695 -26.014  -3.579  1.00  0.00     0.279 HD
ATOM     50  H41 UNL     1       9.603 -26.033  -4.695  1.00  0.00     0.279 HD
HETATM   51  S1  UNL     1      11.579 -24.358  -3.468  1.00  0.00    -0.107 SA
ENDBRANCH  45  46
ENDBRANCH  23  45
ENDBRANCH  13  23
BRANCH  15  52
HETATM   52  N13 UNL     1       6.807 -23.513  -4.996  1.00  0.00    -0.381 N 
ATOM     53 2H13 UNL     1       7.775 -23.204  -5.085  1.00  0.00     0.157 HD
ATOM     54 1H13 UNL     1       6.342 -23.848  -5.840  1.00  0.00     0.157 HD
ENDBRANCH  15  52
ENDBRANCH   5   8
BRANCH   6  55
HETATM   55  O4  UNL     1       3.700 -26.533  -6.045  1.00  0.00    -0.288 OA
ATOM     56  H4  UNL     1       2.960 -27.128  -6.023  1.00  0.00     0.244 HD
ENDBRANCH   6  55
ENDBRANCH   1   5
TORSDOF 14
ENDMDL
MODEL 5
REMARK VINA RESULT: -9.112120694      0.958      3.863
REMARK  14 active torsions:
REMARK  status: ('A' for Active; 'I' for Inactive)
REMARK       I    between atoms: C2_2  and  N1_4 
REMARK    1  A    between atoms: N1_4  and  C3_6 
REMARK    2  A    between atoms: C3_6  and  O2_7 
REMARK    3  A    between atoms: C3_6  and  C4_9 
REMARK    4  A    between atoms: N2_11  and  C6_12 
REMARK    5  A    between atoms: C9_15  and  N3_16 
REMARK    6  A    between atoms: N3_16  and  C10_17 
REMARK    7  A    between atoms: N3_16  and  N5_24 
REMARK    8  A    between atoms: C10_17  and  C11_18 
REMARK    9  A    between atoms: C13_27  and  C14_28 
REMARK       I    between atoms: C14_28  and  N7_30 
REMARK   10  A    between atoms: N7_30  and  N8_32 
REMARK   11  A    between atoms: C15_37  and  C16_38 
REMARK   12  A    between atoms: C16_38  and  N11_43 
REMARK   13  A    between atoms: N10_39  and  O4_41 
REMARK   14  A    between atoms: C18_47  and  N13_48 
ROOT
HETATM    1  N11 UNL     1       6.323 -27.798  -3.724  1.00  0.00    -0.276 N 
ATOM      2  H11 UNL     1       7.286 -28.117  -3.622  1.00  0.00     0.179 HD
HETATM    3  C17 UNL     1       5.320 -28.625  -3.259  1.00  0.00     0.183 C 
HETATM    4  N12 UNL     1       4.477 -29.316  -2.853  1.00  0.00    -0.172 NA
ENDROOT
BRANCH   1   5
HETATM    5  C16 UNL     1       6.110 -26.541  -4.331  1.00  0.00     0.165 C 
HETATM    6  N10 UNL     1       6.346 -26.402  -5.572  1.00  0.00    -0.250 N 
ATOM      7  H10 UNL     1       6.152 -25.468  -5.934  1.00  0.00     0.196 HD
BRANCH   5   8
HETATM    8  C15 UNL     1       5.604 -25.345  -3.652  1.00  0.00     0.128 A 
HETATM    9  N9  UNL     1       4.297 -24.994  -3.871  1.00  0.00    -0.331 N 
HETATM   10  C13 UNL     1       3.785 -23.902  -3.299  1.00  0.00     0.193 A 
ATOM     11  H9  UNL     1       3.711 -25.572  -4.474  1.00  0.00     0.168 HD
HETATM   12  N6  UNL     1       4.592 -23.183  -2.523  1.00  0.00    -0.258 N 
HETATM   13  N5  UNL     1       5.882 -23.493  -2.284  1.00  0.00    -0.173 N 
ATOM     14  H6  UNL     1       4.211 -22.345  -2.082  1.00  0.00     0.191 HD
HETATM   15  C18 UNL     1       6.417 -24.587  -2.848  1.00  0.00     0.170 A 
BRANCH  10  16
HETATM   16  C14 UNL     1       2.409 -23.455  -3.476  1.00  0.00     0.304 C 
HETATM   17  O3  UNL     1       1.440 -24.251  -3.490  1.00  0.00    -0.263 OA
HETATM   18  N7  UNL     1       2.143 -22.074  -3.638  1.00  0.00    -0.270 N 
ATOM     19  H7  UNL     1       2.920 -21.413  -3.629  1.00  0.00     0.189 HD
BRANCH  18  20
HETATM   20  N8  UNL     1       0.850 -21.599  -3.810  1.00  0.00    -0.342 N 
ATOM     21  H82 UNL     1       0.244 -22.080  -4.476  1.00  0.00     0.176 HD
ATOM     22  H81 UNL     1       0.505 -20.792  -3.290  1.00  0.00     0.176 HD
ENDBRANCH  18  20
ENDBRANCH  10  16
BRANCH  13  23
HETATM   23  N3  UNL     1       6.603 -22.639  -1.450  1.00  0.00    -0.267 N 
BRANCH  23  24
HETATM   24  C9  UNL     1       7.247 -21.451  -1.796  1.00  0.00     0.053 A 
HETATM   25  C8  UNL     1       7.002 -20.228  -1.194  1.00  0.00     0.033 A 
HETATM   26  C7  UNL     1       7.621 -19.055  -1.554  1.00  0.00     0.034 A 
HETATM   27  C6  UNL     1       8.536 -19.099  -2.571  1.00  0.00     0.057 A 
HETATM   28  C20 UNL     1       8.822 -20.272  -3.202  1.00  0.00     0.034 A 
HETATM   29  C19 UNL     1       8.177 -21.452  -2.814  1.00  0.00     0.033 A 
BRANCH  27  30
HETATM   30  N2  UNL     1       9.185 -17.905  -2.994  1.00  0.00    -0.251 N 
HETATM   31  C5  UNL     1       9.230 -16.690  -2.416  1.00  0.00     0.149 A 
HETATM   32  C4  UNL     1       9.972 -15.824  -3.177  1.00  0.00     0.092 A 
HETATM   33  N15 UNL     1      10.378 -16.547  -4.237  1.00  0.00    -0.284 N 
HETATM   34  N14 UNL     1       9.910 -17.773  -4.123  1.00  0.00    -0.236 N 
ATOM     35  H15 UNL     1      10.955 -16.202  -5.004  1.00  0.00     0.188 HD
ATOM     36  H14 UNL     1      10.075 -18.520  -4.796  1.00  0.00     0.209 HD
BRANCH  32  37
HETATM   37  C3  UNL     1      10.283 -14.370  -2.920  1.00  0.00     0.274 C 
BRANCH  37  38
HETATM   38  N1  UNL     1      11.616 -14.310  -2.309  1.00  0.00    -0.330 N 
HETATM   39  C2  UNL     1      12.127 -13.083  -1.893  1.00  0.00     0.215 C 
HETATM   40  C1  UNL     1      13.458 -12.966  -1.272  1.00  0.00     0.117 C 
HETATM   41  O1  UNL     1      11.449 -12.028  -2.042  1.00  0.00    -0.274 OA
ATOM     42  H1  UNL     1      12.165 -15.161  -2.191  1.00  0.00     0.165 HD
ENDBRANCH  37  38
BRANCH  37  43
HETATM   43  O2  UNL     1      10.339 -13.648  -4.097  1.00  0.00    -0.371 OA
ATOM     44  H2  UNL     1       9.687 -12.960  -4.036  1.00  0.00     0.212 HD
ENDBRANCH  37  43
ENDBRANCH  32  37
ENDBRANCH  27  30
ENDBRANCH  23  24
BRANCH  23  45
HETATM   45  C10 UNL     1       6.680 -23.030  -0.030  1.00  0.00     0.195 C 
BRANCH  45  46
HETATM   46  C11 UNL     1       5.363 -23.162   0.633  1.00  0.00     0.269 C 
HETATM   47  N4  UNL     1       4.829 -21.914   1.144  1.00  0.00    -0.052 N 
HETATM   48  C12 UNL     1       5.624 -22.078   2.336  1.00  0.00     0.309 C 
ATOM     49  H42 UNL     1       4.902 -21.059   0.592  1.00  0.00     0.279 HD
ATOM     50  H41 UNL     1       3.822 -21.776   1.215  1.00  0.00     0.279 HD
HETATM   51  S1  UNL     1       5.465 -23.857   2.303  1.00  0.00    -0.107 SA
ENDBRANCH  45  46
ENDBRANCH  23  45
ENDBRANCH  13  23
BRANCH  15  52
HETATM   52  N13 UNL     1       7.659 -24.848  -2.654  1.00  0.00    -0.381 N 
ATOM     53 2H13 UNL     1       8.253 -24.310  -2.023  1.00  0.00     0.157 HD
ATOM     54 1H13 UNL     1       8.076 -25.655  -3.118  1.00  0.00     0.157 HD
ENDBRANCH  15  52
ENDBRANCH   5   8
BRANCH   6  55
HETATM   55  O4  UNL     1       6.802 -27.257  -6.484  1.00  0.00    -0.288 OA
ATOM     56  H4  UNL     1       6.974 -27.155  -7.413  1.00  0.00     0.244 HD
ENDBRANCH   6  55
ENDBRANCH   1   5
TORSDOF 14
ENDMDL
