MODEL 1
REMARK VINA RESULT: -7.171361928      0.000      0.000
REMARK  5 active torsions:
REMARK  status: ('A' for Active; 'I' for Inactive)
REMARK    1  A    between atoms: C2_2  and  N1_3 
REMARK    2  A    between atoms: N1_3  and  C3_5 
REMARK    3  A    between atoms: C7_12  and  N3_13 
REMARK    4  A    between atoms: N5_21  and  C13_22 
REMARK    5  A    between atoms: C13_22  and  C14_23 
ROOT
HETATM    1  C3  UNL     1      -0.499 -17.415   6.165  1.00  0.00     0.686 A 
HETATM    2  N2  UNL     1      -0.326 -17.663   4.864  1.00  0.00    -0.186 N 
ATOM      3  H2  UNL     1       0.433 -17.287   4.296  1.00  0.00     0.184 HD
HETATM    4  C4  UNL     1      -1.296 -18.483   4.409  1.00  0.00     0.116 A 
HETATM    5  C5  UNL     1      -1.526 -19.008   3.156  1.00  0.00     0.068 A 
HETATM    6 CL1  UNL     1      -0.506 -18.672   1.793  1.00  0.00    -0.082 Cl
HETATM    7  C6  UNL     1      -2.629 -19.834   3.016  1.00  0.00     0.074 A 
HETATM    8  C7  UNL     1      -3.459 -20.122   4.078  1.00  0.00     0.106 A 
HETATM    9  N4  UNL     1      -3.150 -19.563   5.256  1.00  0.00    -0.326 N 
ATOM     10  H4  UNL     1      -3.762 -19.774   6.044  1.00  0.00     0.169 HD
HETATM   11  C12 UNL     1      -2.112 -18.753   5.494  1.00  0.00     0.158 A 
HETATM   12  N5  UNL     1      -1.612 -18.093   6.557  1.00  0.00    -0.144 N 
ENDROOT
BRANCH  12  13
HETATM   13  C13 UNL     1      -2.171 -18.131   7.851  1.00  0.00     0.094 C 
BRANCH  13  14
HETATM   14  C14 UNL     1      -2.377 -19.397   8.536  1.00  0.00     0.025 C 
HETATM   15  C15 UNL     1      -3.900 -19.596   8.718  1.00  0.00     0.010 C 
HETATM   16  C16 UNL     1      -3.946 -20.711   9.730  1.00  0.00     0.001 C 
HETATM   17  C17 UNL     1      -2.862 -20.357  10.691  1.00  0.00     0.001 C 
HETATM   18  C18 UNL     1      -1.997 -19.300   9.996  1.00  0.00     0.010 C 
ENDBRANCH  13  14
ENDBRANCH  12  13
BRANCH   1  19
HETATM   19  N1  UNL     1       0.184 -16.697   6.977  1.00  0.00    -0.226 N 
ATOM     20  H1  UNL     1       0.918 -17.153   7.519  1.00  0.00     0.177 HD
BRANCH  19  21
HETATM   21  C2  UNL     1      -0.024 -15.292   7.169  1.00  0.00     0.133 C 
HETATM   22  C1  UNL     1      -0.474 -14.956   8.573  1.00  0.00     0.027 C 
ENDBRANCH  19  21
ENDBRANCH   1  19
BRANCH   8  23
HETATM   23  N3  UNL     1      -4.598 -20.971   3.943  1.00  0.00    -0.367 N 
HETATM   24  C8  UNL     1      -4.736 -22.330   4.424  1.00  0.00     0.124 C 
HETATM   25  C9  UNL     1      -6.120 -22.309   5.024  1.00  0.00     0.021 C 
HETATM   26  C10 UNL     1      -6.868 -21.201   4.314  1.00  0.00     0.021 C 
HETATM   27  C11 UNL     1      -5.849 -20.658   3.300  1.00  0.00     0.124 C 
ENDBRANCH   8  23
TORSDOF 5
ENDMDL
MODEL 2
REMARK VINA RESULT: -7.118604283      2.291      6.006
REMARK  5 active torsions:
REMARK  status: ('A' for Active; 'I' for Inactive)
REMARK    1  A    between atoms: C2_2  and  N1_3 
REMARK    2  A    between atoms: N1_3  and  C3_5 
REMARK    3  A    between atoms: C7_12  and  N3_13 
REMARK    4  A    between atoms: N5_21  and  C13_22 
REMARK    5  A    between atoms: C13_22  and  C14_23 
ROOT
HETATM    1  C3  UNL     1      -1.408 -17.894   4.751  1.00  0.00     0.686 A 
HETATM    2  N2  UNL     1      -0.819 -16.822   5.287  1.00  0.00    -0.186 N 
ATOM      3  H2  UNL     1      -0.357 -16.085   4.755  1.00  0.00     0.184 HD
HETATM    4  C4  UNL     1      -0.921 -16.853   6.632  1.00  0.00     0.116 A 
HETATM    5  C5  UNL     1      -0.475 -15.976   7.597  1.00  0.00     0.068 A 
HETATM    6 CL1  UNL     1       0.396 -14.523   7.217  1.00  0.00    -0.082 Cl
HETATM    7  C6  UNL     1      -0.749 -16.301   8.915  1.00  0.00     0.074 A 
HETATM    8  C7  UNL     1      -1.438 -17.447   9.251  1.00  0.00     0.106 A 
HETATM    9  N4  UNL     1      -1.831 -18.234   8.240  1.00  0.00    -0.326 N 
ATOM     10  H4  UNL     1      -2.341 -19.083   8.485  1.00  0.00     0.169 HD
HETATM   11  C12 UNL     1      -1.615 -18.011   6.939  1.00  0.00     0.158 A 
HETATM   12  N5  UNL     1      -1.904 -18.635   5.780  1.00  0.00    -0.144 N 
ENDROOT
BRANCH  12  13
HETATM   13  C13 UNL     1      -2.614 -19.849   5.685  1.00  0.00     0.094 C 
BRANCH  13  14
HETATM   14  C14 UNL     1      -4.067 -19.868   5.757  1.00  0.00     0.025 C 
HETATM   15  C15 UNL     1      -4.511 -21.330   5.999  1.00  0.00     0.010 C 
HETATM   16  C16 UNL     1      -5.984 -21.260   5.687  1.00  0.00     0.001 C 
HETATM   17  C17 UNL     1      -6.045 -20.383   4.481  1.00  0.00     0.001 C 
HETATM   18  C18 UNL     1      -4.686 -19.679   4.390  1.00  0.00     0.010 C 
ENDBRANCH  13  14
ENDBRANCH  12  13
BRANCH   1  19
HETATM   19  N1  UNL     1      -1.539 -18.252   3.528  1.00  0.00    -0.226 N 
ATOM     20  H1  UNL     1      -2.285 -17.823   2.980  1.00  0.00     0.177 HD
BRANCH  19  21
HETATM   21  C2  UNL     1      -0.699 -19.218   2.885  1.00  0.00     0.133 C 
HETATM   22  C1  UNL     1      -1.487 -20.272   2.141  1.00  0.00     0.027 C 
ENDBRANCH  19  21
ENDBRANCH   1  19
BRANCH   8  23
HETATM   23  N3  UNL     1      -1.725 -17.790  10.605  1.00  0.00    -0.367 N 
HETATM   24  C8  UNL     1      -1.298 -17.083  11.795  1.00  0.00     0.124 C 
HETATM   25  C9  UNL     1      -2.561 -17.071  12.620  1.00  0.00     0.021 C 
HETATM   26  C10 UNL     1      -3.379 -18.255  12.152  1.00  0.00     0.021 C 
HETATM   27  C11 UNL     1      -2.498 -18.911  11.077  1.00  0.00     0.124 C 
ENDBRANCH   8  23
TORSDOF 5
ENDMDL
MODEL 3
REMARK VINA RESULT: -7.055635723      2.516      7.225
REMARK  5 active torsions:
REMARK  status: ('A' for Active; 'I' for Inactive)
REMARK    1  A    between atoms: C2_2  and  N1_3 
REMARK    2  A    between atoms: N1_3  and  C3_5 
REMARK    3  A    between atoms: C7_12  and  N3_13 
REMARK    4  A    between atoms: N5_21  and  C13_22 
REMARK    5  A    between atoms: C13_22  and  C14_23 
ROOT
HETATM    1  C3  UNL     1      -4.088 -21.117   6.952  1.00  0.00     0.686 A 
HETATM    2  N2  UNL     1      -3.838 -21.119   8.263  1.00  0.00    -0.186 N 
ATOM      3  H2  UNL     1      -4.166 -21.830   8.917  1.00  0.00     0.184 HD
HETATM    4  C4  UNL     1      -3.092 -20.047   8.602  1.00  0.00     0.116 A 
HETATM    5  C5  UNL     1      -2.593 -19.636   9.819  1.00  0.00     0.068 A 
HETATM    6 CL1  UNL     1      -2.870 -20.510  11.293  1.00  0.00    -0.082 Cl
HETATM    7  C6  UNL     1      -1.847 -18.469   9.829  1.00  0.00     0.074 A 
HETATM    8  C7  UNL     1      -1.609 -17.751   8.676  1.00  0.00     0.106 A 
HETATM    9  N4  UNL     1      -2.135 -18.235   7.543  1.00  0.00    -0.326 N 
ATOM     10  H4  UNL     1      -1.960 -17.706   6.688  1.00  0.00     0.169 HD
HETATM   11  C12 UNL     1      -2.869 -19.347   7.428  1.00  0.00     0.158 A 
HETATM   12  N5  UNL     1      -3.484 -20.013   6.431  1.00  0.00    -0.144 N 
ENDROOT
BRANCH  12  13
HETATM   13  C13 UNL     1      -3.475 -19.609   5.081  1.00  0.00     0.094 C 
BRANCH  13  14
HETATM   14  C14 UNL     1      -2.583 -20.241   4.121  1.00  0.00     0.025 C 
HETATM   15  C15 UNL     1      -1.780 -19.125   3.413  1.00  0.00     0.010 C 
HETATM   16  C16 UNL     1      -1.199 -19.864   2.235  1.00  0.00     0.001 C 
HETATM   17  C17 UNL     1      -2.323 -20.732   1.777  1.00  0.00     0.001 C 
HETATM   18  C18 UNL     1      -3.344 -20.754   2.920  1.00  0.00     0.010 C 
ENDBRANCH  13  14
ENDBRANCH  12  13
BRANCH   1  19
HETATM   19  N1  UNL     1      -4.750 -21.938   6.225  1.00  0.00    -0.226 N 
ATOM     20  H1  UNL     1      -4.230 -22.644   5.703  1.00  0.00     0.177 HD
BRANCH  19  21
HETATM   21  C2  UNL     1      -6.177 -21.924   6.103  1.00  0.00     0.133 C 
HETATM   22  C1  UNL     1      -6.641 -21.482   4.734  1.00  0.00     0.027 C 
ENDBRANCH  19  21
ENDBRANCH   1  19
BRANCH   8  23
HETATM   23  N3  UNL     1      -0.841 -16.549   8.677  1.00  0.00    -0.367 N 
HETATM   24  C8  UNL     1      -0.099 -15.985   7.568  1.00  0.00     0.124 C 
HETATM   25  C9  UNL     1      -0.465 -14.524   7.659  1.00  0.00     0.021 C 
HETATM   26  C10 UNL     1      -0.845 -14.276   9.102  1.00  0.00     0.021 C 
HETATM   27  C11 UNL     1      -0.641 -15.641   9.778  1.00  0.00     0.124 C 
ENDBRANCH   8  23
TORSDOF 5
ENDMDL
MODEL 4
REMARK VINA RESULT: -7.053093978      2.678      7.323
REMARK  5 active torsions:
REMARK  status: ('A' for Active; 'I' for Inactive)
REMARK    1  A    between atoms: C2_2  and  N1_3 
REMARK    2  A    between atoms: N1_3  and  C3_5 
REMARK    3  A    between atoms: C7_12  and  N3_13 
REMARK    4  A    between atoms: N5_21  and  C13_22 
REMARK    5  A    between atoms: C13_22  and  C14_23 
ROOT
HETATM    1  C3  UNL     1      -4.854 -21.251   6.543  1.00  0.00     0.686 A 
HETATM    2  N2  UNL     1      -4.822 -21.436   7.865  1.00  0.00    -0.186 N 
ATOM      3  H2  UNL     1      -5.358 -22.144   8.367  1.00  0.00     0.184 HD
HETATM    4  C4  UNL     1      -3.979 -20.555   8.443  1.00  0.00     0.116 A 
HETATM    5  C5  UNL     1      -3.625 -20.369   9.762  1.00  0.00     0.068 A 
HETATM    6 CL1  UNL     1      -4.269 -21.332  11.054  1.00  0.00    -0.082 Cl
HETATM    7  C6  UNL     1      -2.714 -19.360  10.029  1.00  0.00     0.074 A 
HETATM    8  C7  UNL     1      -2.184 -18.577   9.026  1.00  0.00     0.106 A 
HETATM    9  N4  UNL     1      -2.591 -18.837   7.777  1.00  0.00    -0.326 N 
ATOM     10  H4  UNL     1      -2.200 -18.260   7.032  1.00  0.00     0.169 HD
HETATM   11  C12 UNL     1      -3.464 -19.784   7.415  1.00  0.00     0.158 A 
HETATM   12  N5  UNL     1      -4.008 -20.222   6.262  1.00  0.00    -0.144 N 
ENDROOT
BRANCH  12  13
HETATM   13  C13 UNL     1      -3.718 -19.685   4.991  1.00  0.00     0.094 C 
BRANCH  13  14
HETATM   14  C14 UNL     1      -2.759 -20.334   4.111  1.00  0.00     0.025 C 
HETATM   15  C15 UNL     1      -1.840 -19.239   3.521  1.00  0.00     0.010 C 
HETATM   16  C16 UNL     1      -1.172 -19.975   2.388  1.00  0.00     0.001 C 
HETATM   17  C17 UNL     1      -2.278 -20.779   1.793  1.00  0.00     0.001 C 
HETATM   18  C18 UNL     1      -3.413 -20.782   2.823  1.00  0.00     0.010 C 
ENDBRANCH  13  14
ENDBRANCH  12  13
BRANCH   1  19
HETATM   19  N1  UNL     1      -5.512 -21.861   5.629  1.00  0.00    -0.226 N 
ATOM     20  H1  UNL     1      -5.043 -22.611   5.119  1.00  0.00     0.177 HD
BRANCH  19  21
HETATM   21  C2  UNL     1      -6.867 -21.553   5.280  1.00  0.00     0.133 C 
HETATM   22  C1  UNL     1      -6.975 -20.778   3.986  1.00  0.00     0.027 C 
ENDBRANCH  19  21
ENDBRANCH   1  19
BRANCH   8  23
HETATM   23  N3  UNL     1      -1.246 -17.535   9.293  1.00  0.00    -0.367 N 
HETATM   24  C8  UNL     1      -0.846 -16.469   8.398  1.00  0.00     0.124 C 
HETATM   25  C9  UNL     1      -0.864 -15.271   9.313  1.00  0.00     0.021 C 
HETATM   26  C10 UNL     1      -0.657 -15.809  10.713  1.00  0.00     0.021 C 
HETATM   27  C11 UNL     1      -0.499 -17.323  10.507  1.00  0.00     0.124 C 
ENDBRANCH   8  23
TORSDOF 5
ENDMDL
MODEL 5
REMARK VINA RESULT: -6.872549614      1.357      5.591
REMARK  5 active torsions:
REMARK  status: ('A' for Active; 'I' for Inactive)
REMARK    1  A    between atoms: C2_2  and  N1_3 
REMARK    2  A    between atoms: N1_3  and  C3_5 
REMARK    3  A    between atoms: C7_12  and  N3_13 
REMARK    4  A    between atoms: N5_21  and  C13_22 
REMARK    5  A    between atoms: C13_22  and  C14_23 
ROOT
HETATM    1  C3  UNL     1      -3.132 -20.933   4.399  1.00  0.00     0.686 A 
HETATM    2  N2  UNL     1      -2.148 -20.365   3.696  1.00  0.00    -0.186 N 
ATOM      3  H2  UNL     1      -1.828 -20.683   2.782  1.00  0.00     0.184 HD
HETATM    4  C4  UNL     1      -1.639 -19.311   4.367  1.00  0.00     0.116 A 
HETATM    5  C5  UNL     1      -0.629 -18.431   4.043  1.00  0.00     0.068 A 
HETATM    6 CL1  UNL     1       0.268 -18.533   2.561  1.00  0.00    -0.082 Cl
HETATM    7  C6  UNL     1      -0.345 -17.437   4.964  1.00  0.00     0.074 A 
HETATM    8  C7  UNL     1      -1.039 -17.327   6.150  1.00  0.00     0.106 A 
HETATM    9  N4  UNL     1      -2.003 -18.231   6.372  1.00  0.00    -0.326 N 
ATOM     10  H4  UNL     1      -2.519 -18.152   7.249  1.00  0.00     0.169 HD
HETATM   11  C12 UNL     1      -2.353 -19.226   5.550  1.00  0.00     0.158 A 
HETATM   12  N5  UNL     1      -3.259 -20.223   5.554  1.00  0.00    -0.144 N 
ENDROOT
BRANCH  12  13
HETATM   13  C13 UNL     1      -4.179 -20.458   6.596  1.00  0.00     0.094 C 
BRANCH  13  14
HETATM   14  C14 UNL     1      -3.746 -21.051   7.851  1.00  0.00     0.025 C 
HETATM   15  C15 UNL     1      -4.815 -22.083   8.282  1.00  0.00     0.010 C 
HETATM   16  C16 UNL     1      -4.440 -22.331   9.721  1.00  0.00     0.001 C 
HETATM   17  C17 UNL     1      -4.098 -20.972  10.233  1.00  0.00     0.001 C 
HETATM   18  C18 UNL     1      -3.907 -20.081   9.000  1.00  0.00     0.010 C 
ENDBRANCH  13  14
ENDBRANCH  12  13
BRANCH   1  19
HETATM   19  N1  UNL     1      -3.872 -21.944   4.134  1.00  0.00    -0.226 N 
ATOM     20  H1  UNL     1      -3.740 -22.793   4.684  1.00  0.00     0.177 HD
BRANCH  19  21
HETATM   21  C2  UNL     1      -4.876 -21.952   3.112  1.00  0.00     0.133 C 
HETATM   22  C1  UNL     1      -5.844 -20.798   3.235  1.00  0.00     0.027 C 
ENDBRANCH  19  21
ENDBRANCH   1  19
BRANCH   8  23
HETATM   23  N3  UNL     1      -0.753 -16.307   7.105  1.00  0.00    -0.367 N 
HETATM   24  C8  UNL     1      -0.712 -16.445   8.547  1.00  0.00     0.124 C 
HETATM   25  C9  UNL     1       0.539 -15.678   8.897  1.00  0.00     0.021 C 
HETATM   26  C10 UNL     1       0.748 -14.682   7.777  1.00  0.00     0.021 C 
HETATM   27  C11 UNL     1      -0.445 -14.924   6.840  1.00  0.00     0.124 C 
ENDBRANCH   8  23
TORSDOF 5
ENDMDL
