MODEL 1
REMARK VINA RESULT: -8.203819162      0.000      0.000
REMARK  4 active torsions:
REMARK  status: ('A' for Active; 'I' for Inactive)
REMARK    1  A    between atoms: N1_2  and  C2_5 
REMARK    2  A    between atoms: C2_5  and  C3_6 
REMARK    3  A    between atoms: C3_6  and  O1_8 
REMARK    4  A    between atoms: O1_8  and  C5_9 
ROOT
HETATM    1  C5  UNL     1      -4.572 -21.407   5.916  1.00  0.00     0.168 C 
HETATM    2  C6  UNL     1      -5.474 -22.273   4.786  1.00  0.00     0.069 C 
HETATM    3  C7  UNL     1      -4.782 -21.723   3.594  1.00  0.00    -0.081 C 
HETATM    4  C8  UNL     1      -3.822 -22.048   2.840  1.00  0.00    -0.023 C 
HETATM    5  C9  UNL     1      -3.240 -21.209   1.654  1.00  0.00     0.032 C 
HETATM    6  C10 UNL     1      -2.059 -20.433   2.413  1.00  0.00    -0.005 C 
HETATM    7  C11 UNL     1      -1.631 -19.109   2.197  1.00  0.00     0.045 C 
HETATM    8  C12 UNL     1      -0.986 -18.713   3.568  1.00  0.00     0.093 C 
HETATM    9  C13 UNL     1       0.408 -18.240   3.219  1.00  0.00     0.049 C 
HETATM   10  C14 UNL     1      -1.699 -17.603   4.246  1.00  0.00     0.044 C 
HETATM   11  C15 UNL     1      -3.073 -18.039   4.709  1.00  0.00     0.048 C 
HETATM   12  C16 UNL     1      -2.939 -19.584   4.919  1.00  0.00     0.135 C 
HETATM   13  C17 UNL     1      -2.837 -20.262   3.664  1.00  0.00     0.050 C 
HETATM   14  O2  UNL     1      -1.759 -19.717   5.500  1.00  0.00    -0.225 OA
HETATM   15  O3  UNL     1      -0.865 -19.745   4.468  1.00  0.00    -0.229 OA
HETATM   16  C18 UNL     1      -4.256 -20.083   5.481  1.00  0.00     0.164 C 
HETATM   17  F1  UNL     1      -4.398 -19.189   6.608  1.00  0.00    -0.237 F 
HETATM   18  C19 UNL     1      -5.438 -19.604   4.618  1.00  0.00     0.054 C 
HETATM   19  C20 UNL     1      -5.690 -20.459   3.405  1.00  0.00     0.037 C 
ENDROOT
BRANCH   1  20
HETATM   20  O1  UNL     1      -5.427 -21.488   6.968  1.00  0.00    -0.376 OA
BRANCH  20  21
HETATM   21  C3  UNL     1      -5.019 -22.209   8.054  1.00  0.00     0.143 C 
HETATM   22  C4  UNL     1      -6.143 -22.328   9.099  1.00  0.00     0.041 C 
BRANCH  21  23
HETATM   23  C2  UNL     1      -3.883 -21.555   8.761  1.00  0.00     0.263 C 
BRANCH  23  24
HETATM   24  N1  UNL     1      -2.703 -22.331   8.907  1.00  0.00    -0.077 N 
HETATM   25  C1  UNL     1      -2.026 -22.057  10.148  1.00  0.00     0.267 C 
ATOM     26  H12 UNL     1      -2.078 -22.208   8.110  1.00  0.00     0.276 HD
ATOM     27  H11 UNL     1      -2.900 -23.327   8.804  1.00  0.00     0.276 HD
ENDBRANCH  23  24
ENDBRANCH  21  23
ENDBRANCH  20  21
ENDBRANCH   1  20
TORSDOF 4
ENDMDL
MODEL 2
REMARK VINA RESULT: -6.450786416      6.221      8.520
REMARK  4 active torsions:
REMARK  status: ('A' for Active; 'I' for Inactive)
REMARK    1  A    between atoms: N1_2  and  C2_5 
REMARK    2  A    between atoms: C2_5  and  C3_6 
REMARK    3  A    between atoms: C3_6  and  O1_8 
REMARK    4  A    between atoms: O1_8  and  C5_9 
ROOT
HETATM    1  C5  UNL     1      -0.058 -16.085   7.249  1.00  0.00     0.168 C 
HETATM    2  C6  UNL     1      -0.814 -14.787   6.484  1.00  0.00     0.069 C 
HETATM    3  C7  UNL     1       0.058 -13.741   7.074  1.00  0.00    -0.081 C 
HETATM    4  C8  UNL     1       1.105 -13.112   6.755  1.00  0.00    -0.023 C 
HETATM    5  C9  UNL     1       1.875 -12.074   7.637  1.00  0.00     0.032 C 
HETATM    6  C10 UNL     1       2.958 -13.037   8.324  1.00  0.00    -0.005 C 
HETATM    7  C11 UNL     1       3.452 -12.966   9.640  1.00  0.00     0.045 C 
HETATM    8  C12 UNL     1       3.906 -14.436   9.933  1.00  0.00     0.093 C 
HETATM    9  C13 UNL     1       5.350 -14.316  10.372  1.00  0.00     0.049 C 
HETATM   10  C14 UNL     1       3.137 -15.073  11.029  1.00  0.00     0.044 C 
HETATM   11  C15 UNL     1       1.699 -15.310  10.620  1.00  0.00     0.048 C 
HETATM   12  C16 UNL     1       1.755 -15.442   9.062  1.00  0.00     0.135 C 
HETATM   13  C17 UNL     1       2.015 -14.174   8.453  1.00  0.00     0.050 C 
HETATM   14  O2  UNL     1       2.835 -16.174   8.852  1.00  0.00    -0.225 OA
HETATM   15  O3  UNL     1       3.866 -15.278   8.848  1.00  0.00    -0.229 OA
HETATM   16  C18 UNL     1       0.356 -15.781   8.583  1.00  0.00     0.164 C 
HETATM   17  F1  UNL     1       0.082 -16.929   9.417  1.00  0.00    -0.237 F 
HETATM   18  C19 UNL     1      -0.675 -14.790   9.155  1.00  0.00     0.054 C 
HETATM   19  C20 UNL     1      -0.776 -13.504   8.381  1.00  0.00     0.037 C 
ENDROOT
BRANCH   1  20
HETATM   20  O1  UNL     1      -1.057 -16.998   7.142  1.00  0.00    -0.376 OA
BRANCH  20  21
HETATM   21  C3  UNL     1      -1.278 -17.543   5.909  1.00  0.00     0.143 C 
HETATM   22  C4  UNL     1      -2.207 -18.768   5.999  1.00  0.00     0.041 C 
BRANCH  21  23
HETATM   23  C2  UNL     1      -0.019 -18.042   5.289  1.00  0.00     0.263 C 
BRANCH  23  24
HETATM   24  N1  UNL     1       0.232 -17.623   3.954  1.00  0.00    -0.077 N 
HETATM   25  C1  UNL     1      -0.115 -18.641   2.995  1.00  0.00     0.267 C 
ATOM     26  H12 UNL     1       1.198 -17.319   3.838  1.00  0.00     0.276 HD
ATOM     27  H11 UNL     1      -0.240 -16.743   3.748  1.00  0.00     0.276 HD
ENDBRANCH  23  24
ENDBRANCH  21  23
ENDBRANCH  20  21
ENDBRANCH   1  20
TORSDOF 4
ENDMDL
MODEL 3
REMARK VINA RESULT: -6.207499903      8.798     10.923
REMARK  4 active torsions:
REMARK  status: ('A' for Active; 'I' for Inactive)
REMARK    1  A    between atoms: N1_2  and  C2_5 
REMARK    2  A    between atoms: C2_5  and  C3_6 
REMARK    3  A    between atoms: C3_6  and  O1_8 
REMARK    4  A    between atoms: O1_8  and  C5_9 
ROOT
HETATM    1  C5  UNL     1      -0.088 -11.848   8.652  1.00  0.00     0.168 C 
HETATM    2  C6  UNL     1      -1.192 -13.090   8.371  1.00  0.00     0.069 C 
HETATM    3  C7  UNL     1      -0.207 -14.193   8.499  1.00  0.00    -0.081 C 
HETATM    4  C8  UNL     1       0.204 -14.977   9.401  1.00  0.00    -0.023 C 
HETATM    5  C9  UNL     1       1.348 -16.035   9.267  1.00  0.00     0.032 C 
HETATM    6  C10 UNL     1       2.592 -15.171   9.795  1.00  0.00    -0.005 C 
HETATM    7  C11 UNL     1       3.918 -15.204   9.321  1.00  0.00     0.045 C 
HETATM    8  C12 UNL     1       4.469 -13.788   9.700  1.00  0.00     0.093 C 
HETATM    9  C13 UNL     1       5.727 -14.062  10.496  1.00  0.00     0.049 C 
HETATM   10  C14 UNL     1       4.835 -12.973   8.516  1.00  0.00     0.044 C 
HETATM   11  C15 UNL     1       3.606 -12.582   7.723  1.00  0.00     0.048 C 
HETATM   12  C16 UNL     1       2.449 -12.580   8.775  1.00  0.00     0.135 C 
HETATM   13  C17 UNL     1       2.116 -13.914   9.170  1.00  0.00     0.050 C 
HETATM   14  O2  UNL     1       2.996 -12.014   9.837  1.00  0.00    -0.225 OA
HETATM   15  O3  UNL     1       3.631 -13.035  10.486  1.00  0.00    -0.229 OA
HETATM   16  C18 UNL     1       1.194 -12.099   8.072  1.00  0.00     0.164 C 
HETATM   17  F1  UNL     1       1.686 -10.864   7.507  1.00  0.00    -0.237 F 
HETATM   18  C19 UNL     1       0.949 -12.899   6.779  1.00  0.00     0.054 C 
HETATM   19  C20 UNL     1       0.258 -14.217   7.002  1.00  0.00     0.037 C 
ENDROOT
BRANCH   1  20
HETATM   20  O1  UNL     1      -0.787 -10.822   8.101  1.00  0.00    -0.376 OA
BRANCH  20  21
HETATM   21  C3  UNL     1      -1.033  -9.736   8.891  1.00  0.00     0.143 C 
HETATM   22  C4  UNL     1      -2.149 -10.029   9.911  1.00  0.00     0.041 C 
BRANCH  21  23
HETATM   23  C2  UNL     1      -1.513  -8.570   8.099  1.00  0.00     0.263 C 
BRANCH  23  24
HETATM   24  N1  UNL     1      -0.863  -7.331   8.347  1.00  0.00    -0.077 N 
HETATM   25  C1  UNL     1       0.475  -7.515   8.848  1.00  0.00     0.267 C 
ATOM     26  H12 UNL     1      -1.415  -6.743   8.971  1.00  0.00     0.276 HD
ATOM     27  H11 UNL     1      -0.869  -6.737   7.518  1.00  0.00     0.276 HD
ENDBRANCH  23  24
ENDBRANCH  21  23
ENDBRANCH  20  21
ENDBRANCH   1  20
TORSDOF 4
ENDMDL
MODEL 4
REMARK VINA RESULT: -6.148690961      6.061      8.340
REMARK  4 active torsions:
REMARK  status: ('A' for Active; 'I' for Inactive)
REMARK    1  A    between atoms: N1_2  and  C2_5 
REMARK    2  A    between atoms: C2_5  and  C3_6 
REMARK    3  A    between atoms: C3_6  and  O1_8 
REMARK    4  A    between atoms: O1_8  and  C5_9 
ROOT
HETATM    1  C5  UNL     1      -0.214 -16.069   7.243  1.00  0.00     0.168 C 
HETATM    2  C6  UNL     1      -0.911 -14.738   6.479  1.00  0.00     0.069 C 
HETATM    3  C7  UNL     1      -0.003 -13.731   7.082  1.00  0.00    -0.081 C 
HETATM    4  C8  UNL     1       1.072 -13.143   6.777  1.00  0.00    -0.023 C 
HETATM    5  C9  UNL     1       1.876 -12.142   7.671  1.00  0.00     0.032 C 
HETATM    6  C10 UNL     1       2.913 -13.152   8.362  1.00  0.00    -0.005 C 
HETATM    7  C11 UNL     1       3.397 -13.108   9.683  1.00  0.00     0.045 C 
HETATM    8  C12 UNL     1       3.788 -14.597   9.971  1.00  0.00     0.093 C 
HETATM    9  C13 UNL     1       5.232 -14.538  10.423  1.00  0.00     0.049 C 
HETATM   10  C14 UNL     1       2.984 -15.209  11.057  1.00  0.00     0.044 C 
HETATM   11  C15 UNL     1       1.542 -15.385  10.634  1.00  0.00     0.048 C 
HETATM   12  C16 UNL     1       1.606 -15.510   9.076  1.00  0.00     0.135 C 
HETATM   13  C17 UNL     1       1.923 -14.251   8.476  1.00  0.00     0.050 C 
HETATM   14  O2  UNL     1       2.658 -16.285   8.870  1.00  0.00    -0.225 OA
HETATM   15  O3  UNL     1       3.724 -15.431   8.881  1.00  0.00    -0.229 OA
HETATM   16  C18 UNL     1       0.200 -15.789   8.582  1.00  0.00     0.164 C 
HETATM   17  F1  UNL     1      -0.129 -16.930   9.406  1.00  0.00    -0.237 F 
HETATM   18  C19 UNL     1      -0.796 -14.761   9.151  1.00  0.00     0.054 C 
HETATM   19  C20 UNL     1      -0.838 -13.468   8.383  1.00  0.00     0.037 C 
ENDROOT
BRANCH   1  20
HETATM   20  O1  UNL     1      -1.249 -16.941   7.121  1.00  0.00    -0.376 OA
BRANCH  20  21
HETATM   21  C3  UNL     1      -1.100 -17.970   6.236  1.00  0.00     0.143 C 
HETATM   22  C4  UNL     1      -0.877 -17.445   4.805  1.00  0.00     0.041 C 
BRANCH  21  23
HETATM   23  C2  UNL     1      -2.319 -18.822   6.164  1.00  0.00     0.263 C 
BRANCH  23  24
HETATM   24  N1  UNL     1      -2.962 -18.893   4.899  1.00  0.00    -0.077 N 
HETATM   25  C1  UNL     1      -4.371 -19.165   5.024  1.00  0.00     0.267 C 
ATOM     26  H12 UNL     1      -2.506 -19.573   4.291  1.00  0.00     0.276 HD
ATOM     27  H11 UNL     1      -2.794 -18.049   4.351  1.00  0.00     0.276 HD
ENDBRANCH  23  24
ENDBRANCH  21  23
ENDBRANCH  20  21
ENDBRANCH   1  20
TORSDOF 4
ENDMDL
MODEL 5
REMARK VINA RESULT: -6.113776973     11.222     14.116
REMARK  4 active torsions:
REMARK  status: ('A' for Active; 'I' for Inactive)
REMARK    1  A    between atoms: N1_2  and  C2_5 
REMARK    2  A    between atoms: C2_5  and  C3_6 
REMARK    3  A    between atoms: C3_6  and  O1_8 
REMARK    4  A    between atoms: O1_8  and  C5_9 
ROOT
HETATM    1  C5  UNL     1       6.411 -13.133   8.202  1.00  0.00     0.168 C 
HETATM    2  C6  UNL     1       7.004 -14.350   7.198  1.00  0.00     0.069 C 
HETATM    3  C7  UNL     1       8.141 -13.558   6.664  1.00  0.00    -0.081 C 
HETATM    4  C8  UNL     1       9.366 -13.393   6.923  1.00  0.00    -0.023 C 
HETATM    5  C9  UNL     1      10.345 -12.402   6.212  1.00  0.00     0.032 C 
HETATM    6  C10 UNL     1      10.222 -11.136   7.189  1.00  0.00    -0.005 C 
HETATM    7  C11 UNL     1      10.232  -9.775   6.829  1.00  0.00     0.045 C 
HETATM    8  C12 UNL     1       9.450  -9.089   8.000  1.00  0.00     0.093 C 
HETATM    9  C13 UNL     1      10.380  -8.008   8.506  1.00  0.00     0.049 C 
HETATM   10  C14 UNL     1       8.187  -8.449   7.557  1.00  0.00     0.044 C 
HETATM   11  C15 UNL     1       7.173  -9.485   7.125  1.00  0.00     0.048 C 
HETATM   12  C16 UNL     1       7.560 -10.768   7.932  1.00  0.00     0.135 C 
HETATM   13  C17 UNL     1       8.774 -11.338   7.434  1.00  0.00     0.050 C 
HETATM   14  O2  UNL     1       7.845 -10.302   9.136  1.00  0.00    -0.225 OA
HETATM   15  O3  UNL     1       9.153  -9.916   9.057  1.00  0.00    -0.229 OA
HETATM   16  C18 UNL     1       6.522 -11.830   7.625  1.00  0.00     0.164 C 
HETATM   17  F1  UNL     1       5.317 -11.094   7.932  1.00  0.00    -0.237 F 
HETATM   18  C19 UNL     1       6.343 -12.000   6.105  1.00  0.00     0.054 C 
HETATM   19  C20 UNL     1       7.373 -12.894   5.469  1.00  0.00     0.037 C 
ENDROOT
BRANCH   1  20
HETATM   20  O1  UNL     1       5.144 -13.596   8.361  1.00  0.00    -0.376 OA
BRANCH  20  21
HETATM   21  C3  UNL     1       4.714 -13.820   9.637  1.00  0.00     0.143 C 
HETATM   22  C4  UNL     1       5.855 -13.622  10.653  1.00  0.00     0.041 C 
BRANCH  21  23
HETATM   23  C2  UNL     1       4.247 -15.221   9.829  1.00  0.00     0.263 C 
BRANCH  23  24
HETATM   24  N1  UNL     1       3.654 -15.845   8.699  1.00  0.00    -0.077 N 
HETATM   25  C1  UNL     1       2.218 -15.896   8.801  1.00  0.00     0.267 C 
ATOM     26  H12 UNL     1       4.047 -16.773   8.541  1.00  0.00     0.276 HD
ATOM     27  H11 UNL     1       3.948 -15.396   7.831  1.00  0.00     0.276 HD
ENDBRANCH  23  24
ENDBRANCH  21  23
ENDBRANCH  20  21
ENDBRANCH   1  20
TORSDOF 4
ENDMDL
