MODEL 1
REMARK VINA RESULT: -7.039631715      0.000      0.000
REMARK  7 active torsions:
REMARK  status: ('A' for Active; 'I' for Inactive)
REMARK    1  A    between atoms: C3_3  and  C4_4 
REMARK    2  A    between atoms: C4_4  and  N1_6 
REMARK    3  A    between atoms: C4_4  and  C6_10 
REMARK    4  A    between atoms: C8_13  and  O1_14 
REMARK    5  A    between atoms: C8_13  and  N2_16 
REMARK       I    between atoms: N2_16  and  C9_17 
REMARK    6  A    between atoms: C9_17  and  O3_19 
REMARK    7  A    between atoms: O3_19  and  C10_20 
ROOT
HETATM    1  C1  UNL     1      19.104  -4.759   6.571  1.00  0.00     0.112 C 
HETATM    2  C2  UNL     1      18.223  -3.647   6.956  1.00  0.00    -0.108 C 
HETATM    3  C3  UNL     1      17.494  -2.762   7.328  1.00  0.00    -0.066 C 
ENDROOT
BRANCH   3   4
HETATM    4  C4  UNL     1      16.557  -1.755   7.925  1.00  0.00     0.208 C 
HETATM    5  C5  UNL     1      15.455  -2.386   8.685  1.00  0.00     0.063 C 
BRANCH   4   6
HETATM    6  N1  UNL     1      17.367  -0.934   8.849  1.00  0.00    -0.057 N 
ATOM      7  H13 UNL     1      18.098  -1.462   9.325  1.00  0.00     0.276 HD
ATOM      8  H12 UNL     1      17.980  -0.273   8.373  1.00  0.00     0.276 HD
ATOM      9  H11 UNL     1      16.708  -0.488   9.487  1.00  0.00     0.276 HD
ENDBRANCH   4   6
BRANCH   4  10
HETATM   10  C6  UNL     1      16.111  -0.838   6.778  1.00  0.00     0.186 C 
HETATM   11  C7  UNL     1      16.963   0.519   6.865  1.00  0.00     0.118 C 
HETATM   12  S1  UNL     1      16.628   1.046   5.144  1.00  0.00    -0.060 SA
HETATM   13  C8  UNL     1      16.274  -0.713   4.564  1.00  0.00     0.371 C 
HETATM   14  O4  UNL     1      16.655  -1.382   5.661  1.00  0.00    -0.309 OA
BRANCH  13  15
HETATM   15  O1  UNL     1      14.793  -0.676   4.489  1.00  0.00    -0.329 OA
ATOM     16  H1  UNL     1      14.660  -0.935   3.584  1.00  0.00     0.217 HD
ENDBRANCH  13  15
BRANCH  13  17
HETATM   17  N2  UNL     1      16.816  -1.030   3.426  1.00  0.00    -0.312 NA
HETATM   18  C9  UNL     1      17.451  -1.400   2.081  1.00  0.00     0.444 C 
HETATM   19  O2  UNL     1      17.022  -0.906   1.192  1.00  0.00    -0.221 OA
BRANCH  18  20
HETATM   20  O3  UNL     1      18.398  -2.340   2.479  1.00  0.00    -0.236 OA
BRANCH  20  21
HETATM   21  C10 UNL     1      18.471  -3.613   1.806  1.00  0.00     0.290 C 
HETATM   22  C11 UNL     1      17.260  -4.479   2.135  1.00  0.00     0.105 C 
HETATM   23  F1  UNL     1      18.608  -3.554   0.460  1.00  0.00    -0.193 F 
HETATM   24 CL1  UNL     1      19.997  -4.318   2.479  1.00  0.00    -0.052 Cl
ENDBRANCH  20  21
ENDBRANCH  18  20
ENDBRANCH  13  17
ENDBRANCH   4  10
ENDBRANCH   3   4
TORSDOF 7
ENDMDL
MODEL 2
REMARK VINA RESULT: -6.811558490      2.477      4.115
REMARK  7 active torsions:
REMARK  status: ('A' for Active; 'I' for Inactive)
REMARK    1  A    between atoms: C3_3  and  C4_4 
REMARK    2  A    between atoms: C4_4  and  N1_6 
REMARK    3  A    between atoms: C4_4  and  C6_10 
REMARK    4  A    between atoms: C8_13  and  O1_14 
REMARK    5  A    between atoms: C8_13  and  N2_16 
REMARK       I    between atoms: N2_16  and  C9_17 
REMARK    6  A    between atoms: C9_17  and  O3_19 
REMARK    7  A    between atoms: O3_19  and  C10_20 
ROOT
HETATM    1  C1  UNL     1      17.398  -1.236   1.658  1.00  0.00     0.112 C 
HETATM    2  C2  UNL     1      16.823  -0.649   2.876  1.00  0.00    -0.108 C 
HETATM    3  C3  UNL     1      16.345  -0.226   3.898  1.00  0.00    -0.066 C 
ENDROOT
BRANCH   3   4
HETATM    4  C4  UNL     1      15.718   0.144   5.210  1.00  0.00     0.208 C 
HETATM    5  C5  UNL     1      15.573   1.607   5.377  1.00  0.00     0.063 C 
BRANCH   4   6
HETATM    6  N1  UNL     1      14.375  -0.474   5.214  1.00  0.00    -0.057 N 
ATOM      7  H13 UNL     1      14.137  -0.931   4.335  1.00  0.00     0.276 HD
ATOM      8  H12 UNL     1      14.311  -1.300   5.807  1.00  0.00     0.276 HD
ATOM      9  H11 UNL     1      13.722   0.265   5.477  1.00  0.00     0.276 HD
ENDBRANCH   4   6
BRANCH   4  10
HETATM   10  C6  UNL     1      16.540  -0.556   6.301  1.00  0.00     0.186 C 
HETATM   11  C7  UNL     1      15.527  -1.354   7.254  1.00  0.00     0.118 C 
HETATM   12  S1  UNL     1      16.799  -2.453   7.980  1.00  0.00    -0.060 SA
HETATM   13  C8  UNL     1      17.960  -2.255   6.507  1.00  0.00     0.371 C 
HETATM   14  O4  UNL     1      17.140  -1.599   5.674  1.00  0.00    -0.309 OA
BRANCH  13  15
HETATM   15  O1  UNL     1      18.955  -1.313   7.076  1.00  0.00    -0.329 OA
ATOM     16  H1  UNL     1      19.723  -1.548   6.569  1.00  0.00     0.217 HD
ENDBRANCH  13  15
BRANCH  13  17
HETATM   17  N2  UNL     1      18.508  -3.359   6.095  1.00  0.00    -0.312 NA
HETATM   18  C9  UNL     1      19.156  -4.662   5.615  1.00  0.00     0.444 C 
HETATM   19  O2  UNL     1      19.691  -5.247   6.382  1.00  0.00    -0.221 OA
BRANCH  18  20
HETATM   20  O3  UNL     1      18.855  -4.628   4.256  1.00  0.00    -0.236 OA
BRANCH  20  21
HETATM   21  C10 UNL     1      19.910  -4.425   3.293  1.00  0.00     0.290 C 
HETATM   22  C11 UNL     1      19.344  -4.259   1.887  1.00  0.00     0.105 C 
HETATM   23  F1  UNL     1      20.743  -3.389   3.550  1.00  0.00    -0.193 F 
HETATM   24 CL1  UNL     1      20.873  -5.951   3.448  1.00  0.00    -0.052 Cl
ENDBRANCH  20  21
ENDBRANCH  18  20
ENDBRANCH  13  17
ENDBRANCH   4  10
ENDBRANCH   3   4
TORSDOF 7
ENDMDL
MODEL 3
REMARK VINA RESULT: -6.736419881      2.737      3.487
REMARK  7 active torsions:
REMARK  status: ('A' for Active; 'I' for Inactive)
REMARK    1  A    between atoms: C3_3  and  C4_4 
REMARK    2  A    between atoms: C4_4  and  N1_6 
REMARK    3  A    between atoms: C4_4  and  C6_10 
REMARK    4  A    between atoms: C8_13  and  O1_14 
REMARK    5  A    between atoms: C8_13  and  N2_16 
REMARK       I    between atoms: N2_16  and  C9_17 
REMARK    6  A    between atoms: C9_17  and  O3_19 
REMARK    7  A    between atoms: O3_19  and  C10_20 
ROOT
HETATM    1  C1  UNL     1      19.818  -2.329  11.902  1.00  0.00     0.112 C 
HETATM    2  C2  UNL     1      19.384  -1.364  10.881  1.00  0.00    -0.108 C 
HETATM    3  C3  UNL     1      19.037  -0.617  10.002  1.00  0.00    -0.066 C 
ENDROOT
BRANCH   3   4
HETATM    4  C4  UNL     1      18.658   0.197   8.800  1.00  0.00     0.208 C 
HETATM    5  C5  UNL     1      18.047   1.494   9.165  1.00  0.00     0.063 C 
BRANCH   4   6
HETATM    6  N1  UNL     1      19.912   0.450   8.060  1.00  0.00    -0.057 N 
ATOM      7  H13 UNL     1      19.768   0.934   7.173  1.00  0.00     0.276 HD
ATOM      8  H12 UNL     1      20.504   1.157   8.494  1.00  0.00     0.276 HD
ATOM      9  H11 UNL     1      20.370  -0.456   7.958  1.00  0.00     0.276 HD
ENDBRANCH   4   6
BRANCH   4  10
HETATM   10  C6  UNL     1      17.786  -0.706   7.918  1.00  0.00     0.186 C 
HETATM   11  C7  UNL     1      17.122   0.205   6.776  1.00  0.00     0.118 C 
HETATM   12  S1  UNL     1      16.699  -1.188   5.666  1.00  0.00    -0.060 SA
HETATM   13  C8  UNL     1      18.026  -2.311   6.397  1.00  0.00     0.371 C 
HETATM   14  O4  UNL     1      18.663  -1.417   7.166  1.00  0.00    -0.309 OA
BRANCH  13  15
HETATM   15  O1  UNL     1      17.190  -3.196   7.245  1.00  0.00    -0.329 OA
ATOM     16  H1  UNL     1      17.752  -3.959   7.303  1.00  0.00     0.217 HD
ENDBRANCH  13  15
BRANCH  13  17
HETATM   17  N2  UNL     1      18.717  -2.978   5.522  1.00  0.00    -0.312 NA
HETATM   18  C9  UNL     1      19.535  -3.769   4.496  1.00  0.00     0.444 C 
HETATM   19  O2  UNL     1      20.258  -4.494   4.908  1.00  0.00    -0.221 OA
BRANCH  18  20
HETATM   20  O3  UNL     1      19.073  -3.221   3.302  1.00  0.00    -0.236 OA
BRANCH  20  21
HETATM   21  C10 UNL     1      18.777  -4.083   2.184  1.00  0.00     0.290 C 
HETATM   22  C11 UNL     1      18.911  -3.333   0.863  1.00  0.00     0.105 C 
HETATM   23  F1  UNL     1      19.510  -5.219   2.114  1.00  0.00    -0.193 F 
HETATM   24 CL1  UNL     1      17.060  -4.559   2.509  1.00  0.00    -0.052 Cl
ENDBRANCH  20  21
ENDBRANCH  18  20
ENDBRANCH  13  17
ENDBRANCH   4  10
ENDBRANCH   3   4
TORSDOF 7
ENDMDL
MODEL 4
REMARK VINA RESULT: -6.700932298      2.402      4.128
REMARK  7 active torsions:
REMARK  status: ('A' for Active; 'I' for Inactive)
REMARK    1  A    between atoms: C3_3  and  C4_4 
REMARK    2  A    between atoms: C4_4  and  N1_6 
REMARK    3  A    between atoms: C4_4  and  C6_10 
REMARK    4  A    between atoms: C8_13  and  O1_14 
REMARK    5  A    between atoms: C8_13  and  N2_16 
REMARK       I    between atoms: N2_16  and  C9_17 
REMARK    6  A    between atoms: C9_17  and  O3_19 
REMARK    7  A    between atoms: O3_19  and  C10_20 
ROOT
HETATM    1  C1  UNL     1      16.266   3.987   6.871  1.00  0.00     0.112 C 
HETATM    2  C2  UNL     1      16.011   2.563   6.608  1.00  0.00    -0.108 C 
HETATM    3  C3  UNL     1      15.753   1.400   6.429  1.00  0.00    -0.066 C 
ENDROOT
BRANCH   3   4
HETATM    4  C4  UNL     1      15.315  -0.031   6.325  1.00  0.00     0.208 C 
HETATM    5  C5  UNL     1      13.978  -0.259   6.918  1.00  0.00     0.063 C 
BRANCH   4   6
HETATM    6  N1  UNL     1      15.257  -0.340   4.881  1.00  0.00    -0.057 N 
ATOM      7  H13 UNL     1      16.107  -0.087   4.377  1.00  0.00     0.276 HD
ATOM      8  H12 UNL     1      15.285  -1.339   4.679  1.00  0.00     0.276 HD
ATOM      9  H11 UNL     1      14.421   0.122   4.523  1.00  0.00     0.276 HD
ENDBRANCH   4   6
BRANCH   4  10
HETATM   10  C6  UNL     1      16.444  -0.879   6.924  1.00  0.00     0.186 C 
HETATM   11  C7  UNL     1      15.779  -2.052   7.794  1.00  0.00     0.118 C 
HETATM   12  S1  UNL     1      17.272  -3.111   7.829  1.00  0.00    -0.060 SA
HETATM   13  C8  UNL     1      17.982  -2.343   6.261  1.00  0.00     0.371 C 
HETATM   14  O4  UNL     1      16.927  -1.606   5.885  1.00  0.00    -0.309 OA
BRANCH  13  15
HETATM   15  O1  UNL     1      19.025  -1.462   6.843  1.00  0.00    -0.329 OA
ATOM     16  H1  UNL     1      19.009  -0.744   6.222  1.00  0.00     0.217 HD
ENDBRANCH  13  15
BRANCH  13  17
HETATM   17  N2  UNL     1      18.476  -3.195   5.412  1.00  0.00    -0.312 NA
HETATM   18  C9  UNL     1      19.059  -4.205   4.418  1.00  0.00     0.444 C 
HETATM   19  O2  UNL     1      19.382  -5.170   4.842  1.00  0.00    -0.221 OA
BRANCH  18  20
HETATM   20  O3  UNL     1      19.012  -3.474   3.234  1.00  0.00    -0.236 OA
BRANCH  20  21
HETATM   21  C10 UNL     1      18.643  -4.127   2.002  1.00  0.00     0.290 C 
HETATM   22  C11 UNL     1      18.790  -3.182   0.814  1.00  0.00     0.105 C 
HETATM   23  F1  UNL     1      19.309  -5.274   1.728  1.00  0.00    -0.193 F 
HETATM   24 CL1  UNL     1      16.910  -4.560   2.299  1.00  0.00    -0.052 Cl
ENDBRANCH  20  21
ENDBRANCH  18  20
ENDBRANCH  13  17
ENDBRANCH   4  10
ENDBRANCH   3   4
TORSDOF 7
ENDMDL
MODEL 5
REMARK VINA RESULT: -6.616096891      2.745      4.209
REMARK  7 active torsions:
REMARK  status: ('A' for Active; 'I' for Inactive)
REMARK    1  A    between atoms: C3_3  and  C4_4 
REMARK    2  A    between atoms: C4_4  and  N1_6 
REMARK    3  A    between atoms: C4_4  and  C6_10 
REMARK    4  A    between atoms: C8_13  and  O1_14 
REMARK    5  A    between atoms: C8_13  and  N2_16 
REMARK       I    between atoms: N2_16  and  C9_17 
REMARK    6  A    between atoms: C9_17  and  O3_19 
REMARK    7  A    between atoms: O3_19  and  C10_20 
ROOT
HETATM    1  C1  UNL     1      16.588  -0.708   2.941  1.00  0.00     0.112 C 
HETATM    2  C2  UNL     1      16.648  -0.542   4.401  1.00  0.00    -0.108 C 
HETATM    3  C3  UNL     1      16.714  -0.348   5.588  1.00  0.00    -0.066 C 
ENDROOT
BRANCH   3   4
HETATM    4  C4  UNL     1      16.862   0.042   7.029  1.00  0.00     0.208 C 
HETATM    5  C5  UNL     1      17.761   1.203   7.212  1.00  0.00     0.063 C 
BRANCH   4   6
HETATM    6  N1  UNL     1      15.508   0.407   7.499  1.00  0.00    -0.057 N 
ATOM      7  H13 UNL     1      14.964   0.920   6.806  1.00  0.00     0.276 HD
ATOM      8  H12 UNL     1      14.881  -0.392   7.585  1.00  0.00     0.276 HD
ATOM      9  H11 UNL     1      15.637   0.917   8.372  1.00  0.00     0.276 HD
ENDBRANCH   4   6
BRANCH   4  10
HETATM   10  C6  UNL     1      17.277  -1.226   7.786  1.00  0.00     0.186 C 
HETATM   11  C7  UNL     1      15.964  -2.116   8.025  1.00  0.00     0.118 C 
HETATM   12  S1  UNL     1      16.868  -3.672   8.365  1.00  0.00    -0.060 SA
HETATM   13  C8  UNL     1      18.401  -3.110   7.422  1.00  0.00     0.371 C 
HETATM   14  O4  UNL     1      17.913  -1.992   6.865  1.00  0.00    -0.309 OA
BRANCH  13  15
HETATM   15  O1  UNL     1      19.295  -2.757   8.552  1.00  0.00    -0.329 OA
ATOM     16  H1  UNL     1      18.674  -2.766   9.271  1.00  0.00     0.217 HD
ENDBRANCH  13  15
BRANCH  13  17
HETATM   17  N2  UNL     1      18.922  -4.012   6.645  1.00  0.00    -0.312 NA
HETATM   18  C9  UNL     1      19.542  -5.078   5.735  1.00  0.00     0.444 C 
HETATM   19  O2  UNL     1      20.264  -5.762   6.213  1.00  0.00    -0.221 OA
BRANCH  18  20
HETATM   20  O3  UNL     1      18.960  -4.758   4.511  1.00  0.00    -0.236 OA
BRANCH  20  21
HETATM   21  C10 UNL     1      19.772  -4.213   3.452  1.00  0.00     0.290 C 
HETATM   22  C11 UNL     1      18.910  -3.536   2.392  1.00  0.00     0.105 C 
HETATM   23  F1  UNL     1      20.737  -3.347   3.843  1.00  0.00    -0.193 F 
HETATM   24 CL1  UNL     1      20.595  -5.688   2.799  1.00  0.00    -0.052 Cl
ENDBRANCH  20  21
ENDBRANCH  18  20
ENDBRANCH  13  17
ENDBRANCH   4  10
ENDBRANCH   3   4
TORSDOF 7
ENDMDL
