MODEL 1
REMARK VINA RESULT: -9.986636430      0.000      0.000
REMARK  8 active torsions:
REMARK  status: ('A' for Active; 'I' for Inactive)
REMARK    1  A    between atoms: C2_2  and  O2_4 
REMARK    2  A    between atoms: O2_4  and  C3_5 
REMARK    3  A    between atoms: N1_13  and  O4_15 
REMARK    4  A    between atoms: O4_15  and  C10_16 
REMARK    5  A    between atoms: C10_16  and  C11_17 
REMARK    6  A    between atoms: C12_19  and  O6_20 
REMARK    7  A    between atoms: C13_22  and  O7_23 
REMARK    8  A    between atoms: C14_25  and  O8_26 
ROOT
HETATM    1  C3  UNL     1      -3.164 -10.970  30.824  1.00  0.00     0.273 C 
HETATM    2  O3  UNL     1      -4.288 -10.541  30.088  1.00  0.00    -0.360 OA
HETATM    3  C4  UNL     1      -5.080 -11.686  29.971  1.00  0.00     0.175 C 
HETATM    4  C5  UNL     1      -4.464 -12.669  28.988  1.00  0.00     0.010 C 
HETATM    5  C6  UNL     1      -5.215 -13.976  29.202  1.00  0.00     0.012 C 
HETATM    6  C7  UNL     1      -3.041 -12.905  29.339  1.00  0.00     0.007 C 
HETATM    7  C8  UNL     1      -2.227 -13.640  28.310  1.00  0.00     0.092 C 
HETATM    8  C9  UNL     1      -2.537 -13.304  26.908  1.00  0.00     0.143 C 
HETATM    9  N1  UNL     1      -3.603 -13.899  26.437  1.00  0.00    -0.248 N 
ATOM     10  H1  UNL     1      -4.111 -14.524  27.063  1.00  0.00     0.196 HD
HETATM   11  O9  UNL     1      -1.812 -12.467  26.152  1.00  0.00    -0.301 OA
HETATM   12  C15 UNL     1      -0.637 -11.815  26.198  1.00  0.00     0.047 C 
HETATM   13  C16 UNL     1       0.168 -11.832  24.882  1.00  0.00     0.076 C 
HETATM   14  C17 UNL     1      -0.047 -11.163  27.160  1.00  0.00     0.006 C 
HETATM   15  C18 UNL     1      -0.431 -10.897  28.534  1.00  0.00     0.030 C 
HETATM   16  C19 UNL     1      -1.899 -10.730  28.747  1.00  0.00     0.013 C 
HETATM   17  C20 UNL     1      -2.284 -11.704  29.851  1.00  0.00     0.047 C 
ENDROOT
BRANCH   9  18
HETATM   18  O4  UNL     1      -4.074 -13.745  25.188  1.00  0.00    -0.276 OA
BRANCH  18  19
HETATM   19  C10 UNL     1      -3.513 -14.201  23.991  1.00  0.00     0.235 C 
BRANCH  19  20
HETATM   20  C11 UNL     1      -3.478 -15.711  23.930  1.00  0.00     0.182 C 
HETATM   21  O5  UNL     1      -4.515 -16.222  23.149  1.00  0.00    -0.349 OA
HETATM   22  C12 UNL     1      -4.145 -17.530  22.844  1.00  0.00     0.288 C 
HETATM   23  C13 UNL     1      -2.629 -17.558  22.774  1.00  0.00     0.204 C 
HETATM   24  C14 UNL     1      -2.254 -16.134  23.129  1.00  0.00     0.183 C 
BRANCH  22  25
HETATM   25  O6  UNL     1      -4.730 -18.006  21.688  1.00  0.00    -0.369 OA
ATOM     26  H6  UNL     1      -5.596 -18.369  21.828  1.00  0.00     0.212 HD
ENDBRANCH  22  25
BRANCH  23  27
HETATM   27  O7  UNL     1      -2.175 -17.799  21.482  1.00  0.00    -0.388 OA
ATOM     28  H7  UNL     1      -1.360 -17.344  21.303  1.00  0.00     0.210 HD
ENDBRANCH  23  27
BRANCH  24  29
HETATM   29  O8  UNL     1      -2.208 -15.307  21.992  1.00  0.00    -0.390 OA
ATOM     30  H8  UNL     1      -1.300 -15.272  21.715  1.00  0.00     0.210 HD
ENDBRANCH  24  29
ENDBRANCH  19  20
ENDBRANCH  18  19
ENDBRANCH   9  18
BRANCH   1  31
HETATM   31  O2  UNL     1      -2.458  -9.862  31.343  1.00  0.00    -0.290 OA
BRANCH  31  32
HETATM   32  C2  UNL     1      -2.504  -9.476  32.653  1.00  0.00     0.257 C 
HETATM   33  C1  UNL     1      -2.175 -10.381  33.788  1.00  0.00     0.126 C 
HETATM   34  O1  UNL     1      -2.852  -8.265  32.870  1.00  0.00    -0.266 OA
ENDBRANCH  31  32
ENDBRANCH   1  31
TORSDOF 8
ENDMDL
MODEL 2
REMARK VINA RESULT: -9.711873710      0.773      1.054
REMARK  8 active torsions:
REMARK  status: ('A' for Active; 'I' for Inactive)
REMARK    1  A    between atoms: C2_2  and  O2_4 
REMARK    2  A    between atoms: O2_4  and  C3_5 
REMARK    3  A    between atoms: N1_13  and  O4_15 
REMARK    4  A    between atoms: O4_15  and  C10_16 
REMARK    5  A    between atoms: C10_16  and  C11_17 
REMARK    6  A    between atoms: C12_19  and  O6_20 
REMARK    7  A    between atoms: C13_22  and  O7_23 
REMARK    8  A    between atoms: C14_25  and  O8_26 
ROOT
HETATM    1  C3  UNL     1      -3.188 -10.903  30.957  1.00  0.00     0.273 C 
HETATM    2  O3  UNL     1      -4.306 -10.472  30.212  1.00  0.00    -0.360 OA
HETATM    3  C4  UNL     1      -5.102 -11.614  30.094  1.00  0.00     0.175 C 
HETATM    4  C5  UNL     1      -4.484 -12.604  29.119  1.00  0.00     0.010 C 
HETATM    5  C6  UNL     1      -5.242 -13.907  29.334  1.00  0.00     0.012 C 
HETATM    6  C7  UNL     1      -3.065 -12.845  29.481  1.00  0.00     0.007 C 
HETATM    7  C8  UNL     1      -2.248 -13.589  28.460  1.00  0.00     0.092 C 
HETATM    8  C9  UNL     1      -2.548 -13.258  27.054  1.00  0.00     0.143 C 
HETATM    9  N1  UNL     1      -3.613 -13.850  26.580  1.00  0.00    -0.248 N 
ATOM     10  H1  UNL     1      -4.128 -14.470  27.204  1.00  0.00     0.196 HD
HETATM   11  O9  UNL     1      -1.814 -12.426  26.300  1.00  0.00    -0.301 OA
HETATM   12  C15 UNL     1      -0.636 -11.780  26.350  1.00  0.00     0.047 C 
HETATM   13  C16 UNL     1       0.177 -11.806  25.039  1.00  0.00     0.076 C 
HETATM   14  C17 UNL     1      -0.049 -11.126  27.312  1.00  0.00     0.006 C 
HETATM   15  C18 UNL     1      -0.441 -10.852  28.684  1.00  0.00     0.030 C 
HETATM   16  C19 UNL     1      -1.910 -10.678  28.887  1.00  0.00     0.013 C 
HETATM   17  C20 UNL     1      -2.306 -11.645  29.991  1.00  0.00     0.047 C 
ENDROOT
BRANCH   9  18
HETATM   18  O4  UNL     1      -4.076 -13.699  25.327  1.00  0.00    -0.276 OA
BRANCH  18  19
HETATM   19  C10 UNL     1      -3.387 -13.885  24.124  1.00  0.00     0.235 C 
BRANCH  19  20
HETATM   20  C11 UNL     1      -3.916 -15.075  23.356  1.00  0.00     0.182 C 
HETATM   21  O5  UNL     1      -3.075 -15.424  22.298  1.00  0.00    -0.349 OA
HETATM   22  C12 UNL     1      -3.435 -16.722  21.946  1.00  0.00     0.288 C 
HETATM   23  C13 UNL     1      -3.916 -17.409  23.211  1.00  0.00     0.204 C 
HETATM   24  C14 UNL     1      -3.815 -16.307  24.245  1.00  0.00     0.183 C 
BRANCH  22  25
HETATM   25  O6  UNL     1      -2.417 -17.420  21.328  1.00  0.00    -0.369 OA
ATOM     26  H6  UNL     1      -2.655 -18.314  21.107  1.00  0.00     0.212 HD
ENDBRANCH  22  25
BRANCH  23  27
HETATM   27  O7  UNL     1      -3.056 -18.429  23.605  1.00  0.00    -0.388 OA
ATOM     28  H7  UNL     1      -3.237 -18.723  24.490  1.00  0.00     0.210 HD
ENDBRANCH  23  27
BRANCH  24  29
HETATM   29  O8  UNL     1      -2.544 -16.270  24.848  1.00  0.00    -0.390 OA
ATOM     30  H8  UNL     1      -1.950 -15.888  24.212  1.00  0.00     0.210 HD
ENDBRANCH  24  29
ENDBRANCH  19  20
ENDBRANCH  18  19
ENDBRANCH   9  18
BRANCH   1  31
HETATM   31  O2  UNL     1      -2.480  -9.796  31.475  1.00  0.00    -0.290 OA
BRANCH  31  32
HETATM   32  C2  UNL     1      -2.573  -9.373  32.771  1.00  0.00     0.257 C 
HETATM   33  C1  UNL     1      -2.077 -10.165  33.930  1.00  0.00     0.126 C 
HETATM   34  O1  UNL     1      -3.118  -8.231  32.952  1.00  0.00    -0.266 OA
ENDBRANCH  31  32
ENDBRANCH   1  31
TORSDOF 8
ENDMDL
MODEL 3
REMARK VINA RESULT: -9.502145361      3.238      5.568
REMARK  8 active torsions:
REMARK  status: ('A' for Active; 'I' for Inactive)
REMARK    1  A    between atoms: C2_2  and  O2_4 
REMARK    2  A    between atoms: O2_4  and  C3_5 
REMARK    3  A    between atoms: N1_13  and  O4_15 
REMARK    4  A    between atoms: O4_15  and  C10_16 
REMARK    5  A    between atoms: C10_16  and  C11_17 
REMARK    6  A    between atoms: C12_19  and  O6_20 
REMARK    7  A    between atoms: C13_22  and  O7_23 
REMARK    8  A    between atoms: C14_25  and  O8_26 
ROOT
HETATM    1  C3  UNL     1      -6.375 -13.095  29.018  1.00  0.00     0.273 C 
HETATM    2  O3  UNL     1      -6.004 -12.449  27.819  1.00  0.00    -0.360 OA
HETATM    3  C4  UNL     1      -4.971 -13.239  27.309  1.00  0.00     0.175 C 
HETATM    4  C5  UNL     1      -3.701 -13.058  28.126  1.00  0.00     0.010 C 
HETATM    5  C6  UNL     1      -2.781 -14.193  27.695  1.00  0.00     0.012 C 
HETATM    6  C7  UNL     1      -4.000 -13.246  29.568  1.00  0.00     0.007 C 
HETATM    7  C8  UNL     1      -2.910 -12.837  30.519  1.00  0.00     0.092 C 
HETATM    8  C9  UNL     1      -2.156 -11.631  30.130  1.00  0.00     0.143 C 
HETATM    9  N1  UNL     1      -1.236 -11.843  29.225  1.00  0.00    -0.248 N 
ATOM     10  H1  UNL     1      -1.124 -12.796  28.877  1.00  0.00     0.196 HD
HETATM   11  O9  UNL     1      -2.368 -10.409  30.638  1.00  0.00    -0.301 OA
HETATM   12  C15 UNL     1      -3.061  -9.828  31.634  1.00  0.00     0.047 C 
HETATM   13  C16 UNL     1      -2.293  -8.738  32.412  1.00  0.00     0.076 C 
HETATM   14  C17 UNL     1      -4.275 -10.017  32.067  1.00  0.00     0.006 C 
HETATM   15  C18 UNL     1      -5.331 -10.919  31.643  1.00  0.00     0.030 C 
HETATM   16  C19 UNL     1      -5.355 -11.202  30.178  1.00  0.00     0.013 C 
HETATM   17  C20 UNL     1      -5.334 -12.716  30.034  1.00  0.00     0.047 C 
ENDROOT
BRANCH   9  18
HETATM   18  O4  UNL     1      -0.428 -10.895  28.720  1.00  0.00    -0.276 OA
BRANCH  18  19
HETATM   19  C10 UNL     1       0.100 -10.809  27.428  1.00  0.00     0.235 C 
BRANCH  19  20
HETATM   20  C11 UNL     1      -0.374 -11.947  26.554  1.00  0.00     0.182 C 
HETATM   21  O5  UNL     1      -0.353 -11.605  25.201  1.00  0.00    -0.349 OA
HETATM   22  C12 UNL     1      -0.409 -12.812  24.508  1.00  0.00     0.288 C 
HETATM   23  C13 UNL     1       0.289 -13.850  25.367  1.00  0.00     0.204 C 
HETATM   24  C14 UNL     1       0.664 -13.060  26.603  1.00  0.00     0.183 C 
BRANCH  22  25
HETATM   25  O6  UNL     1       0.131 -12.736  23.239  1.00  0.00    -0.369 OA
ATOM     26  H6  UNL     1       0.214 -11.845  22.920  1.00  0.00     0.212 HD
ENDBRANCH  22  25
BRANCH  23  27
HETATM   27  O7  UNL     1       1.470 -14.296  24.783  1.00  0.00    -0.388 OA
ATOM     28  H7  UNL     1       1.488 -15.243  24.703  1.00  0.00     0.210 HD
ENDBRANCH  23  27
BRANCH  24  29
HETATM   29  O8  UNL     1       1.923 -12.447  26.470  1.00  0.00    -0.390 OA
ATOM     30  H8  UNL     1       1.898 -11.653  26.991  1.00  0.00     0.210 HD
ENDBRANCH  24  29
ENDBRANCH  19  20
ENDBRANCH  18  19
ENDBRANCH   9  18
BRANCH   1  31
HETATM   31  O2  UNL     1      -7.638 -12.639  29.457  1.00  0.00    -0.290 OA
BRANCH  31  32
HETATM   32  C2  UNL     1      -8.459 -13.353  30.283  1.00  0.00     0.257 C 
HETATM   33  C1  UNL     1      -8.130 -14.713  30.793  1.00  0.00     0.126 C 
HETATM   34  O1  UNL     1      -9.556 -12.785  30.613  1.00  0.00    -0.266 OA
ENDBRANCH  31  32
ENDBRANCH   1  31
TORSDOF 8
ENDMDL
MODEL 4
REMARK VINA RESULT: -9.416991910      2.763      4.325
REMARK  8 active torsions:
REMARK  status: ('A' for Active; 'I' for Inactive)
REMARK    1  A    between atoms: C2_2  and  O2_4 
REMARK    2  A    between atoms: O2_4  and  C3_5 
REMARK    3  A    between atoms: N1_13  and  O4_15 
REMARK    4  A    between atoms: O4_15  and  C10_16 
REMARK    5  A    between atoms: C10_16  and  C11_17 
REMARK    6  A    between atoms: C12_19  and  O6_20 
REMARK    7  A    between atoms: C13_22  and  O7_23 
REMARK    8  A    between atoms: C14_25  and  O8_26 
ROOT
HETATM    1  C3  UNL     1      -5.324 -14.344  28.352  1.00  0.00     0.273 C 
HETATM    2  O3  UNL     1      -5.030 -14.665  27.010  1.00  0.00    -0.360 OA
HETATM    3  C4  UNL     1      -4.241 -15.814  27.096  1.00  0.00     0.175 C 
HETATM    4  C5  UNL     1      -2.850 -15.476  27.612  1.00  0.00     0.010 C 
HETATM    5  C6  UNL     1      -2.220 -16.813  27.976  1.00  0.00     0.012 C 
HETATM    6  C7  UNL     1      -2.958 -14.676  28.857  1.00  0.00     0.007 C 
HETATM    7  C8  UNL     1      -1.682 -14.040  29.337  1.00  0.00     0.092 C 
HETATM    8  C9  UNL     1      -0.795 -13.533  28.274  1.00  0.00     0.143 C 
HETATM    9  N1  UNL     1      -0.073 -14.455  27.693  1.00  0.00    -0.248 N 
ATOM     10  H1  UNL     1      -0.184 -15.417  28.015  1.00  0.00     0.196 HD
HETATM   11  O9  UNL     1      -0.710 -12.245  27.910  1.00  0.00    -0.301 OA
HETATM   12  C15 UNL     1      -1.132 -11.040  28.331  1.00  0.00     0.047 C 
HETATM   13  C16 UNL     1      -0.076  -9.916  28.253  1.00  0.00     0.076 C 
HETATM   14  C17 UNL     1      -2.281 -10.639  28.797  1.00  0.00     0.006 C 
HETATM   15  C18 UNL     1      -3.531 -11.339  29.037  1.00  0.00     0.030 C 
HETATM   16  C19 UNL     1      -3.824 -12.436  28.069  1.00  0.00     0.013 C 
HETATM   17  C20 UNL     1      -4.092 -13.681  28.901  1.00  0.00     0.047 C 
ENDROOT
BRANCH   9  18
HETATM   18  O4  UNL     1       0.803 -14.226  26.700  1.00  0.00    -0.276 OA
BRANCH  18  19
HETATM   19  C10 UNL     1       0.631 -13.431  25.562  1.00  0.00     0.235 C 
BRANCH  19  20
HETATM   20  C11 UNL     1      -0.028 -14.198  24.439  1.00  0.00     0.182 C 
HETATM   21  O5  UNL     1      -0.503 -15.438  24.868  1.00  0.00    -0.349 OA
HETATM   22  C12 UNL     1      -1.411 -15.849  23.896  1.00  0.00     0.288 C 
HETATM   23  C13 UNL     1      -2.042 -14.594  23.319  1.00  0.00     0.204 C 
HETATM   24  C14 UNL     1      -1.321 -13.489  24.062  1.00  0.00     0.183 C 
BRANCH  22  25
HETATM   25  O6  UNL     1      -2.355 -16.736  24.372  1.00  0.00    -0.369 OA
ATOM     26  H6  UNL     1      -1.992 -17.583  24.603  1.00  0.00     0.212 HD
ENDBRANCH  22  25
BRANCH  23  27
HETATM   27  O7  UNL     1      -3.392 -14.500  23.639  1.00  0.00    -0.388 OA
ATOM     28  H7  UNL     1      -3.919 -15.105  23.129  1.00  0.00     0.210 HD
ENDBRANCH  23  27
BRANCH  24  29
HETATM   29  O8  UNL     1      -1.970 -13.160  25.267  1.00  0.00    -0.390 OA
ATOM     30  H8  UNL     1      -2.799 -12.760  25.031  1.00  0.00     0.210 HD
ENDBRANCH  24  29
ENDBRANCH  19  20
ENDBRANCH  18  19
ENDBRANCH   9  18
BRANCH   1  31
HETATM   31  O2  UNL     1      -6.407 -13.439  28.420  1.00  0.00    -0.290 OA
BRANCH  31  32
HETATM   32  C2  UNL     1      -7.482 -13.600  29.249  1.00  0.00     0.257 C 
HETATM   33  C1  UNL     1      -7.600 -14.711  30.234  1.00  0.00     0.126 C 
HETATM   34  O1  UNL     1      -8.410 -12.729  29.140  1.00  0.00    -0.266 OA
ENDBRANCH  31  32
ENDBRANCH   1  31
TORSDOF 8
ENDMDL
MODEL 5
REMARK VINA RESULT: -9.411010670      1.024      1.290
REMARK  8 active torsions:
REMARK  status: ('A' for Active; 'I' for Inactive)
REMARK    1  A    between atoms: C2_2  and  O2_4 
REMARK    2  A    between atoms: O2_4  and  C3_5 
REMARK    3  A    between atoms: N1_13  and  O4_15 
REMARK    4  A    between atoms: O4_15  and  C10_16 
REMARK    5  A    between atoms: C10_16  and  C11_17 
REMARK    6  A    between atoms: C12_19  and  O6_20 
REMARK    7  A    between atoms: C13_22  and  O7_23 
REMARK    8  A    between atoms: C14_25  and  O8_26 
ROOT
HETATM    1  C3  UNL     1      -3.128 -11.066  30.778  1.00  0.00     0.273 C 
HETATM    2  O3  UNL     1      -4.275 -10.711  30.037  1.00  0.00    -0.360 OA
HETATM    3  C4  UNL     1      -5.005 -11.898  29.944  1.00  0.00     0.175 C 
HETATM    4  C5  UNL     1      -4.340 -12.867  28.978  1.00  0.00     0.010 C 
HETATM    5  C6  UNL     1      -5.021 -14.207  29.220  1.00  0.00     0.012 C 
HETATM    6  C7  UNL     1      -2.906 -13.021  29.331  1.00  0.00     0.007 C 
HETATM    7  C8  UNL     1      -2.057 -13.732  28.313  1.00  0.00     0.092 C 
HETATM    8  C9  UNL     1      -2.387 -13.441  26.906  1.00  0.00     0.143 C 
HETATM    9  N1  UNL     1      -3.420 -14.100  26.450  1.00  0.00    -0.248 N 
ATOM     10  H1  UNL     1      -3.894 -14.739  27.089  1.00  0.00     0.196 HD
HETATM   11  O9  UNL     1      -1.708 -12.581  26.132  1.00  0.00    -0.301 OA
HETATM   12  C15 UNL     1      -0.569 -11.868  26.162  1.00  0.00     0.047 C 
HETATM   13  C16 UNL     1       0.234 -11.868  24.844  1.00  0.00     0.076 C 
HETATM   14  C17 UNL     1      -0.012 -11.167  27.109  1.00  0.00     0.006 C 
HETATM   15  C18 UNL     1      -0.407 -10.894  28.479  1.00  0.00     0.030 C 
HETATM   16  C19 UNL     1      -1.882 -10.801  28.693  1.00  0.00     0.013 C 
HETATM   17  C20 UNL     1      -2.213 -11.772  29.816  1.00  0.00     0.047 C 
ENDROOT
BRANCH   9  18
HETATM   18  O4  UNL     1      -3.901 -13.995  25.200  1.00  0.00    -0.276 OA
BRANCH  18  19
HETATM   19  C10 UNL     1      -3.929 -14.974  24.201  1.00  0.00     0.235 C 
BRANCH  19  20
HETATM   20  C11 UNL     1      -2.589 -15.656  24.049  1.00  0.00     0.182 C 
HETATM   21  O5  UNL     1      -2.454 -16.733  24.926  1.00  0.00    -0.349 OA
HETATM   22  C12 UNL     1      -1.402 -17.496  24.425  1.00  0.00     0.288 C 
HETATM   23  C13 UNL     1      -1.413 -17.330  22.916  1.00  0.00     0.204 C 
HETATM   24  C14 UNL     1      -2.552 -16.356  22.698  1.00  0.00     0.183 C 
BRANCH  22  25
HETATM   25  O6  UNL     1      -1.461 -18.821  24.804  1.00  0.00    -0.369 OA
ATOM     26  H6  UNL     1      -0.654 -19.295  24.638  1.00  0.00     0.212 HD
ENDBRANCH  22  25
BRANCH  23  27
HETATM   27  O7  UNL     1      -1.747 -18.514  22.268  1.00  0.00    -0.388 OA
ATOM     28  H7  UNL     1      -1.490 -18.501  21.353  1.00  0.00     0.210 HD
ENDBRANCH  23  27
BRANCH  24  29
HETATM   29  O8  UNL     1      -3.785 -17.018  22.550  1.00  0.00    -0.390 OA
ATOM     30  H8  UNL     1      -3.916 -17.149  21.618  1.00  0.00     0.210 HD
ENDBRANCH  24  29
ENDBRANCH  19  20
ENDBRANCH  18  19
ENDBRANCH   9  18
BRANCH   1  31
HETATM   31  O2  UNL     1      -2.480  -9.913  31.273  1.00  0.00    -0.290 OA
BRANCH  31  32
HETATM   32  C2  UNL     1      -2.526  -9.516  32.580  1.00  0.00     0.257 C 
HETATM   33  C1  UNL     1      -2.157 -10.402  33.719  1.00  0.00     0.126 C 
HETATM   34  O1  UNL     1      -2.908  -8.315  32.790  1.00  0.00    -0.266 OA
ENDBRANCH  31  32
ENDBRANCH   1  31
TORSDOF 8
ENDMDL
