MODEL 1
REMARK VINA RESULT: -9.032933453      0.000      0.000
REMARK  13 active torsions:
REMARK  status: ('A' for Active; 'I' for Inactive)
REMARK    1  A    between atoms: C2_2  and  C3_3 
REMARK    2  A    between atoms: C3_3  and  N1_5 
REMARK       I    between atoms: N1_5  and  C5_7 
REMARK       I    between atoms: C5_7  and  N2_9 
REMARK    3  A    between atoms: C8_13  and  N3_14 
REMARK       I    between atoms: N3_14  and  C9_16 
REMARK    4  A    between atoms: C9_16  and  C10_18 
REMARK    5  A    between atoms: C10_18  and  C11_20 
REMARK    6  A    between atoms: C11_20  and  C12_21 
REMARK    7  A    between atoms: C11_20  and  N4_25 
REMARK    8  A    between atoms: C12_21  and  C13_22 
REMARK       I    between atoms: N4_25  and  C16_27 
REMARK    9  A    between atoms: C16_27  and  C17_29 
REMARK       I    between atoms: N5_36  and  C24_37 
REMARK   10  A    between atoms: C24_37  and  O7_39 
REMARK   11  A    between atoms: O7_39  and  C25_40 
REMARK   12  A    between atoms: C25_40  and  C26_41 
REMARK   13  A    between atoms: C26_41  and  S1_42 
ROOT
HETATM    1  N1  UNL     1      21.122  27.352  15.433  1.00  0.00    -0.339 N 
ATOM      2  H1  UNL     1      21.762  26.694  15.877  1.00  0.00     0.164 HD
HETATM    3  C5  UNL     1      19.745  27.032  15.355  1.00  0.00     0.320 C 
HETATM    4  O1  UNL     1      18.979  27.886  14.791  1.00  0.00    -0.247 OA
HETATM    5  N2  UNL     1      19.161  25.864  15.848  1.00  0.00    -0.310 N 
HETATM    6  C6  UNL     1      17.730  25.639  15.745  1.00  0.00     0.211 C 
HETATM    7  C7  UNL     1      17.244  25.349  17.148  1.00  0.00     0.187 C 
HETATM    8  O2  UNL     1      16.368  26.030  17.601  1.00  0.00    -0.292 OA
HETATM    9  C8  UNL     1      17.896  24.232  17.871  1.00  0.00     0.265 C 
HETATM   10  N5  UNL     1      19.335  24.442  17.726  1.00  0.00    -0.283 N 
HETATM   11  C24 UNL     1      20.165  24.291  18.892  1.00  0.00     0.366 C 
HETATM   12  O6  UNL     1      21.403  24.457  18.905  1.00  0.00    -0.238 OA
HETATM   13  C28 UNL     1      19.929  24.827  16.486  1.00  0.00     0.262 C 
ENDROOT
BRANCH   9  14
HETATM   14  N3  UNL     1      17.443  23.011  17.296  1.00  0.00    -0.326 N 
HETATM   15  C9  UNL     1      16.227  22.366  17.615  1.00  0.00     0.291 C 
HETATM   16  O3  UNL     1      15.438  22.781  18.488  1.00  0.00    -0.264 OA
ATOM     17  H3  UNL     1      18.043  22.567  16.599  1.00  0.00     0.165 HD
BRANCH  15  18
HETATM   18  C10 UNL     1      15.873  21.169  16.898  1.00  0.00     0.238 C 
HETATM   19  O4  UNL     1      16.828  20.357  16.641  1.00  0.00    -0.285 OA
BRANCH  18  20
HETATM   20  C11 UNL     1      14.493  20.840  16.449  1.00  0.00     0.164 C 
BRANCH  20  21
HETATM   21  C12 UNL     1      14.318  20.579  15.028  1.00  0.00     0.037 C 
BRANCH  21  22
HETATM   22  C13 UNL     1      14.189  21.761  14.108  1.00  0.00    -0.020 C 
HETATM   23  C14 UNL     1      13.503  22.922  14.850  1.00  0.00     0.009 C 
HETATM   24  C15 UNL     1      15.422  22.223  13.437  1.00  0.00     0.009 C 
ENDBRANCH  21  22
ENDBRANCH  20  21
BRANCH  20  25
HETATM   25  N4  UNL     1      14.070  19.787  17.380  1.00  0.00    -0.348 N 
HETATM   26  C16 UNL     1      12.726  19.594  17.799  1.00  0.00     0.226 C 
HETATM   27  O5  UNL     1      11.814  20.342  17.375  1.00  0.00    -0.273 OA
ATOM     28  H4  UNL     1      14.782  19.156  17.747  1.00  0.00     0.163 HD
BRANCH  26  29
HETATM   29  C17 UNL     1      12.442  18.474  18.759  1.00  0.00     0.037 C 
HETATM   30  C18 UNL     1      13.159  17.239  18.292  1.00  0.00     0.025 C 
HETATM   31  C19 UNL     1      10.966  18.184  18.797  1.00  0.00     0.019 C 
HETATM   32  C20 UNL     1      10.706  16.990  19.696  1.00  0.00     0.001 C 
HETATM   33  C21 UNL     1      11.549  16.968  20.919  1.00  0.00     0.000 C 
HETATM   34  C22 UNL     1      12.257  18.228  21.267  1.00  0.00     0.001 C 
HETATM   35  C23 UNL     1      12.949  18.923  20.120  1.00  0.00     0.019 C 
ENDBRANCH  26  29
ENDBRANCH  20  25
ENDBRANCH  18  20
ENDBRANCH  15  18
ENDBRANCH   9  14
BRANCH  11  36
HETATM   36  O7  UNL     1      19.560  23.926  20.120  1.00  0.00    -0.303 OA
BRANCH  36  37
HETATM   37  C25 UNL     1      19.739  24.712  21.276  1.00  0.00     0.191 C 
BRANCH  37  38
HETATM   38  C26 UNL     1      21.174  24.627  21.772  1.00  0.00     0.100 C 
BRANCH  38  39
HETATM   39  S1  UNL     1      21.803  26.322  22.030  1.00  0.00    -0.171 SA
HETATM   40  C27 UNL     1      21.164  27.473  20.787  1.00  0.00     0.089 C 
ENDBRANCH  38  39
ENDBRANCH  37  38
ENDBRANCH  36  37
ENDBRANCH  11  36
BRANCH   1  41
HETATM   41  C3  UNL     1      21.644  28.598  14.895  1.00  0.00     0.081 C 
HETATM   42  C4  UNL     1      21.590  28.518  13.399  1.00  0.00     0.032 C 
BRANCH  41  43
HETATM   43  C2  UNL     1      23.103  28.723  15.316  1.00  0.00     0.020 C 
HETATM   44  C1  UNL     1      23.691  27.429  15.813  1.00  0.00     0.007 C 
ENDBRANCH  41  43
ENDBRANCH   1  41
TORSDOF 13
ENDMDL
MODEL 2
REMARK VINA RESULT: -8.741187674      2.207      3.192
REMARK  13 active torsions:
REMARK  status: ('A' for Active; 'I' for Inactive)
REMARK    1  A    between atoms: C2_2  and  C3_3 
REMARK    2  A    between atoms: C3_3  and  N1_5 
REMARK       I    between atoms: N1_5  and  C5_7 
REMARK       I    between atoms: C5_7  and  N2_9 
REMARK    3  A    between atoms: C8_13  and  N3_14 
REMARK       I    between atoms: N3_14  and  C9_16 
REMARK    4  A    between atoms: C9_16  and  C10_18 
REMARK    5  A    between atoms: C10_18  and  C11_20 
REMARK    6  A    between atoms: C11_20  and  C12_21 
REMARK    7  A    between atoms: C11_20  and  N4_25 
REMARK    8  A    between atoms: C12_21  and  C13_22 
REMARK       I    between atoms: N4_25  and  C16_27 
REMARK    9  A    between atoms: C16_27  and  C17_29 
REMARK       I    between atoms: N5_36  and  C24_37 
REMARK   10  A    between atoms: C24_37  and  O7_39 
REMARK   11  A    between atoms: O7_39  and  C25_40 
REMARK   12  A    between atoms: C25_40  and  C26_41 
REMARK   13  A    between atoms: C26_41  and  S1_42 
ROOT
HETATM    1  N1  UNL     1      20.120  25.015  15.067  1.00  0.00    -0.339 N 
ATOM      2  H1  UNL     1      20.172  24.019  14.853  1.00  0.00     0.164 HD
HETATM    3  C5  UNL     1      18.892  25.566  15.504  1.00  0.00     0.320 C 
HETATM    4  O1  UNL     1      18.873  26.817  15.763  1.00  0.00    -0.247 OA
HETATM    5  N2  UNL     1      17.706  24.851  15.680  1.00  0.00    -0.310 N 
HETATM    6  C6  UNL     1      16.501  25.501  16.162  1.00  0.00     0.211 C 
HETATM    7  C7  UNL     1      16.047  24.712  17.370  1.00  0.00     0.187 C 
HETATM    8  O2  UNL     1      15.901  25.293  18.408  1.00  0.00    -0.292 OA
HETATM    9  C8  UNL     1      15.815  23.261  17.181  1.00  0.00     0.265 C 
HETATM   10  N5  UNL     1      16.998  22.749  16.494  1.00  0.00    -0.283 N 
HETATM   11  C24 UNL     1      17.583  21.524  16.970  1.00  0.00     0.366 C 
HETATM   12  O6  UNL     1      18.601  20.989  16.481  1.00  0.00    -0.238 OA
HETATM   13  C28 UNL     1      17.607  23.441  15.404  1.00  0.00     0.262 C 
ENDROOT
BRANCH   9  14
HETATM   14  N3  UNL     1      14.614  23.101  16.432  1.00  0.00    -0.326 N 
HETATM   15  C9  UNL     1      14.277  21.956  15.675  1.00  0.00     0.291 C 
HETATM   16  O3  UNL     1      15.035  20.974  15.541  1.00  0.00    -0.264 OA
ATOM     17  H3  UNL     1      13.945  23.872  16.443  1.00  0.00     0.165 HD
BRANCH  15  18
HETATM   18  C10 UNL     1      12.993  21.913  15.026  1.00  0.00     0.238 C 
HETATM   19  O4  UNL     1      12.532  23.030  14.604  1.00  0.00    -0.285 OA
BRANCH  18  20
HETATM   20  C11 UNL     1      12.197  20.672  14.829  1.00  0.00     0.164 C 
BRANCH  20  21
HETATM   21  C12 UNL     1      12.329  20.015  13.537  1.00  0.00     0.037 C 
BRANCH  21  22
HETATM   22  C13 UNL     1      11.114  19.337  12.967  1.00  0.00    -0.020 C 
HETATM   23  C14 UNL     1      10.995  19.660  11.467  1.00  0.00     0.009 C 
HETATM   24  C15 UNL     1      10.990  17.882  13.201  1.00  0.00     0.009 C 
ENDBRANCH  21  22
ENDBRANCH  20  21
BRANCH  20  25
HETATM   25  N4  UNL     1      12.506  19.872  16.020  1.00  0.00    -0.348 N 
HETATM   26  C16 UNL     1      11.524  19.202  16.800  1.00  0.00     0.226 C 
HETATM   27  O5  UNL     1      10.312  19.268  16.490  1.00  0.00    -0.273 OA
ATOM     28  H4  UNL     1      13.481  19.792  16.306  1.00  0.00     0.163 HD
BRANCH  26  29
HETATM   29  C17 UNL     1      11.989  18.422  17.996  1.00  0.00     0.037 C 
HETATM   30  C18 UNL     1      12.096  16.971  17.621  1.00  0.00     0.025 C 
HETATM   31  C19 UNL     1      10.996  18.553  19.120  1.00  0.00     0.019 C 
HETATM   32  C20 UNL     1      11.430  17.684  20.285  1.00  0.00     0.001 C 
HETATM   33  C21 UNL     1      12.896  17.689  20.520  1.00  0.00     0.000 C 
HETATM   34  C22 UNL     1      13.680  18.757  19.844  1.00  0.00     0.001 C 
HETATM   35  C23 UNL     1      13.343  18.989  18.392  1.00  0.00     0.019 C 
ENDBRANCH  26  29
ENDBRANCH  20  25
ENDBRANCH  18  20
ENDBRANCH  15  18
ENDBRANCH   9  14
BRANCH  11  36
HETATM   36  O7  UNL     1      16.979  20.857  18.064  1.00  0.00    -0.303 OA
BRANCH  36  37
HETATM   37  C25 UNL     1      16.962  21.441  19.347  1.00  0.00     0.191 C 
BRANCH  37  38
HETATM   38  C26 UNL     1      18.374  21.748  19.822  1.00  0.00     0.100 C 
BRANCH  38  39
HETATM   39  S1  UNL     1      18.490  23.533  20.189  1.00  0.00    -0.171 SA
HETATM   40  C27 UNL     1      19.468  24.414  18.945  1.00  0.00     0.089 C 
ENDBRANCH  38  39
ENDBRANCH  37  38
ENDBRANCH  36  37
ENDBRANCH  11  36
BRANCH   1  41
HETATM   41  C3  UNL     1      21.311  25.837  14.917  1.00  0.00     0.081 C 
HETATM   42  C4  UNL     1      21.729  26.305  16.280  1.00  0.00     0.032 C 
BRANCH  41  43
HETATM   43  C2  UNL     1      20.944  27.058  14.082  1.00  0.00     0.020 C 
HETATM   44  C1  UNL     1      21.843  28.239  14.332  1.00  0.00     0.007 C 
ENDBRANCH  41  43
ENDBRANCH   1  41
TORSDOF 13
ENDMDL
MODEL 3
REMARK VINA RESULT: -8.709174131      1.462      1.666
REMARK  13 active torsions:
REMARK  status: ('A' for Active; 'I' for Inactive)
REMARK    1  A    between atoms: C2_2  and  C3_3 
REMARK    2  A    between atoms: C3_3  and  N1_5 
REMARK       I    between atoms: N1_5  and  C5_7 
REMARK       I    between atoms: C5_7  and  N2_9 
REMARK    3  A    between atoms: C8_13  and  N3_14 
REMARK       I    between atoms: N3_14  and  C9_16 
REMARK    4  A    between atoms: C9_16  and  C10_18 
REMARK    5  A    between atoms: C10_18  and  C11_20 
REMARK    6  A    between atoms: C11_20  and  C12_21 
REMARK    7  A    between atoms: C11_20  and  N4_25 
REMARK    8  A    between atoms: C12_21  and  C13_22 
REMARK       I    between atoms: N4_25  and  C16_27 
REMARK    9  A    between atoms: C16_27  and  C17_29 
REMARK       I    between atoms: N5_36  and  C24_37 
REMARK   10  A    between atoms: C24_37  and  O7_39 
REMARK   11  A    between atoms: O7_39  and  C25_40 
REMARK   12  A    between atoms: C25_40  and  C26_41 
REMARK   13  A    between atoms: C26_41  and  S1_42 
ROOT
HETATM    1  N1  UNL     1      21.476  26.554  16.483  1.00  0.00    -0.339 N 
ATOM      2  H1  UNL     1      21.884  25.663  16.763  1.00  0.00     0.164 HD
HETATM    3  C5  UNL     1      20.099  26.613  16.158  1.00  0.00     0.320 C 
HETATM    4  O1  UNL     1      19.630  27.750  15.813  1.00  0.00    -0.247 OA
HETATM    5  N2  UNL     1      19.217  25.531  16.191  1.00  0.00    -0.310 N 
HETATM    6  C6  UNL     1      17.812  25.698  15.868  1.00  0.00     0.211 C 
HETATM    7  C7  UNL     1      17.037  25.150  17.046  1.00  0.00     0.187 C 
HETATM    8  O2  UNL     1      16.247  25.866  17.592  1.00  0.00    -0.292 OA
HETATM    9  C8  UNL     1      17.317  23.751  17.446  1.00  0.00     0.265 C 
HETATM   10  N5  UNL     1      18.771  23.638  17.532  1.00  0.00    -0.283 N 
HETATM   11  C24 UNL     1      19.335  22.967  18.673  1.00  0.00     0.366 C 
HETATM   12  O6  UNL     1      20.559  22.818  18.873  1.00  0.00    -0.238 OA
HETATM   13  C28 UNL     1      19.640  24.203  16.549  1.00  0.00     0.262 C 
ENDROOT
BRANCH   9  14
HETATM   14  N3  UNL     1      16.741  22.890  16.469  1.00  0.00    -0.326 N 
HETATM   15  C9  UNL     1      15.437  22.349  16.533  1.00  0.00     0.291 C 
HETATM   16  O3  UNL     1      14.664  22.532  17.495  1.00  0.00    -0.264 OA
ATOM     17  H3  UNL     1      17.314  22.645  15.660  1.00  0.00     0.165 HD
BRANCH  15  18
HETATM   18  C10 UNL     1      14.968  21.548  15.432  1.00  0.00     0.238 C 
HETATM   19  O4  UNL     1      15.776  21.406  14.449  1.00  0.00    -0.285 OA
BRANCH  18  20
HETATM   20  C11 UNL     1      13.631  20.898  15.380  1.00  0.00     0.164 C 
BRANCH  20  21
HETATM   21  C12 UNL     1      13.231  20.341  14.096  1.00  0.00     0.037 C 
BRANCH  21  22
HETATM   22  C13 UNL     1      11.772  20.382  13.737  1.00  0.00    -0.020 C 
HETATM   23  C14 UNL     1      11.193  21.767  14.078  1.00  0.00     0.009 C 
HETATM   24  C15 UNL     1      11.411  19.988  12.359  1.00  0.00     0.009 C 
ENDBRANCH  21  22
ENDBRANCH  20  21
BRANCH  20  25
HETATM   25  N4  UNL     1      13.646  19.986  16.530  1.00  0.00    -0.348 N 
HETATM   26  C16 UNL     1      12.508  19.709  17.335  1.00  0.00     0.226 C 
HETATM   27  O5  UNL     1      11.407  20.251  17.087  1.00  0.00    -0.273 OA
ATOM     28  H4  UNL     1      14.524  19.523  16.764  1.00  0.00     0.163 HD
BRANCH  26  29
HETATM   29  C17 UNL     1      12.675  18.754  18.483  1.00  0.00     0.037 C 
HETATM   30  C18 UNL     1      13.623  17.663  18.075  1.00  0.00     0.025 C 
HETATM   31  C19 UNL     1      11.351  18.130  18.836  1.00  0.00     0.019 C 
HETATM   32  C20 UNL     1      11.551  17.099  19.930  1.00  0.00     0.001 C 
HETATM   33  C21 UNL     1      12.534  17.510  20.966  1.00  0.00     0.000 C 
HETATM   34  C22 UNL     1      12.919  18.946  20.990  1.00  0.00     0.001 C 
HETATM   35  C23 UNL     1      13.230  19.559  19.647  1.00  0.00     0.019 C 
ENDBRANCH  26  29
ENDBRANCH  20  25
ENDBRANCH  18  20
ENDBRANCH  15  18
ENDBRANCH   9  14
BRANCH  11  36
HETATM   36  O7  UNL     1      18.462  22.428  19.650  1.00  0.00    -0.303 OA
BRANCH  36  37
HETATM   37  C25 UNL     1      18.441  22.941  20.963  1.00  0.00     0.191 C 
BRANCH  37  38
HETATM   38  C26 UNL     1      18.431  24.461  20.952  1.00  0.00     0.100 C 
BRANCH  38  39
HETATM   39  S1  UNL     1      20.108  25.058  21.364  1.00  0.00    -0.171 SA
HETATM   40  C27 UNL     1      20.791  26.102  20.053  1.00  0.00     0.089 C 
ENDBRANCH  38  39
ENDBRANCH  37  38
ENDBRANCH  36  37
ENDBRANCH  11  36
BRANCH   1  41
HETATM   41  C3  UNL     1      22.321  27.736  16.425  1.00  0.00     0.081 C 
HETATM   42  C4  UNL     1      22.663  27.995  14.988  1.00  0.00     0.032 C 
BRANCH  41  43
HETATM   43  C2  UNL     1      23.611  27.435  17.179  1.00  0.00     0.020 C 
HETATM   44  C1  UNL     1      24.667  26.796  16.316  1.00  0.00     0.007 C 
ENDBRANCH  41  43
ENDBRANCH   1  41
TORSDOF 13
ENDMDL
MODEL 4
REMARK VINA RESULT: -8.702369223      3.005      9.664
REMARK  13 active torsions:
REMARK  status: ('A' for Active; 'I' for Inactive)
REMARK    1  A    between atoms: C2_2  and  C3_3 
REMARK    2  A    between atoms: C3_3  and  N1_5 
REMARK       I    between atoms: N1_5  and  C5_7 
REMARK       I    between atoms: C5_7  and  N2_9 
REMARK    3  A    between atoms: C8_13  and  N3_14 
REMARK       I    between atoms: N3_14  and  C9_16 
REMARK    4  A    between atoms: C9_16  and  C10_18 
REMARK    5  A    between atoms: C10_18  and  C11_20 
REMARK    6  A    between atoms: C11_20  and  C12_21 
REMARK    7  A    between atoms: C11_20  and  N4_25 
REMARK    8  A    between atoms: C12_21  and  C13_22 
REMARK       I    between atoms: N4_25  and  C16_27 
REMARK    9  A    between atoms: C16_27  and  C17_29 
REMARK       I    between atoms: N5_36  and  C24_37 
REMARK   10  A    between atoms: C24_37  and  O7_39 
REMARK   11  A    between atoms: O7_39  and  C25_40 
REMARK   12  A    between atoms: C25_40  and  C26_41 
REMARK   13  A    between atoms: C26_41  and  S1_42 
ROOT
HETATM    1  N1  UNL     1      13.123  21.251  14.376  1.00  0.00    -0.339 N 
ATOM      2  H1  UNL     1      12.469  21.357  15.151  1.00  0.00     0.164 HD
HETATM    3  C5  UNL     1      14.508  21.435  14.610  1.00  0.00     0.320 C 
HETATM    4  O1  UNL     1      15.291  21.291  13.611  1.00  0.00    -0.247 OA
HETATM    5  N2  UNL     1      15.081  21.755  15.842  1.00  0.00    -0.310 N 
HETATM    6  C6  UNL     1      16.518  21.895  15.988  1.00  0.00     0.211 C 
HETATM    7  C7  UNL     1      16.924  20.962  17.108  1.00  0.00     0.187 C 
HETATM    8  O2  UNL     1      17.760  20.134  16.886  1.00  0.00    -0.292 OA
HETATM    9  C8  UNL     1      16.248  21.142  18.414  1.00  0.00     0.265 C 
HETATM   10  N5  UNL     1      14.818  21.204  18.124  1.00  0.00    -0.283 N 
HETATM   11  C24 UNL     1      13.922  20.443  18.954  1.00  0.00     0.366 C 
HETATM   12  O6  UNL     1      12.683  20.398  18.803  1.00  0.00    -0.238 OA
HETATM   13  C28 UNL     1      14.293  21.956  17.030  1.00  0.00     0.262 C 
ENDROOT
BRANCH   9  14
HETATM   14  N3  UNL     1      16.755  22.331  19.012  1.00  0.00    -0.326 N 
HETATM   15  C9  UNL     1      18.011  22.447  19.649  1.00  0.00     0.291 C 
HETATM   16  O3  UNL     1      18.796  21.488  19.800  1.00  0.00    -0.264 OA
ATOM     17  H3  UNL     1      16.165  23.164  18.979  1.00  0.00     0.165 HD
BRANCH  15  18
HETATM   18  C10 UNL     1      18.415  23.736  20.147  1.00  0.00     0.238 C 
HETATM   19  O4  UNL     1      17.614  24.303  20.968  1.00  0.00    -0.285 OA
BRANCH  18  20
HETATM   20  C11 UNL     1      19.678  24.422  19.765  1.00  0.00     0.164 C 
BRANCH  20  21
HETATM   21  C12 UNL     1      20.917  23.761  20.147  1.00  0.00     0.037 C 
BRANCH  21  22
HETATM   22  C13 UNL     1      21.910  24.547  20.957  1.00  0.00    -0.020 C 
HETATM   23  C14 UNL     1      23.152  24.853  20.101  1.00  0.00     0.009 C 
HETATM   24  C15 UNL     1      21.413  25.773  21.617  1.00  0.00     0.009 C 
ENDBRANCH  21  22
ENDBRANCH  20  21
BRANCH  20  25
HETATM   25  N4  UNL     1      19.490  24.718  18.339  1.00  0.00    -0.348 N 
HETATM   26  C16 UNL     1      20.021  25.868  17.693  1.00  0.00     0.226 C 
HETATM   27  O5  UNL     1      20.696  26.704  18.337  1.00  0.00    -0.273 OA
ATOM     28  H4  UNL     1      18.948  24.061  17.779  1.00  0.00     0.163 HD
BRANCH  26  29
HETATM   29  C17 UNL     1      19.745  26.040  16.227  1.00  0.00     0.037 C 
HETATM   30  C18 UNL     1      20.693  25.175  15.447  1.00  0.00     0.025 C 
HETATM   31  C19 UNL     1      19.963  27.474  15.822  1.00  0.00     0.019 C 
HETATM   32  C20 UNL     1      19.774  27.614  14.324  1.00  0.00     0.001 C 
HETATM   33  C21 UNL     1      18.653  26.800  13.785  1.00  0.00     0.000 C 
HETATM   34  C22 UNL     1      17.688  26.251  14.774  1.00  0.00     0.001 C 
HETATM   35  C23 UNL     1      18.302  25.619  15.999  1.00  0.00     0.019 C 
ENDBRANCH  26  29
ENDBRANCH  20  25
ENDBRANCH  18  20
ENDBRANCH  15  18
ENDBRANCH   9  14
BRANCH  11  36
HETATM   36  O7  UNL     1      14.459  19.686  20.025  1.00  0.00    -0.303 OA
BRANCH  36  37
HETATM   37  C25 UNL     1      13.942  18.414  20.342  1.00  0.00     0.191 C 
BRANCH  37  38
HETATM   38  C26 UNL     1      12.722  18.533  21.243  1.00  0.00     0.100 C 
BRANCH  38  39
HETATM   39  S1  UNL     1      11.605  17.129  20.901  1.00  0.00    -0.171 SA
HETATM   40  C27 UNL     1      10.664  17.376  19.374  1.00  0.00     0.089 C 
ENDBRANCH  38  39
ENDBRANCH  37  38
ENDBRANCH  36  37
ENDBRANCH  11  36
BRANCH   1  41
HETATM   41  C3  UNL     1      12.614  20.913  13.057  1.00  0.00     0.081 C 
HETATM   42  C4  UNL     1      11.121  21.052  13.085  1.00  0.00     0.032 C 
BRANCH  41  43
HETATM   43  C2  UNL     1      12.955  19.455  12.774  1.00  0.00     0.020 C 
HETATM   44  C1  UNL     1      11.762  18.637  12.358  1.00  0.00     0.007 C 
ENDBRANCH  41  43
ENDBRANCH   1  41
TORSDOF 13
ENDMDL
MODEL 5
REMARK VINA RESULT: -8.499618225      2.248      4.679
REMARK  13 active torsions:
REMARK  status: ('A' for Active; 'I' for Inactive)
REMARK    1  A    between atoms: C2_2  and  C3_3 
REMARK    2  A    between atoms: C3_3  and  N1_5 
REMARK       I    between atoms: N1_5  and  C5_7 
REMARK       I    between atoms: C5_7  and  N2_9 
REMARK    3  A    between atoms: C8_13  and  N3_14 
REMARK       I    between atoms: N3_14  and  C9_16 
REMARK    4  A    between atoms: C9_16  and  C10_18 
REMARK    5  A    between atoms: C10_18  and  C11_20 
REMARK    6  A    between atoms: C11_20  and  C12_21 
REMARK    7  A    between atoms: C11_20  and  N4_25 
REMARK    8  A    between atoms: C12_21  and  C13_22 
REMARK       I    between atoms: N4_25  and  C16_27 
REMARK    9  A    between atoms: C16_27  and  C17_29 
REMARK       I    between atoms: N5_36  and  C24_37 
REMARK   10  A    between atoms: C24_37  and  O7_39 
REMARK   11  A    between atoms: O7_39  and  C25_40 
REMARK   12  A    between atoms: C25_40  and  C26_41 
REMARK   13  A    between atoms: C26_41  and  S1_42 
ROOT
HETATM    1  N1  UNL     1      19.392  24.939  20.418  1.00  0.00    -0.339 N 
ATOM      2  H1  UNL     1      19.253  25.845  19.969  1.00  0.00     0.164 HD
HETATM    3  C5  UNL     1      18.740  23.799  19.890  1.00  0.00     0.320 C 
HETATM    4  O1  UNL     1      18.944  22.685  20.483  1.00  0.00    -0.247 OA
HETATM    5  N2  UNL     1      17.902  23.795  18.774  1.00  0.00    -0.310 N 
HETATM    6  C6  UNL     1      17.301  22.565  18.290  1.00  0.00     0.211 C 
HETATM    7  C7  UNL     1      17.679  22.454  16.829  1.00  0.00     0.187 C 
HETATM    8  O2  UNL     1      18.246  21.466  16.460  1.00  0.00    -0.292 OA
HETATM    9  C8  UNL     1      17.316  23.591  15.951  1.00  0.00     0.265 C 
HETATM   10  N5  UNL     1      17.776  24.795  16.638  1.00  0.00    -0.283 N 
HETATM   11  C24 UNL     1      18.476  25.791  15.870  1.00  0.00     0.366 C 
HETATM   12  O6  UNL     1      18.932  26.855  16.339  1.00  0.00    -0.238 OA
HETATM   13  C28 UNL     1      17.590  24.993  18.040  1.00  0.00     0.262 C 
ENDROOT
BRANCH   9  14
HETATM   14  N3  UNL     1      15.906  23.560  15.749  1.00  0.00    -0.326 N 
HETATM   15  C9  UNL     1      15.231  22.673  14.880  1.00  0.00     0.291 C 
HETATM   16  O3  UNL     1      15.816  21.849  14.149  1.00  0.00    -0.264 OA
ATOM     17  H3  UNL     1      15.341  24.230  16.272  1.00  0.00     0.165 HD
BRANCH  15  18
HETATM   18  C10 UNL     1      13.793  22.716  14.834  1.00  0.00     0.238 C 
HETATM   19  O4  UNL     1      13.262  23.878  14.749  1.00  0.00    -0.285 OA
BRANCH  18  20
HETATM   20  C11 UNL     1      12.918  21.514  14.884  1.00  0.00     0.164 C 
BRANCH  20  21
HETATM   21  C12 UNL     1      12.838  20.720  13.666  1.00  0.00     0.037 C 
BRANCH  21  22
HETATM   22  C13 UNL     1      11.525  20.063  13.342  1.00  0.00    -0.020 C 
HETATM   23  C14 UNL     1      11.328  20.022  11.816  1.00  0.00     0.009 C 
HETATM   24  C15 UNL     1      11.278  18.733  13.937  1.00  0.00     0.009 C 
ENDBRANCH  21  22
ENDBRANCH  20  21
BRANCH  20  25
HETATM   25  N4  UNL     1      13.351  20.823  16.104  1.00  0.00    -0.348 N 
HETATM   26  C16 UNL     1      12.456  20.273  17.061  1.00  0.00     0.226 C 
HETATM   27  O5  UNL     1      11.217  20.356  16.896  1.00  0.00    -0.273 OA
ATOM     28  H4  UNL     1      14.352  20.732  16.276  1.00  0.00     0.163 HD
BRANCH  26  29
HETATM   29  C17 UNL     1      13.045  19.595  18.266  1.00  0.00     0.037 C 
HETATM   30  C18 UNL     1      13.972  20.553  18.960  1.00  0.00     0.025 C 
HETATM   31  C19 UNL     1      13.835  18.384  17.847  1.00  0.00     0.019 C 
HETATM   32  C20 UNL     1      14.501  17.767  19.062  1.00  0.00     0.001 C 
HETATM   33  C21 UNL     1      13.649  17.774  20.279  1.00  0.00     0.000 C 
HETATM   34  C22 UNL     1      12.202  18.053  20.082  1.00  0.00     0.001 C 
HETATM   35  C23 UNL     1      11.881  19.207  19.165  1.00  0.00     0.019 C 
ENDBRANCH  26  29
ENDBRANCH  20  25
ENDBRANCH  18  20
ENDBRANCH  15  18
ENDBRANCH   9  14
BRANCH  11  36
HETATM   36  O7  UNL     1      18.670  25.574  14.484  1.00  0.00    -0.303 OA
BRANCH  36  37
HETATM   37  C25 UNL     1      19.873  25.951  13.854  1.00  0.00     0.191 C 
BRANCH  37  38
HETATM   38  C26 UNL     1      21.067  25.293  14.526  1.00  0.00     0.100 C 
BRANCH  38  39
HETATM   39  S1  UNL     1      22.176  26.600  15.157  1.00  0.00    -0.171 SA
HETATM   40  C27 UNL     1      21.768  28.221  14.462  1.00  0.00     0.089 C 
ENDBRANCH  38  39
ENDBRANCH  37  38
ENDBRANCH  36  37
ENDBRANCH  11  36
BRANCH   1  41
HETATM   41  C3  UNL     1      20.255  24.850  21.585  1.00  0.00     0.081 C 
HETATM   42  C4  UNL     1      20.746  26.230  21.908  1.00  0.00     0.032 C 
BRANCH  41  43
HETATM   43  C2  UNL     1      21.456  23.985  21.223  1.00  0.00     0.020 C 
HETATM   44  C1  UNL     1      22.335  24.603  20.168  1.00  0.00     0.007 C 
ENDBRANCH  41  43
ENDBRANCH   1  41
TORSDOF 13
ENDMDL
