MODEL 1
REMARK VINA RESULT: -8.867620429      0.000      0.000
REMARK  15 active torsions:
REMARK  status: ('A' for Active; 'I' for Inactive)
REMARK    1  A    between atoms: C3_3  and  C4_4 
REMARK    2  A    between atoms: C5_5  and  C6_6 
REMARK       I    between atoms: C6_6  and  N1_8 
REMARK    3  A    between atoms: N1_8  and  C7_10 
REMARK    4  A    between atoms: C7_10  and  C8_11 
REMARK    5  A    between atoms: C8_11  and  C9_12 
REMARK       I    between atoms: C9_12  and  N2_14 
REMARK    6  A    between atoms: C13_18  and  C14_19 
REMARK       I    between atoms: C14_19  and  N3_21 
REMARK    7  A    between atoms: N3_21  and  C15_23 
REMARK    8  A    between atoms: C15_23  and  C16_24 
REMARK    9  A    between atoms: C16_24  and  N4_25 
REMARK       I    between atoms: N4_25  and  C17_27 
REMARK   10  A    between atoms: C17_27  and  O5_29 
REMARK   11  A    between atoms: O5_29  and  C18_30 
REMARK   12  A    between atoms: C22_34  and  C24_36 
REMARK   13  A    between atoms: C28_41  and  C29_42 
REMARK   14  A    between atoms: C29_42  and  O8_44 
REMARK   15  A    between atoms: O8_44  and  C30_45 
ROOT
HETATM    1  C7  UNL     1      18.313  25.944  16.774  1.00  0.00     0.132 C 
ENDROOT
BRANCH   1   2
HETATM    2  N1  UNL     1      19.440  25.394  17.460  1.00  0.00    -0.360 N 
HETATM    3  C6  UNL     1      20.467  26.155  18.061  1.00  0.00     0.223 C 
HETATM    4  O1  UNL     1      20.377  27.406  17.992  1.00  0.00    -0.273 OA
ATOM      5  H1  UNL     1      19.508  24.378  17.519  1.00  0.00     0.162 HD
BRANCH   3   6
HETATM    6  C5  UNL     1      21.551  25.438  18.716  1.00  0.00     0.098 C 
HETATM    7  C4  UNL     1      22.738  26.205  19.218  1.00  0.00     0.036 C 
HETATM    8  C28 UNL     1      22.864  25.058  20.242  1.00  0.00     0.105 C 
HETATM    9  C22 UNL     1      21.347  25.006  20.165  1.00  0.00     0.011 C 
HETATM   10  C23 UNL     1      20.730  26.049  21.037  1.00  0.00     0.020 C 
BRANCH   7  11
HETATM   11  C3  UNL     1      23.883  26.255  18.271  1.00  0.00    -0.025 C 
HETATM   12  C2  UNL     1      23.815  27.042  17.225  1.00  0.00    -0.034 C 
HETATM   13  C1  UNL     1      24.940  27.123  16.248  1.00  0.00     0.036 C 
ENDBRANCH   7  11
BRANCH   8  14
HETATM   14  C29 UNL     1      23.474  25.406  21.512  1.00  0.00     0.264 C 
HETATM   15  O7  UNL     1      23.088  24.834  22.560  1.00  0.00    -0.265 OA
BRANCH  14  16
HETATM   16  O8  UNL     1      24.479  26.347  21.662  1.00  0.00    -0.322 OA
BRANCH  16  17
HETATM   17  C30 UNL     1      25.810  25.983  21.982  1.00  0.00     0.174 C 
HETATM   18  C31 UNL     1      26.543  25.461  20.765  1.00  0.00     0.034 C 
ENDBRANCH  16  17
ENDBRANCH  14  16
ENDBRANCH   8  14
BRANCH   9  19
HETATM   19  C24 UNL     1      20.771  23.621  20.267  1.00  0.00     0.166 A 
HETATM   20  O6  UNL     1      20.289  23.258  21.623  1.00  0.00    -0.369 OA
HETATM   21  C25 UNL     1      19.435  23.210  20.398  1.00  0.00     0.081 A 
HETATM   22  C26 UNL     1      19.116  21.758  19.989  1.00  0.00     0.048 C 
HETATM   23  C27 UNL     1      18.232  24.057  20.571  1.00  0.00     0.048 C 
ENDBRANCH   9  19
ENDBRANCH   3   6
ENDBRANCH   1   2
BRANCH   1  24
HETATM   24  C8  UNL     1      17.015  25.322  17.166  1.00  0.00     0.122 C 
BRANCH  24  25
HETATM   25  C9  UNL     1      16.880  23.970  16.551  1.00  0.00     0.222 C 
HETATM   26  O2  UNL     1      17.504  23.772  15.469  1.00  0.00    -0.273 OA
HETATM   27  N2  UNL     1      16.111  22.913  17.086  1.00  0.00    -0.339 N 
HETATM   28  C10 UNL     1      15.341  22.920  18.297  1.00  0.00     0.127 C 
HETATM   29  C13 UNL     1      15.980  21.625  16.463  1.00  0.00     0.179 C 
HETATM   30  C11 UNL     1      15.288  21.489  18.733  1.00  0.00     0.022 C 
HETATM   31  C12 UNL     1      15.970  20.682  17.659  1.00  0.00     0.037 C 
BRANCH  29  32
HETATM   32  C14 UNL     1      14.685  21.469  15.716  1.00  0.00     0.240 C 
HETATM   33  O3  UNL     1      14.314  22.436  15.013  1.00  0.00    -0.271 OA
HETATM   34  N3  UNL     1      13.944  20.262  15.829  1.00  0.00    -0.358 N 
ATOM     35  H3  UNL     1      14.320  19.524  16.424  1.00  0.00     0.162 HD
BRANCH  34  36
HETATM   36  C15 UNL     1      12.695  20.016  15.155  1.00  0.00     0.142 C 
BRANCH  36  37
HETATM   37  C16 UNL     1      11.487  20.429  15.931  1.00  0.00     0.144 C 
BRANCH  37  38
HETATM   38  N4  UNL     1      11.564  20.206  17.336  1.00  0.00    -0.335 N 
HETATM   39  C17 UNL     1      11.039  19.025  17.924  1.00  0.00     0.361 C 
HETATM   40  O4  UNL     1      10.486  18.099  17.316  1.00  0.00    -0.238 OA
ATOM     41  H4  UNL     1      12.004  20.908  17.931  1.00  0.00     0.164 HD
BRANCH  39  42
HETATM   42  O5  UNL     1      11.161  18.904  19.316  1.00  0.00    -0.294 OA
BRANCH  42  43
HETATM   43  C18 UNL     1      12.151  18.104  19.923  1.00  0.00     0.061 C 
HETATM   44  C19 UNL     1      13.129  17.545  18.937  1.00  0.00     0.046 C 
HETATM   45  C20 UNL     1      11.493  17.027  20.769  1.00  0.00     0.046 C 
HETATM   46  C21 UNL     1      12.927  19.018  20.872  1.00  0.00     0.046 C 
ENDBRANCH  42  43
ENDBRANCH  39  42
ENDBRANCH  37  38
ENDBRANCH  36  37
ENDBRANCH  34  36
ENDBRANCH  29  32
ENDBRANCH  24  25
ENDBRANCH   1  24
TORSDOF 15
ENDMDL
MODEL 2
REMARK VINA RESULT: -8.582387146      2.600     10.999
REMARK  15 active torsions:
REMARK  status: ('A' for Active; 'I' for Inactive)
REMARK    1  A    between atoms: C3_3  and  C4_4 
REMARK    2  A    between atoms: C5_5  and  C6_6 
REMARK       I    between atoms: C6_6  and  N1_8 
REMARK    3  A    between atoms: N1_8  and  C7_10 
REMARK    4  A    between atoms: C7_10  and  C8_11 
REMARK    5  A    between atoms: C8_11  and  C9_12 
REMARK       I    between atoms: C9_12  and  N2_14 
REMARK    6  A    between atoms: C13_18  and  C14_19 
REMARK       I    between atoms: C14_19  and  N3_21 
REMARK    7  A    between atoms: N3_21  and  C15_23 
REMARK    8  A    between atoms: C15_23  and  C16_24 
REMARK    9  A    between atoms: C16_24  and  N4_25 
REMARK       I    between atoms: N4_25  and  C17_27 
REMARK   10  A    between atoms: C17_27  and  O5_29 
REMARK   11  A    between atoms: O5_29  and  C18_30 
REMARK   12  A    between atoms: C22_34  and  C24_36 
REMARK   13  A    between atoms: C28_41  and  C29_42 
REMARK   14  A    between atoms: C29_42  and  O8_44 
REMARK   15  A    between atoms: O8_44  and  C30_45 
ROOT
HETATM    1  C7  UNL     1      18.149  22.194  20.683  1.00  0.00     0.132 C 
ENDROOT
BRANCH   1   2
HETATM    2  N1  UNL     1      17.730  21.860  19.358  1.00  0.00    -0.360 N 
HETATM    3  C6  UNL     1      16.384  21.745  18.944  1.00  0.00     0.223 C 
HETATM    4  O1  UNL     1      15.493  21.956  19.804  1.00  0.00    -0.273 OA
ATOM      5  H1  UNL     1      18.455  21.693  18.661  1.00  0.00     0.162 HD
BRANCH   3   6
HETATM    6  C5  UNL     1      16.128  21.389  17.557  1.00  0.00     0.098 C 
HETATM    7  C4  UNL     1      14.749  20.952  17.155  1.00  0.00     0.036 C 
HETATM    8  C28 UNL     1      15.135  21.506  15.767  1.00  0.00     0.105 C 
HETATM    9  C22 UNL     1      15.948  22.523  16.552  1.00  0.00     0.011 C 
HETATM   10  C23 UNL     1      15.086  23.642  17.034  1.00  0.00     0.020 C 
BRANCH   7  11
HETATM   11  C3  UNL     1      14.550  19.478  17.147  1.00  0.00    -0.025 C 
HETATM   12  C2  UNL     1      14.607  18.819  18.279  1.00  0.00    -0.034 C 
HETATM   13  C1  UNL     1      14.414  17.340  18.318  1.00  0.00     0.036 C 
ENDBRANCH   7  11
BRANCH   8  14
HETATM   14  C29 UNL     1      14.037  21.989  14.951  1.00  0.00     0.264 C 
HETATM   15  O7  UNL     1      14.274  22.453  13.810  1.00  0.00    -0.265 OA
BRANCH  14  16
HETATM   16  O8  UNL     1      12.709  21.978  15.345  1.00  0.00    -0.322 OA
BRANCH  16  17
HETATM   17  C30 UNL     1      11.686  21.434  14.530  1.00  0.00     0.174 C 
HETATM   18  C31 UNL     1      11.762  19.922  14.492  1.00  0.00     0.034 C 
ENDBRANCH  16  17
ENDBRANCH  14  16
ENDBRANCH   8  14
BRANCH   9  19
HETATM   19  C24 UNL     1      17.246  22.911  15.898  1.00  0.00     0.166 A 
HETATM   20  O6  UNL     1      17.190  24.183  15.136  1.00  0.00    -0.369 OA
HETATM   21  C25 UNL     1      18.159  23.920  16.242  1.00  0.00     0.081 A 
HETATM   22  C26 UNL     1      19.596  23.762  15.707  1.00  0.00     0.048 C 
HETATM   23  C27 UNL     1      18.029  24.947  17.302  1.00  0.00     0.048 C 
ENDBRANCH   9  19
ENDBRANCH   3   6
ENDBRANCH   1   2
BRANCH   1  24
HETATM   24  C8  UNL     1      19.563  22.662  20.761  1.00  0.00     0.122 C 
BRANCH  24  25
HETATM   25  C9  UNL     1      19.613  24.144  20.917  1.00  0.00     0.222 C 
HETATM   26  O2  UNL     1      18.521  24.767  20.783  1.00  0.00    -0.273 OA
HETATM   27  N2  UNL     1      20.781  24.887  21.197  1.00  0.00    -0.339 N 
HETATM   28  C10 UNL     1      22.110  24.382  21.396  1.00  0.00     0.127 C 
HETATM   29  C13 UNL     1      20.807  26.318  21.322  1.00  0.00     0.179 C 
HETATM   30  C11 UNL     1      22.786  25.397  22.264  1.00  0.00     0.022 C 
HETATM   31  C12 UNL     1      21.810  26.531  22.448  1.00  0.00     0.037 C 
BRANCH  29  32
HETATM   32  C14 UNL     1      21.321  27.001  20.085  1.00  0.00     0.240 C 
HETATM   33  O3  UNL     1      22.498  27.425  20.118  1.00  0.00    -0.271 OA
HETATM   34  N3  UNL     1      20.478  27.136  18.950  1.00  0.00    -0.358 N 
ATOM     35  H3  UNL     1      19.532  26.760  19.009  1.00  0.00     0.162 HD
BRANCH  34  36
HETATM   36  C15 UNL     1      20.878  27.773  17.721  1.00  0.00     0.142 C 
BRANCH  36  37
HETATM   37  C16 UNL     1      21.124  26.827  16.590  1.00  0.00     0.144 C 
BRANCH  37  38
HETATM   38  N4  UNL     1      22.411  26.214  16.583  1.00  0.00    -0.335 N 
HETATM   39  C17 UNL     1      23.506  26.809  15.903  1.00  0.00     0.361 C 
HETATM   40  O4  UNL     1      23.473  27.875  15.273  1.00  0.00    -0.238 OA
ATOM     41  H4  UNL     1      22.547  25.331  17.075  1.00  0.00     0.164 HD
BRANCH  39  42
HETATM   42  O5  UNL     1      24.728  26.123  15.952  1.00  0.00    -0.294 OA
BRANCH  42  43
HETATM   43  C18 UNL     1      25.830  26.590  16.699  1.00  0.00     0.061 C 
HETATM   44  C19 UNL     1      25.422  27.433  17.867  1.00  0.00     0.046 C 
HETATM   45  C20 UNL     1      26.810  27.299  15.779  1.00  0.00     0.046 C 
HETATM   46  C21 UNL     1      26.537  25.352  17.251  1.00  0.00     0.046 C 
ENDBRANCH  42  43
ENDBRANCH  39  42
ENDBRANCH  37  38
ENDBRANCH  36  37
ENDBRANCH  34  36
ENDBRANCH  29  32
ENDBRANCH  24  25
ENDBRANCH   1  24
TORSDOF 15
ENDMDL
MODEL 3
REMARK VINA RESULT: -8.576706861      2.462     10.319
REMARK  15 active torsions:
REMARK  status: ('A' for Active; 'I' for Inactive)
REMARK    1  A    between atoms: C3_3  and  C4_4 
REMARK    2  A    between atoms: C5_5  and  C6_6 
REMARK       I    between atoms: C6_6  and  N1_8 
REMARK    3  A    between atoms: N1_8  and  C7_10 
REMARK    4  A    between atoms: C7_10  and  C8_11 
REMARK    5  A    between atoms: C8_11  and  C9_12 
REMARK       I    between atoms: C9_12  and  N2_14 
REMARK    6  A    between atoms: C13_18  and  C14_19 
REMARK       I    between atoms: C14_19  and  N3_21 
REMARK    7  A    between atoms: N3_21  and  C15_23 
REMARK    8  A    between atoms: C15_23  and  C16_24 
REMARK    9  A    between atoms: C16_24  and  N4_25 
REMARK       I    between atoms: N4_25  and  C17_27 
REMARK   10  A    between atoms: C17_27  and  O5_29 
REMARK   11  A    between atoms: O5_29  and  C18_30 
REMARK   12  A    between atoms: C22_34  and  C24_36 
REMARK   13  A    between atoms: C28_41  and  C29_42 
REMARK   14  A    between atoms: C29_42  and  O8_44 
REMARK   15  A    between atoms: O8_44  and  C30_45 
ROOT
HETATM    1  C7  UNL     1      17.135  25.914  15.585  1.00  0.00     0.132 C 
ENDROOT
BRANCH   1   2
HETATM    2  N1  UNL     1      17.026  24.514  15.856  1.00  0.00    -0.360 N 
HETATM    3  C6  UNL     1      16.761  23.959  17.127  1.00  0.00     0.223 C 
HETATM    4  O1  UNL     1      16.607  24.754  18.086  1.00  0.00    -0.273 OA
ATOM      5  H1  UNL     1      17.147  23.870  15.074  1.00  0.00     0.162 HD
BRANCH   3   6
HETATM    6  C5  UNL     1      16.688  22.509  17.234  1.00  0.00     0.098 C 
HETATM    7  C4  UNL     1      16.465  21.884  18.580  1.00  0.00     0.036 C 
HETATM    8  C28 UNL     1      15.822  20.733  17.777  1.00  0.00     0.105 C 
HETATM    9  C22 UNL     1      15.387  21.829  16.817  1.00  0.00     0.011 C 
HETATM   10  C23 UNL     1      14.153  22.511  17.305  1.00  0.00     0.020 C 
BRANCH   7  11
HETATM   11  C3  UNL     1      17.710  21.468  19.278  1.00  0.00    -0.025 C 
HETATM   12  C2  UNL     1      18.183  22.217  20.245  1.00  0.00    -0.034 C 
HETATM   13  C1  UNL     1      19.428  21.839  20.972  1.00  0.00     0.036 C 
ENDBRANCH   7  11
BRANCH   8  14
HETATM   14  C29 UNL     1      14.792  19.979  18.467  1.00  0.00     0.264 C 
HETATM   15  O7  UNL     1      14.538  20.236  19.669  1.00  0.00    -0.265 OA
BRANCH  14  16
HETATM   16  O8  UNL     1      14.044  18.968  17.885  1.00  0.00    -0.322 OA
BRANCH  16  17
HETATM   17  C30 UNL     1      13.998  17.660  18.425  1.00  0.00     0.174 C 
HETATM   18  C31 UNL     1      12.620  17.336  18.962  1.00  0.00     0.034 C 
ENDBRANCH  16  17
ENDBRANCH  14  16
ENDBRANCH   8  14
BRANCH   9  19
HETATM   19  C24 UNL     1      15.400  21.420  15.370  1.00  0.00     0.166 A 
HETATM   20  O6  UNL     1      14.206  20.651  14.941  1.00  0.00    -0.369 OA
HETATM   21  C25 UNL     1      14.655  21.917  14.289  1.00  0.00     0.081 A 
HETATM   22  C26 UNL     1      15.224  21.657  12.880  1.00  0.00     0.048 C 
HETATM   23  C27 UNL     1      13.571  22.927  14.314  1.00  0.00     0.048 C 
ENDBRANCH   9  19
ENDBRANCH   3   6
ENDBRANCH   1   2
BRANCH   1  24
HETATM   24  C8  UNL     1      18.145  26.241  14.538  1.00  0.00     0.122 C 
BRANCH  24  25
HETATM   25  C9  UNL     1      19.517  25.903  15.014  1.00  0.00     0.222 C 
HETATM   26  O2  UNL     1      19.800  24.674  15.106  1.00  0.00    -0.273 OA
HETATM   27  N2  UNL     1      20.505  26.849  15.366  1.00  0.00    -0.339 N 
HETATM   28  C10 UNL     1      20.398  28.279  15.325  1.00  0.00     0.127 C 
HETATM   29  C13 UNL     1      21.814  26.497  15.842  1.00  0.00     0.179 C 
HETATM   30  C11 UNL     1      21.801  28.769  15.145  1.00  0.00     0.022 C 
HETATM   31  C12 UNL     1      22.695  27.557  15.193  1.00  0.00     0.037 C 
BRANCH  29  32
HETATM   32  C14 UNL     1      21.941  26.614  17.335  1.00  0.00     0.240 C 
HETATM   33  O3  UNL     1      22.690  27.516  17.773  1.00  0.00    -0.271 OA
HETATM   34  N3  UNL     1      21.225  25.722  18.178  1.00  0.00    -0.358 N 
ATOM     35  H3  UNL     1      20.636  25.016  17.737  1.00  0.00     0.162 HD
BRANCH  34  36
HETATM   36  C15 UNL     1      21.280  25.754  19.617  1.00  0.00     0.142 C 
BRANCH  36  37
HETATM   37  C16 UNL     1      22.112  24.672  20.224  1.00  0.00     0.144 C 
BRANCH  37  38
HETATM   38  N4  UNL     1      23.355  24.425  19.571  1.00  0.00    -0.335 N 
HETATM   39  C17 UNL     1      24.493  25.235  19.825  1.00  0.00     0.361 C 
HETATM   40  O4  UNL     1      24.537  26.197  20.605  1.00  0.00    -0.238 OA
ATOM     41  H4  UNL     1      23.428  23.653  18.909  1.00  0.00     0.164 HD
BRANCH  39  42
HETATM   42  O5  UNL     1      25.666  24.912  19.128  1.00  0.00    -0.294 OA
BRANCH  42  43
HETATM   43  C18 UNL     1      26.512  23.852  19.516  1.00  0.00     0.061 C 
HETATM   44  C19 UNL     1      26.119  22.544  18.902  1.00  0.00     0.046 C 
HETATM   45  C20 UNL     1      26.590  23.786  21.032  1.00  0.00     0.046 C 
HETATM   46  C21 UNL     1      27.909  24.200  19.001  1.00  0.00     0.046 C 
ENDBRANCH  42  43
ENDBRANCH  39  42
ENDBRANCH  37  38
ENDBRANCH  36  37
ENDBRANCH  34  36
ENDBRANCH  29  32
ENDBRANCH  24  25
ENDBRANCH   1  24
TORSDOF 15
ENDMDL
MODEL 4
REMARK VINA RESULT: -8.553295558      2.528     10.834
REMARK  15 active torsions:
REMARK  status: ('A' for Active; 'I' for Inactive)
REMARK    1  A    between atoms: C3_3  and  C4_4 
REMARK    2  A    between atoms: C5_5  and  C6_6 
REMARK       I    between atoms: C6_6  and  N1_8 
REMARK    3  A    between atoms: N1_8  and  C7_10 
REMARK    4  A    between atoms: C7_10  and  C8_11 
REMARK    5  A    between atoms: C8_11  and  C9_12 
REMARK       I    between atoms: C9_12  and  N2_14 
REMARK    6  A    between atoms: C13_18  and  C14_19 
REMARK       I    between atoms: C14_19  and  N3_21 
REMARK    7  A    between atoms: N3_21  and  C15_23 
REMARK    8  A    between atoms: C15_23  and  C16_24 
REMARK    9  A    between atoms: C16_24  and  N4_25 
REMARK       I    between atoms: N4_25  and  C17_27 
REMARK   10  A    between atoms: C17_27  and  O5_29 
REMARK   11  A    between atoms: O5_29  and  C18_30 
REMARK   12  A    between atoms: C22_34  and  C24_36 
REMARK   13  A    between atoms: C28_41  and  C29_42 
REMARK   14  A    between atoms: C29_42  and  O8_44 
REMARK   15  A    between atoms: O8_44  and  C30_45 
ROOT
HETATM    1  C7  UNL     1      18.511  21.893  20.761  1.00  0.00     0.132 C 
ENDROOT
BRANCH   1   2
HETATM    2  N1  UNL     1      18.060  21.608  19.435  1.00  0.00    -0.360 N 
HETATM    3  C6  UNL     1      16.728  21.758  18.988  1.00  0.00     0.223 C 
HETATM    4  O1  UNL     1      15.883  22.177  19.816  1.00  0.00    -0.273 OA
ATOM      5  H1  UNL     1      18.750  21.271  18.763  1.00  0.00     0.162 HD
BRANCH   3   6
HETATM    6  C5  UNL     1      16.433  21.416  17.605  1.00  0.00     0.098 C 
HETATM    7  C4  UNL     1      15.058  20.933  17.247  1.00  0.00     0.036 C 
HETATM    8  C28 UNL     1      15.370  21.525  15.856  1.00  0.00     0.105 C 
HETATM    9  C22 UNL     1      16.174  22.559  16.628  1.00  0.00     0.011 C 
HETATM   10  C23 UNL     1      15.290  23.636  17.162  1.00  0.00     0.020 C 
BRANCH   7  11
HETATM   11  C3  UNL     1      14.913  19.454  17.220  1.00  0.00    -0.025 C 
HETATM   12  C2  UNL     1      14.549  18.826  18.312  1.00  0.00    -0.034 C 
HETATM   13  C1  UNL     1      14.392  17.343  18.331  1.00  0.00     0.036 C 
ENDBRANCH   7  11
BRANCH   8  14
HETATM   14  C29 UNL     1      14.225  21.980  15.090  1.00  0.00     0.264 C 
HETATM   15  O7  UNL     1      14.405  22.518  13.971  1.00  0.00    -0.265 OA
BRANCH  14  16
HETATM   16  O8  UNL     1      12.909  21.863  15.509  1.00  0.00    -0.322 OA
BRANCH  16  17
HETATM   17  C30 UNL     1      11.992  20.992  14.873  1.00  0.00     0.174 C 
HETATM   18  C31 UNL     1      11.490  19.931  15.830  1.00  0.00     0.034 C 
ENDBRANCH  16  17
ENDBRANCH  14  16
ENDBRANCH   8  14
BRANCH   9  19
HETATM   19  C24 UNL     1      17.431  23.006  15.933  1.00  0.00     0.166 A 
HETATM   20  O6  UNL     1      17.277  24.243  15.128  1.00  0.00    -0.369 OA
HETATM   21  C25 UNL     1      18.282  24.084  16.222  1.00  0.00     0.081 A 
HETATM   22  C26 UNL     1      19.716  24.000  15.663  1.00  0.00     0.048 C 
HETATM   23  C27 UNL     1      18.105  25.139  17.247  1.00  0.00     0.048 C 
ENDBRANCH   9  19
ENDBRANCH   3   6
ENDBRANCH   1   2
BRANCH   1  24
HETATM   24  C8  UNL     1      19.859  22.529  20.808  1.00  0.00     0.122 C 
BRANCH  24  25
HETATM   25  C9  UNL     1      19.737  23.991  21.070  1.00  0.00     0.222 C 
HETATM   26  O2  UNL     1      18.571  24.479  21.038  1.00  0.00    -0.273 OA
HETATM   27  N2  UNL     1      20.820  24.856  21.346  1.00  0.00    -0.339 N 
HETATM   28  C10 UNL     1      22.209  24.511  21.440  1.00  0.00     0.127 C 
HETATM   29  C13 UNL     1      20.677  26.267  21.575  1.00  0.00     0.179 C 
HETATM   30  C11 UNL     1      22.806  25.542  22.346  1.00  0.00     0.022 C 
HETATM   31  C12 UNL     1      21.711  26.528  22.663  1.00  0.00     0.037 C 
BRANCH  29  32
HETATM   32  C14 UNL     1      21.030  27.091  20.368  1.00  0.00     0.240 C 
HETATM   33  O3  UNL     1      21.513  28.226  20.577  1.00  0.00    -0.271 OA
HETATM   34  N3  UNL     1      20.810  26.568  19.066  1.00  0.00    -0.358 N 
ATOM     35  H3  UNL     1      20.412  25.632  18.987  1.00  0.00     0.162 HD
BRANCH  34  36
HETATM   36  C15 UNL     1      21.114  27.278  17.850  1.00  0.00     0.142 C 
BRANCH  36  37
HETATM   37  C16 UNL     1      22.505  27.065  17.346  1.00  0.00     0.144 C 
BRANCH  37  38
HETATM   38  N4  UNL     1      23.213  25.989  17.957  1.00  0.00    -0.335 N 
HETATM   39  C17 UNL     1      24.322  26.229  18.811  1.00  0.00     0.361 C 
HETATM   40  O4  UNL     1      24.777  27.342  19.110  1.00  0.00    -0.238 OA
ATOM     41  H4  UNL     1      22.917  25.030  17.778  1.00  0.00     0.164 HD
BRANCH  39  42
HETATM   42  O5  UNL     1      24.952  25.103  19.359  1.00  0.00    -0.294 OA
BRANCH  42  43
HETATM   43  C18 UNL     1      26.083  24.504  18.766  1.00  0.00     0.061 C 
HETATM   44  C19 UNL     1      26.365  25.033  17.394  1.00  0.00     0.046 C 
HETATM   45  C20 UNL     1      25.935  22.992  18.792  1.00  0.00     0.046 C 
HETATM   46  C21 UNL     1      27.278  24.861  19.651  1.00  0.00     0.046 C 
ENDBRANCH  42  43
ENDBRANCH  39  42
ENDBRANCH  37  38
ENDBRANCH  36  37
ENDBRANCH  34  36
ENDBRANCH  29  32
ENDBRANCH  24  25
ENDBRANCH   1  24
TORSDOF 15
ENDMDL
MODEL 5
REMARK VINA RESULT: -8.460441240      0.810      1.246
REMARK  15 active torsions:
REMARK  status: ('A' for Active; 'I' for Inactive)
REMARK    1  A    between atoms: C3_3  and  C4_4 
REMARK    2  A    between atoms: C5_5  and  C6_6 
REMARK       I    between atoms: C6_6  and  N1_8 
REMARK    3  A    between atoms: N1_8  and  C7_10 
REMARK    4  A    between atoms: C7_10  and  C8_11 
REMARK    5  A    between atoms: C8_11  and  C9_12 
REMARK       I    between atoms: C9_12  and  N2_14 
REMARK    6  A    between atoms: C13_18  and  C14_19 
REMARK       I    between atoms: C14_19  and  N3_21 
REMARK    7  A    between atoms: N3_21  and  C15_23 
REMARK    8  A    between atoms: C15_23  and  C16_24 
REMARK    9  A    between atoms: C16_24  and  N4_25 
REMARK       I    between atoms: N4_25  and  C17_27 
REMARK   10  A    between atoms: C17_27  and  O5_29 
REMARK   11  A    between atoms: O5_29  and  C18_30 
REMARK   12  A    between atoms: C22_34  and  C24_36 
REMARK   13  A    between atoms: C28_41  and  C29_42 
REMARK   14  A    between atoms: C29_42  and  O8_44 
REMARK   15  A    between atoms: O8_44  and  C30_45 
ROOT
HETATM    1  C7  UNL     1      18.531  26.124  16.805  1.00  0.00     0.132 C 
ENDROOT
BRANCH   1   2
HETATM    2  N1  UNL     1      19.730  25.634  17.409  1.00  0.00    -0.360 N 
HETATM    3  C6  UNL     1      20.749  26.448  17.951  1.00  0.00     0.223 C 
HETATM    4  O1  UNL     1      20.585  27.691  17.903  1.00  0.00    -0.273 OA
ATOM      5  H1  UNL     1      19.859  24.622  17.450  1.00  0.00     0.162 HD
BRANCH   3   6
HETATM    6  C5  UNL     1      21.913  25.788  18.524  1.00  0.00     0.098 C 
HETATM    7  C4  UNL     1      23.121  26.607  18.875  1.00  0.00     0.036 C 
HETATM    8  C28 UNL     1      23.380  25.509  19.928  1.00  0.00     0.105 C 
HETATM    9  C22 UNL     1      21.864  25.416  20.004  1.00  0.00     0.011 C 
HETATM   10  C23 UNL     1      21.305  26.480  20.888  1.00  0.00     0.020 C 
BRANCH   7  11
HETATM   11  C3  UNL     1      24.166  26.644  17.818  1.00  0.00    -0.025 C 
HETATM   12  C2  UNL     1      24.024  27.466  16.806  1.00  0.00    -0.034 C 
HETATM   13  C1  UNL     1      25.048  27.536  15.724  1.00  0.00     0.036 C 
ENDBRANCH   7  11
BRANCH   8  14
HETATM   14  C29 UNL     1      24.100  25.929  21.116  1.00  0.00     0.264 C 
HETATM   15  O7  UNL     1      25.218  26.486  20.996  1.00  0.00    -0.265 OA
BRANCH  14  16
HETATM   16  O8  UNL     1      23.636  25.759  22.410  1.00  0.00    -0.322 OA
BRANCH  16  17
HETATM   17  C30 UNL     1      24.238  24.848  23.312  1.00  0.00     0.174 C 
HETATM   18  C31 UNL     1      24.686  25.546  24.579  1.00  0.00     0.034 C 
ENDBRANCH  16  17
ENDBRANCH  14  16
ENDBRANCH   8  14
BRANCH   9  19
HETATM   19  C24 UNL     1      21.343  24.022  20.220  1.00  0.00     0.166 A 
HETATM   20  O6  UNL     1      20.993  23.712  21.628  1.00  0.00    -0.369 OA
HETATM   21  C25 UNL     1      20.037  23.582  20.488  1.00  0.00     0.081 A 
HETATM   22  C26 UNL     1      19.728  22.105  20.175  1.00  0.00     0.048 C 
HETATM   23  C27 UNL     1      18.828  24.404  20.728  1.00  0.00     0.048 C 
ENDBRANCH   9  19
ENDBRANCH   3   6
ENDBRANCH   1   2
BRANCH   1  24
HETATM   24  C8  UNL     1      17.300  25.417  17.263  1.00  0.00     0.122 C 
BRANCH  24  25
HETATM   25  C9  UNL     1      17.323  23.994  16.820  1.00  0.00     0.222 C 
HETATM   26  O2  UNL     1      18.196  23.679  15.961  1.00  0.00    -0.273 OA
HETATM   27  N2  UNL     1      16.446  22.989  17.286  1.00  0.00    -0.339 N 
HETATM   28  C10 UNL     1      15.400  23.126  18.258  1.00  0.00     0.127 C 
HETATM   29  C13 UNL     1      16.474  21.628  16.827  1.00  0.00     0.179 C 
HETATM   30  C11 UNL     1      15.241  21.762  18.855  1.00  0.00     0.022 C 
HETATM   31  C12 UNL     1      16.169  20.847  18.099  1.00  0.00     0.037 C 
BRANCH  29  32
HETATM   32  C14 UNL     1      15.405  21.333  15.813  1.00  0.00     0.240 C 
HETATM   33  O3  UNL     1      15.619  21.705  14.637  1.00  0.00    -0.271 OA
HETATM   34  N3  UNL     1      14.219  20.659  16.211  1.00  0.00    -0.358 N 
ATOM     35  H3  UNL     1      14.128  20.390  17.191  1.00  0.00     0.162 HD
BRANCH  34  36
HETATM   36  C15 UNL     1      13.139  20.331  15.316  1.00  0.00     0.142 C 
BRANCH  36  37
HETATM   37  C16 UNL     1      11.780  20.448  15.925  1.00  0.00     0.144 C 
BRANCH  37  38
HETATM   38  N4  UNL     1      11.719  20.184  17.325  1.00  0.00    -0.335 N 
HETATM   39  C17 UNL     1      11.052  19.037  17.829  1.00  0.00     0.361 C 
HETATM   40  O4  UNL     1      10.479  18.175  17.147  1.00  0.00    -0.238 OA
ATOM     41  H4  UNL     1      12.162  20.832  17.976  1.00  0.00     0.164 HD
BRANCH  39  42
HETATM   42  O5  UNL     1      11.045  18.871  19.221  1.00  0.00    -0.294 OA
BRANCH  42  43
HETATM   43  C18 UNL     1      12.016  18.106  19.899  1.00  0.00     0.061 C 
HETATM   44  C19 UNL     1      12.785  18.906  20.905  1.00  0.00     0.046 C 
HETATM   45  C20 UNL     1      12.917  17.411  18.892  1.00  0.00     0.046 C 
HETATM   46  C21 UNL     1      11.258  17.017  20.660  1.00  0.00     0.046 C 
ENDBRANCH  42  43
ENDBRANCH  39  42
ENDBRANCH  37  38
ENDBRANCH  36  37
ENDBRANCH  34  36
ENDBRANCH  29  32
ENDBRANCH  24  25
ENDBRANCH   1  24
TORSDOF 15
ENDMDL
