MODEL 1
REMARK VINA RESULT: -4.395115493      0.000      0.000
REMARK  4 active torsions:
REMARK  status: ('A' for Active; 'I' for Inactive)
REMARK    1  A    between atoms: C2_2  and  C3_4 
REMARK    2  A    between atoms: C3_4  and  N1_5 
REMARK    3  A    between atoms: C3_4  and  C4_9 
REMARK    4  A    between atoms: N2_12  and  C6_13 
ROOT
HETATM    1  C4  UNL     1      -4.272   8.999  33.390  1.00  0.00     0.170 C 
HETATM    2  F1  UNL     1      -4.686  10.345  33.460  1.00  0.00    -0.237 F 
HETATM    3  C5  UNL     1      -3.667   8.626  34.727  1.00  0.00     0.174 C 
HETATM    4  N2  UNL     1      -2.219   8.654  34.462  1.00  0.00    -0.340 N 
HETATM    5  C10 UNL     1      -2.055   8.327  33.093  1.00  0.00     0.232 C 
HETATM    6  O2  UNL     1      -1.078   7.662  32.586  1.00  0.00    -0.272 OA
HETATM    7  C11 UNL     1      -3.215   8.890  32.361  1.00  0.00     0.074 C 
HETATM    8  C12 UNL     1      -3.557   8.083  31.139  1.00  0.00     0.028 C 
HETATM    9  C13 UNL     1      -2.745  10.267  31.888  1.00  0.00     0.028 C 
ENDROOT
BRANCH   1  10
HETATM   10  C3  UNL     1      -5.536   8.229  33.086  1.00  0.00     0.294 C 
BRANCH  10  11
HETATM   11  C2  UNL     1      -5.626   7.065  33.998  1.00  0.00     0.156 C 
HETATM   12  C1  UNL     1      -4.965   5.795  33.623  1.00  0.00     0.093 C 
HETATM   13  O1  UNL     1      -6.227   7.118  35.045  1.00  0.00    -0.296 OA
ENDBRANCH  10  11
BRANCH  10  14
HETATM   14  N1  UNL     1      -6.650   9.112  33.361  1.00  0.00    -0.065 N 
ATOM     15  H13 UNL     1      -7.548   8.627  33.351  1.00  0.00     0.275 HD
ATOM     16  H12 UNL     1      -6.672   9.425  34.332  1.00  0.00     0.275 HD
ATOM     17  H11 UNL     1      -6.616   9.888  32.700  1.00  0.00     0.275 HD
ENDBRANCH  10  14
ENDBRANCH   1  10
BRANCH   4  18
HETATM   18  C6  UNL     1      -1.193   8.945  35.414  1.00  0.00     0.024 C 
HETATM   19  C7  UNL     1      -0.342   7.765  35.813  1.00  0.00     0.037 C 
HETATM   20  C8  UNL     1      -1.848   9.468  36.695  1.00  0.00     0.037 C 
HETATM   21  C9  UNL     1      -0.263  10.033  34.939  1.00  0.00     0.037 C 
ENDBRANCH   4  18
TORSDOF 4
ENDMDL
MODEL 2
REMARK VINA RESULT: -4.351248664      2.263      3.749
REMARK  4 active torsions:
REMARK  status: ('A' for Active; 'I' for Inactive)
REMARK    1  A    between atoms: C2_2  and  C3_4 
REMARK    2  A    between atoms: C3_4  and  N1_5 
REMARK    3  A    between atoms: C3_4  and  C4_9 
REMARK    4  A    between atoms: N2_12  and  C6_13 
ROOT
HETATM    1  C4  UNL     1      -4.120   7.096  32.131  1.00  0.00     0.170 C 
HETATM    2  F1  UNL     1      -4.153   5.766  32.597  1.00  0.00    -0.237 F 
HETATM    3  C5  UNL     1      -2.733   7.646  32.384  1.00  0.00     0.174 C 
HETATM    4  N2  UNL     1      -2.919   8.502  33.568  1.00  0.00    -0.340 N 
HETATM    5  C10 UNL     1      -4.255   8.971  33.518  1.00  0.00     0.232 C 
HETATM    6  O2  UNL     1      -4.669  10.122  33.913  1.00  0.00    -0.272 OA
HETATM    7  C11 UNL     1      -5.082   7.891  32.926  1.00  0.00     0.074 C 
HETATM    8  C12 UNL     1      -6.271   8.434  32.183  1.00  0.00     0.028 C 
HETATM    9  C13 UNL     1      -5.608   7.102  34.126  1.00  0.00     0.028 C 
ENDROOT
BRANCH   1  10
HETATM   10  C3  UNL     1      -4.447   6.991  30.660  1.00  0.00     0.294 C 
BRANCH  10  11
HETATM   11  C2  UNL     1      -3.338   7.574  29.873  1.00  0.00     0.156 C 
HETATM   12  C1  UNL     1      -3.389   9.004  29.493  1.00  0.00     0.093 C 
HETATM   13  O1  UNL     1      -2.384   6.917  29.527  1.00  0.00    -0.296 OA
ENDBRANCH  10  11
BRANCH  10  14
HETATM   14  N1  UNL     1      -4.539   5.580  30.343  1.00  0.00    -0.065 N 
ATOM     15  H13 UNL     1      -4.072   5.343  29.468  1.00  0.00     0.275 HD
ATOM     16  H12 UNL     1      -3.974   5.001  30.965  1.00  0.00     0.275 HD
ATOM     17  H11 UNL     1      -5.524   5.313  30.346  1.00  0.00     0.275 HD
ENDBRANCH  10  14
ENDBRANCH   1  10
BRANCH   4  18
HETATM   18  C6  UNL     1      -1.931   8.799  34.557  1.00  0.00     0.024 C 
HETATM   19  C7  UNL     1      -2.479   9.228  35.895  1.00  0.00     0.037 C 
HETATM   20  C8  UNL     1      -1.061   9.952  34.049  1.00  0.00     0.037 C 
HETATM   21  C9  UNL     1      -0.999   7.640  34.801  1.00  0.00     0.037 C 
ENDBRANCH   4  18
TORSDOF 4
ENDMDL
MODEL 3
REMARK VINA RESULT: -4.279758415      2.585      3.806
REMARK  4 active torsions:
REMARK  status: ('A' for Active; 'I' for Inactive)
REMARK    1  A    between atoms: C2_2  and  C3_4 
REMARK    2  A    between atoms: C3_4  and  N1_5 
REMARK    3  A    between atoms: C3_4  and  C4_9 
REMARK    4  A    between atoms: N2_12  and  C6_13 
ROOT
HETATM    1  C4  UNL     1      -2.289   8.173  31.979  1.00  0.00     0.170 C 
HETATM    2  F1  UNL     1      -1.064   7.573  31.624  1.00  0.00    -0.237 F 
HETATM    3  C5  UNL     1      -2.100   9.675  31.954  1.00  0.00     0.174 C 
HETATM    4  N2  UNL     1      -1.989  10.025  33.380  1.00  0.00    -0.340 N 
HETATM    5  C10 UNL     1      -2.748   9.061  34.090  1.00  0.00     0.232 C 
HETATM    6  O2  UNL     1      -3.422   9.271  35.164  1.00  0.00    -0.272 OA
HETATM    7  C11 UNL     1      -2.619   7.774  33.365  1.00  0.00     0.074 C 
HETATM    8  C12 UNL     1      -3.834   6.906  33.536  1.00  0.00     0.028 C 
HETATM    9  C13 UNL     1      -1.444   7.063  34.040  1.00  0.00     0.028 C 
ENDROOT
BRANCH   1  10
HETATM   10  C3  UNL     1      -3.266   7.691  30.931  1.00  0.00     0.294 C 
BRANCH  10  11
HETATM   11  C2  UNL     1      -4.069   8.838  30.451  1.00  0.00     0.156 C 
HETATM   12  C1  UNL     1      -3.800   9.403  29.109  1.00  0.00     0.093 C 
HETATM   13  O1  UNL     1      -4.943   9.333  31.122  1.00  0.00    -0.296 OA
ENDBRANCH  10  11
BRANCH  10  14
HETATM   14  N1  UNL     1      -2.485   7.185  29.821  1.00  0.00    -0.065 N 
ATOM     15  H13 UNL     1      -2.574   6.175  29.707  1.00  0.00     0.275 HD
ATOM     16  H12 UNL     1      -2.864   7.462  28.916  1.00  0.00     0.275 HD
ATOM     17  H11 UNL     1      -1.516   7.481  29.948  1.00  0.00     0.275 HD
ENDBRANCH  10  14
ENDBRANCH   1  10
BRANCH   4  18
HETATM   18  C6  UNL     1      -1.264  11.130  33.923  1.00  0.00     0.024 C 
HETATM   19  C7  UNL     1      -2.109  12.160  34.632  1.00  0.00     0.037 C 
HETATM   20  C8  UNL     1      -0.552  11.858  32.780  1.00  0.00     0.037 C 
HETATM   21  C9  UNL     1      -0.186  10.692  34.883  1.00  0.00     0.037 C 
ENDBRANCH   4  18
TORSDOF 4
ENDMDL
MODEL 4
REMARK VINA RESULT: -4.176212357      2.189      3.999
REMARK  4 active torsions:
REMARK  status: ('A' for Active; 'I' for Inactive)
REMARK    1  A    between atoms: C2_2  and  C3_4 
REMARK    2  A    between atoms: C3_4  and  N1_5 
REMARK    3  A    between atoms: C3_4  and  C4_9 
REMARK    4  A    between atoms: N2_12  and  C6_13 
ROOT
HETATM    1  C4  UNL     1      -4.074   7.858  33.504  1.00  0.00     0.170 C 
HETATM    2  F1  UNL     1      -3.951   6.460  33.636  1.00  0.00    -0.237 F 
HETATM    3  C5  UNL     1      -4.426   8.162  32.063  1.00  0.00     0.174 C 
HETATM    4  N2  UNL     1      -3.152   8.635  31.496  1.00  0.00    -0.340 N 
HETATM    5  C10 UNL     1      -2.435   9.231  32.563  1.00  0.00     0.232 C 
HETATM    6  O2  UNL     1      -1.649  10.245  32.474  1.00  0.00    -0.272 OA
HETATM    7  C11 UNL     1      -2.758   8.470  33.794  1.00  0.00     0.074 C 
HETATM    8  C12 UNL     1      -2.682   9.330  35.025  1.00  0.00     0.028 C 
HETATM    9  C13 UNL     1      -1.657   7.413  33.900  1.00  0.00     0.028 C 
ENDROOT
BRANCH   1  10
HETATM   10  C3  UNL     1      -5.176   8.236  34.466  1.00  0.00     0.294 C 
BRANCH  10  11
HETATM   11  C2  UNL     1      -6.068   9.224  33.819  1.00  0.00     0.156 C 
HETATM   12  C1  UNL     1      -7.408   8.799  33.353  1.00  0.00     0.093 C 
HETATM   13  O1  UNL     1      -5.738  10.375  33.657  1.00  0.00    -0.296 OA
ENDBRANCH  10  11
BRANCH  10  14
HETATM   14  N1  UNL     1      -5.941   7.034  34.730  1.00  0.00    -0.065 N 
ATOM     15  H13 UNL     1      -5.540   6.471  35.481  1.00  0.00     0.275 HD
ATOM     16  H12 UNL     1      -6.841   7.231  35.168  1.00  0.00     0.275 HD
ATOM     17  H11 UNL     1      -6.035   6.514  33.858  1.00  0.00     0.275 HD
ENDBRANCH  10  14
ENDBRANCH   1  10
BRANCH   4  18
HETATM   18  C6  UNL     1      -2.741   8.518  30.132  1.00  0.00     0.024 C 
HETATM   19  C7  UNL     1      -3.644   9.199  29.135  1.00  0.00     0.037 C 
HETATM   20  C8  UNL     1      -2.710   7.035  29.756  1.00  0.00     0.037 C 
HETATM   21  C9  UNL     1      -1.344   9.041  29.909  1.00  0.00     0.037 C 
ENDBRANCH   4  18
TORSDOF 4
ENDMDL
MODEL 5
REMARK VINA RESULT: -4.163545095      1.724      4.788
REMARK  4 active torsions:
REMARK  status: ('A' for Active; 'I' for Inactive)
REMARK    1  A    between atoms: C2_2  and  C3_4 
REMARK    2  A    between atoms: C3_4  and  N1_5 
REMARK    3  A    between atoms: C3_4  and  C4_9 
REMARK    4  A    between atoms: N2_12  and  C6_13 
ROOT
HETATM    1  C4  UNL     1      -3.157   9.303  34.848  1.00  0.00     0.170 C 
HETATM    2  F1  UNL     1      -2.914  10.491  34.129  1.00  0.00    -0.237 F 
HETATM    3  C5  UNL     1      -2.851   8.133  33.937  1.00  0.00     0.174 C 
HETATM    4  N2  UNL     1      -4.185   7.667  33.525  1.00  0.00    -0.340 N 
HETATM    5  C10 UNL     1      -5.067   7.983  34.588  1.00  0.00     0.232 C 
HETATM    6  O2  UNL     1      -6.086   7.292  34.956  1.00  0.00    -0.272 OA
HETATM    7  C11 UNL     1      -4.595   9.252  35.192  1.00  0.00     0.074 C 
HETATM    8  C12 UNL     1      -4.932   9.340  36.655  1.00  0.00     0.028 C 
HETATM    9  C13 UNL     1      -5.385  10.345  34.470  1.00  0.00     0.028 C 
ENDROOT
BRANCH   1  10
HETATM   10  C3  UNL     1      -2.223   9.379  36.033  1.00  0.00     0.294 C 
BRANCH  10  11
HETATM   11  C2  UNL     1      -0.886   8.886  35.632  1.00  0.00     0.156 C 
HETATM   12  C1  UNL     1      -0.380   7.615  36.197  1.00  0.00     0.093 C 
HETATM   13  O1  UNL     1      -0.189   9.491  34.852  1.00  0.00    -0.296 OA
ENDBRANCH  10  11
BRANCH  10  14
HETATM   14  N1  UNL     1      -2.104  10.777  36.393  1.00  0.00    -0.065 N 
ATOM     15  H13 UNL     1      -2.871  11.097  36.985  1.00  0.00     0.275 HD
ATOM     16  H12 UNL     1      -1.342  10.950  37.048  1.00  0.00     0.275 HD
ATOM     17  H11 UNL     1      -2.017  11.324  35.536  1.00  0.00     0.275 HD
ENDBRANCH  10  14
ENDBRANCH   1  10
BRANCH   4  18
HETATM   18  C6  UNL     1      -4.508   7.016  32.294  1.00  0.00     0.024 C 
HETATM   19  C7  UNL     1      -4.691   5.522  32.394  1.00  0.00     0.037 C 
HETATM   20  C8  UNL     1      -3.367   7.253  31.301  1.00  0.00     0.037 C 
HETATM   21  C9  UNL     1      -5.751   7.583  31.655  1.00  0.00     0.037 C 
ENDBRANCH   4  18
TORSDOF 4
ENDMDL
