MODEL 1
REMARK VINA RESULT: -8.607013459      0.000      0.000
REMARK  5 active torsions:
REMARK  status: ('A' for Active; 'I' for Inactive)
REMARK    1  A    between atoms: C3_4  and  N2_5 
REMARK       I    between atoms: N2_5  and  C4_7 
REMARK       I    between atoms: C4_7  and  N4_14 
REMARK    2  A    between atoms: N3_8  and  C5_10 
REMARK       I    between atoms: C9_16  and  N5_17 
REMARK       I    between atoms: C9_16  and  N6_25 
REMARK    3  A    between atoms: N5_17  and  C10_19 
REMARK    4  A    between atoms: N6_25  and  N7_27 
REMARK    5  A    between atoms: C18_32  and  C19_33 
ROOT
HETATM    1  N2  UNL     1      11.722   0.109  54.549  1.00  0.00    -0.190 N 
ATOM      2  H2  UNL     1      11.764   0.750  53.756  1.00  0.00     0.184 HD
HETATM    3  C4  UNL     1      12.945  -0.151  55.244  1.00  0.00     0.693 C 
HETATM    4  N3  UNL     1      13.112   0.490  56.291  1.00  0.00    -0.217 N 
ATOM      5  H3  UNL     1      12.295   1.085  56.425  1.00  0.00     0.178 HD
HETATM    6  N4  UNL     1      13.860  -1.082  54.738  1.00  0.00    -0.021 N 
ATOM      7  H4  UNL     1      14.410  -1.581  55.437  1.00  0.00     0.203 HD
HETATM    8  C9  UNL     1      14.097  -1.389  53.549  1.00  0.00     0.716 C 
HETATM    9  N5  UNL     1      15.059  -2.363  53.184  1.00  0.00    -0.190 N 
ATOM     10  H5  UNL     1      15.263  -3.129  53.825  1.00  0.00     0.184 HD
HETATM   11  N6  UNL     1      13.386  -0.762  52.484  1.00  0.00    -0.071 N 
ATOM     12  H6  UNL     1      13.486   0.241  52.327  1.00  0.00     0.212 HD
ENDROOT
BRANCH   1  13
HETATM   13  C3  UNL     1      10.457  -0.444  54.865  1.00  0.00     0.064 A 
HETATM   14  C2  UNL     1      10.344  -1.761  55.301  1.00  0.00     0.120 A 
HETATM   15  N1  UNL     1       9.170  -2.332  55.639  1.00  0.00    -0.355 N 
HETATM   16  C1  UNL     1       9.243  -3.722  56.049  1.00  0.00     0.156 C 
HETATM   17  C18 UNL     1       8.014  -1.648  55.571  1.00  0.00     0.118 A 
HETATM   18  C17 UNL     1       8.079  -0.342  55.141  1.00  0.00     0.037 A 
HETATM   19  C16 UNL     1       9.296   0.273  54.788  1.00  0.00     0.034 A 
BRANCH  17  20
HETATM   20  C19 UNL     1       6.721  -2.286  55.953  1.00  0.00     0.432 C 
HETATM   21  F1  UNL     1       6.847  -3.119  57.046  1.00  0.00    -0.165 F 
HETATM   22  F2  UNL     1       5.803  -1.315  56.337  1.00  0.00    -0.165 F 
HETATM   23  F3  UNL     1       6.117  -2.921  54.868  1.00  0.00    -0.165 F 
ENDBRANCH  17  20
ENDBRANCH   1  13
BRANCH   4  24
HETATM   24  C5  UNL     1      13.966   0.712  57.341  1.00  0.00     0.036 C 
HETATM   25  C6  UNL     1      13.835   2.042  58.017  1.00  0.00     0.038 C 
HETATM   26  C7  UNL     1      13.622  -0.346  58.443  1.00  0.00     0.038 C 
HETATM   27  C8  UNL     1      15.462   0.525  57.082  1.00  0.00     0.038 C 
ENDBRANCH   4  24
BRANCH   9  28
HETATM   28  C10 UNL     1      15.752  -2.292  51.927  1.00  0.00     0.049 A 
HETATM   29  C11 UNL     1      15.897  -3.436  51.185  1.00  0.00     0.030 A 
HETATM   30  C12 UNL     1      16.544  -3.393  49.953  1.00  0.00     0.002 A 
HETATM   31  C13 UNL     1      17.033  -2.216  49.483  1.00  0.00     0.000 A 
HETATM   32  C14 UNL     1      16.903  -1.057  50.204  1.00  0.00     0.002 A 
HETATM   33  C15 UNL     1      16.249  -1.116  51.441  1.00  0.00     0.030 A 
ENDBRANCH   9  28
BRANCH  11  34
HETATM   34  N7  UNL     1      12.540  -1.527  51.643  1.00  0.00    -0.024 N 
HETATM   35  O1  UNL     1      12.074  -1.024  50.590  1.00  0.00    -0.516 OA
HETATM   36  O2  UNL     1      12.227  -2.805  51.980  1.00  0.00    -0.516 OA
ENDBRANCH  11  34
TORSDOF 5
ENDMDL
MODEL 2
REMARK VINA RESULT: -8.531850916      1.806      2.266
REMARK  5 active torsions:
REMARK  status: ('A' for Active; 'I' for Inactive)
REMARK    1  A    between atoms: C3_4  and  N2_5 
REMARK       I    between atoms: N2_5  and  C4_7 
REMARK       I    between atoms: C4_7  and  N4_14 
REMARK    2  A    between atoms: N3_8  and  C5_10 
REMARK       I    between atoms: C9_16  and  N5_17 
REMARK       I    between atoms: C9_16  and  N6_25 
REMARK    3  A    between atoms: N5_17  and  C10_19 
REMARK    4  A    between atoms: N6_25  and  N7_27 
REMARK    5  A    between atoms: C18_32  and  C19_33 
ROOT
HETATM    1  N2  UNL     1      12.231  -0.357  54.840  1.00  0.00    -0.190 N 
ATOM      2  H2  UNL     1      12.500  -0.111  53.887  1.00  0.00     0.184 HD
HETATM    3  C4  UNL     1      13.259  -0.330  55.835  1.00  0.00     0.693 C 
HETATM    4  N3  UNL     1      13.294   0.689  56.540  1.00  0.00    -0.217 N 
ATOM      5  H3  UNL     1      12.541   1.304  56.235  1.00  0.00     0.178 HD
HETATM    6  N4  UNL     1      14.140  -1.410  55.968  1.00  0.00    -0.021 N 
ATOM      7  H4  UNL     1      14.483  -1.581  56.914  1.00  0.00     0.203 HD
HETATM    8  C9  UNL     1      14.565  -2.194  55.092  1.00  0.00     0.716 C 
HETATM    9  N5  UNL     1      15.460  -3.255  55.378  1.00  0.00    -0.190 N 
ATOM     10  H5  UNL     1      15.446  -3.684  56.303  1.00  0.00     0.184 HD
HETATM   11  N6  UNL     1      14.150  -2.056  53.735  1.00  0.00    -0.071 N 
ATOM     12  H6  UNL     1      14.393  -1.215  53.212  1.00  0.00     0.212 HD
ENDROOT
BRANCH   1  13
HETATM   13  C3  UNL     1      10.874  -0.694  55.061  1.00  0.00     0.064 A 
HETATM   14  C2  UNL     1      10.521  -1.956  55.530  1.00  0.00     0.120 A 
HETATM   15  N1  UNL     1       9.248  -2.325  55.782  1.00  0.00    -0.355 N 
HETATM   16  C1  UNL     1       9.069  -3.688  56.245  1.00  0.00     0.156 C 
HETATM   17  C18 UNL     1       8.223  -1.476  55.589  1.00  0.00     0.118 A 
HETATM   18  C17 UNL     1       8.527  -0.217  55.123  1.00  0.00     0.037 A 
HETATM   19  C16 UNL     1       9.849   0.188  54.857  1.00  0.00     0.034 A 
BRANCH  17  20
HETATM   20  C19 UNL     1       6.819  -1.890  55.877  1.00  0.00     0.432 C 
HETATM   21  F1  UNL     1       6.725  -2.694  56.994  1.00  0.00    -0.165 F 
HETATM   22  F2  UNL     1       6.040  -0.774  56.162  1.00  0.00    -0.165 F 
HETATM   23  F3  UNL     1       6.209  -2.459  54.760  1.00  0.00    -0.165 F 
ENDBRANCH  17  20
ENDBRANCH   1  13
BRANCH   4  24
HETATM   24  C5  UNL     1      13.950   1.310  57.571  1.00  0.00     0.036 C 
HETATM   25  C6  UNL     1      15.393   1.628  57.328  1.00  0.00     0.038 C 
HETATM   26  C7  UNL     1      13.254   2.697  57.787  1.00  0.00     0.038 C 
HETATM   27  C8  UNL     1      13.901   0.638  58.944  1.00  0.00     0.038 C 
ENDBRANCH   4  24
BRANCH   9  28
HETATM   28  C10 UNL     1      16.385  -3.737  54.391  1.00  0.00     0.049 A 
HETATM   29  C11 UNL     1      17.435  -2.938  54.020  1.00  0.00     0.030 A 
HETATM   30  C12 UNL     1      18.360  -3.388  53.083  1.00  0.00     0.002 A 
HETATM   31  C13 UNL     1      18.224  -4.622  52.532  1.00  0.00     0.000 A 
HETATM   32  C14 UNL     1      17.184  -5.443  52.884  1.00  0.00     0.002 A 
HETATM   33  C15 UNL     1      16.262  -4.977  53.829  1.00  0.00     0.030 A 
ENDBRANCH   9  28
BRANCH  11  34
HETATM   34  N7  UNL     1      13.399  -3.084  53.111  1.00  0.00    -0.024 N 
HETATM   35  O1  UNL     1      12.864  -3.985  53.805  1.00  0.00    -0.516 OA
HETATM   36  O2  UNL     1      13.264  -3.099  51.760  1.00  0.00    -0.516 OA
ENDBRANCH  11  34
TORSDOF 5
ENDMDL
MODEL 3
REMARK VINA RESULT: -8.517246473      4.588      7.997
REMARK  5 active torsions:
REMARK  status: ('A' for Active; 'I' for Inactive)
REMARK    1  A    between atoms: C3_4  and  N2_5 
REMARK       I    between atoms: N2_5  and  C4_7 
REMARK       I    between atoms: C4_7  and  N4_14 
REMARK    2  A    between atoms: N3_8  and  C5_10 
REMARK       I    between atoms: C9_16  and  N5_17 
REMARK       I    between atoms: C9_16  and  N6_25 
REMARK    3  A    between atoms: N5_17  and  C10_19 
REMARK    4  A    between atoms: N6_25  and  N7_27 
REMARK    5  A    between atoms: C18_32  and  C19_33 
ROOT
HETATM    1  N2  UNL     1      12.705  -2.952  52.207  1.00  0.00    -0.190 N 
ATOM      2  H2  UNL     1      11.932  -3.441  51.756  1.00  0.00     0.184 HD
HETATM    3  C4  UNL     1      13.011  -3.321  53.556  1.00  0.00     0.693 C 
HETATM    4  N3  UNL     1      13.961  -4.106  53.693  1.00  0.00    -0.217 N 
ATOM      5  H3  UNL     1      14.325  -4.318  52.765  1.00  0.00     0.178 HD
HETATM    6  N4  UNL     1      12.264  -2.798  54.617  1.00  0.00    -0.021 N 
ATOM      7  H4  UNL     1      12.774  -2.671  55.492  1.00  0.00     0.203 HD
HETATM    8  C9  UNL     1      11.059  -2.463  54.645  1.00  0.00     0.716 C 
HETATM    9  N5  UNL     1      10.433  -1.940  55.803  1.00  0.00    -0.190 N 
ATOM     10  H5  UNL     1      10.990  -1.421  56.481  1.00  0.00     0.184 HD
HETATM   11  N6  UNL     1      10.248  -2.589  53.480  1.00  0.00    -0.071 N 
ATOM     12  H6  UNL     1      10.063  -3.512  53.085  1.00  0.00     0.212 HD
ENDROOT
BRANCH   1  13
HETATM   13  C3  UNL     1      13.381  -1.970  51.444  1.00  0.00     0.064 A 
HETATM   14  C2  UNL     1      12.790  -1.416  50.312  1.00  0.00     0.120 A 
HETATM   15  N1  UNL     1      13.375  -0.460  49.562  1.00  0.00    -0.355 N 
HETATM   16  C1  UNL     1      12.619  -0.019  48.405  1.00  0.00     0.156 C 
HETATM   17  C18 UNL     1      14.592   0.023  49.869  1.00  0.00     0.118 A 
HETATM   18  C17 UNL     1      15.215  -0.499  50.980  1.00  0.00     0.037 A 
HETATM   19  C16 UNL     1      14.618  -1.494  51.778  1.00  0.00     0.034 A 
BRANCH  17  20
HETATM   20  C19 UNL     1      15.230   1.084  49.037  1.00  0.00     0.432 C 
HETATM   21  F1  UNL     1      14.665   2.326  49.245  1.00  0.00    -0.165 F 
HETATM   22  F2  UNL     1      16.568   1.227  49.387  1.00  0.00    -0.165 F 
HETATM   23  F3  UNL     1      15.261   0.734  47.688  1.00  0.00    -0.165 F 
ENDBRANCH  17  20
ENDBRANCH   1  13
BRANCH   4  24
HETATM   24  C5  UNL     1      14.712  -4.801  54.605  1.00  0.00     0.036 C 
HETATM   25  C6  UNL     1      13.974  -5.826  55.410  1.00  0.00     0.038 C 
HETATM   26  C7  UNL     1      15.785  -5.606  53.797  1.00  0.00     0.038 C 
HETATM   27  C8  UNL     1      15.522  -3.987  55.616  1.00  0.00     0.038 C 
ENDBRANCH   4  24
BRANCH   9  28
HETATM   28  C10 UNL     1       9.028  -2.125  56.039  1.00  0.00     0.049 A 
HETATM   29  C11 UNL     1       8.564  -3.382  56.327  1.00  0.00     0.030 A 
HETATM   30  C12 UNL     1       7.212  -3.587  56.583  1.00  0.00     0.002 A 
HETATM   31  C13 UNL     1       6.346  -2.541  56.547  1.00  0.00     0.000 A 
HETATM   32  C14 UNL     1       6.782  -1.272  56.261  1.00  0.00     0.002 A 
HETATM   33  C15 UNL     1       8.146  -1.081  56.007  1.00  0.00     0.030 A 
ENDBRANCH   9  28
BRANCH  11  34
HETATM   34  N7  UNL     1       9.696  -1.436  52.867  1.00  0.00    -0.024 N 
HETATM   35  O1  UNL     1      10.447  -0.506  52.480  1.00  0.00    -0.516 OA
HETATM   36  O2  UNL     1       8.351  -1.333  52.704  1.00  0.00    -0.516 OA
ENDBRANCH  11  34
TORSDOF 5
ENDMDL
MODEL 4
REMARK VINA RESULT: -8.447384153      4.557      7.996
REMARK  5 active torsions:
REMARK  status: ('A' for Active; 'I' for Inactive)
REMARK    1  A    between atoms: C3_4  and  N2_5 
REMARK       I    between atoms: N2_5  and  C4_7 
REMARK       I    between atoms: C4_7  and  N4_14 
REMARK    2  A    between atoms: N3_8  and  C5_10 
REMARK       I    between atoms: C9_16  and  N5_17 
REMARK       I    between atoms: C9_16  and  N6_25 
REMARK    3  A    between atoms: N5_17  and  C10_19 
REMARK    4  A    between atoms: N6_25  and  N7_27 
REMARK    5  A    between atoms: C18_32  and  C19_33 
ROOT
HETATM    1  N2  UNL     1      12.425  -2.649  52.133  1.00  0.00    -0.190 N 
ATOM      2  H2  UNL     1      11.664  -3.163  51.689  1.00  0.00     0.184 HD
HETATM    3  C4  UNL     1      12.789  -3.040  53.460  1.00  0.00     0.693 C 
HETATM    4  N3  UNL     1      13.780  -3.780  53.546  1.00  0.00    -0.217 N 
ATOM      5  H3  UNL     1      14.127  -3.946  52.602  1.00  0.00     0.178 HD
HETATM    6  N4  UNL     1      12.048  -2.586  54.557  1.00  0.00    -0.021 N 
ATOM      7  H4  UNL     1      12.577  -2.460  55.421  1.00  0.00     0.203 HD
HETATM    8  C9  UNL     1      10.830  -2.314  54.629  1.00  0.00     0.716 C 
HETATM    9  N5  UNL     1      10.213  -1.857  55.819  1.00  0.00    -0.190 N 
ATOM     10  H5  UNL     1      10.763  -1.330  56.497  1.00  0.00     0.184 HD
HETATM   11  N6  UNL     1       9.991  -2.447  53.484  1.00  0.00    -0.071 N 
ATOM     12  H6  UNL     1       9.841  -3.367  53.068  1.00  0.00     0.212 HD
ENDROOT
BRANCH   1  13
HETATM   13  C3  UNL     1      13.028  -1.612  51.380  1.00  0.00     0.064 A 
HETATM   14  C2  UNL     1      14.394  -1.628  51.113  1.00  0.00     0.120 A 
HETATM   15  N1  UNL     1      15.018  -0.682  50.382  1.00  0.00    -0.355 N 
HETATM   16  C1  UNL     1      16.450  -0.851  50.226  1.00  0.00     0.156 C 
HETATM   17  C18 UNL     1      14.341   0.356  49.859  1.00  0.00     0.118 A 
HETATM   18  C17 UNL     1      12.987   0.413  50.101  1.00  0.00     0.037 A 
HETATM   19  C16 UNL     1      12.318  -0.567  50.858  1.00  0.00     0.034 A 
BRANCH  17  20
HETATM   20  C19 UNL     1      15.038   1.396  49.046  1.00  0.00     0.432 C 
HETATM   21  F1  UNL     1      16.331   1.620  49.475  1.00  0.00    -0.165 F 
HETATM   22  F2  UNL     1      15.158   0.972  47.727  1.00  0.00    -0.165 F 
HETATM   23  F3  UNL     1      14.294   2.572  48.964  1.00  0.00    -0.165 F 
ENDBRANCH  17  20
ENDBRANCH   1  13
BRANCH   4  24
HETATM   24  C5  UNL     1      14.591  -4.462  54.416  1.00  0.00     0.036 C 
HETATM   25  C6  UNL     1      13.919  -5.509  55.249  1.00  0.00     0.038 C 
HETATM   26  C7  UNL     1      15.642  -5.236  53.551  1.00  0.00     0.038 C 
HETATM   27  C8  UNL     1      15.431  -3.635  55.391  1.00  0.00     0.038 C 
ENDBRANCH   4  24
BRANCH   9  28
HETATM   28  C10 UNL     1       8.826  -2.119  56.090  1.00  0.00     0.049 A 
HETATM   29  C11 UNL     1       8.439  -3.402  56.380  1.00  0.00     0.030 A 
HETATM   30  C12 UNL     1       7.107  -3.681  56.668  1.00  0.00     0.002 A 
HETATM   31  C13 UNL     1       6.185  -2.684  56.662  1.00  0.00     0.000 A 
HETATM   32  C14 UNL     1       6.544  -1.392  56.374  1.00  0.00     0.002 A 
HETATM   33  C15 UNL     1       7.889  -1.125  56.088  1.00  0.00     0.030 A 
ENDBRANCH   9  28
BRANCH  11  34
HETATM   34  N7  UNL     1       9.365  -1.307  52.922  1.00  0.00    -0.024 N 
HETATM   35  O1  UNL     1       9.952  -0.196  52.929  1.00  0.00    -0.516 OA
HETATM   36  O2  UNL     1       8.123  -1.413  52.381  1.00  0.00    -0.516 OA
ENDBRANCH  11  34
TORSDOF 5
ENDMDL
MODEL 5
REMARK VINA RESULT: -8.096490449      1.032      1.419
REMARK  5 active torsions:
REMARK  status: ('A' for Active; 'I' for Inactive)
REMARK    1  A    between atoms: C3_4  and  N2_5 
REMARK       I    between atoms: N2_5  and  C4_7 
REMARK       I    between atoms: C4_7  and  N4_14 
REMARK    2  A    between atoms: N3_8  and  C5_10 
REMARK       I    between atoms: C9_16  and  N5_17 
REMARK       I    between atoms: C9_16  and  N6_25 
REMARK    3  A    between atoms: N5_17  and  C10_19 
REMARK    4  A    between atoms: N6_25  and  N7_27 
REMARK    5  A    between atoms: C18_32  and  C19_33 
ROOT
HETATM    1  N2  UNL     1      11.671  -0.793  54.670  1.00  0.00    -0.190 N 
ATOM      2  H2  UNL     1      11.466  -0.215  53.856  1.00  0.00     0.184 HD
HETATM    3  C4  UNL     1      12.971  -0.659  55.254  1.00  0.00     0.693 C 
HETATM    4  N3  UNL     1      13.033   0.065  56.259  1.00  0.00    -0.217 N 
ATOM      5  H3  UNL     1      12.094   0.415  56.449  1.00  0.00     0.178 HD
HETATM    6  N4  UNL     1      14.067  -1.325  54.696  1.00  0.00    -0.021 N 
ATOM      7  H4  UNL     1      14.791  -1.607  55.357  1.00  0.00     0.203 HD
HETATM    8  C9  UNL     1      14.285  -1.624  53.501  1.00  0.00     0.716 C 
HETATM    9  N5  UNL     1      15.451  -2.310  53.080  1.00  0.00    -0.190 N 
ATOM     10  H5  UNL     1      15.916  -2.948  53.725  1.00  0.00     0.184 HD
HETATM   11  N6  UNL     1      13.341  -1.285  52.488  1.00  0.00    -0.071 N 
ATOM     12  H6  UNL     1      13.138  -0.306  52.288  1.00  0.00     0.212 HD
ENDROOT
BRANCH   1  13
HETATM   13  C3  UNL     1      10.646  -1.657  55.123  1.00  0.00     0.064 A 
HETATM   14  C2  UNL     1      10.905  -3.003  55.370  1.00  0.00     0.120 A 
HETATM   15  N1  UNL     1       9.975  -3.866  55.825  1.00  0.00    -0.355 N 
HETATM   16  C1  UNL     1      10.421  -5.235  56.002  1.00  0.00     0.156 C 
HETATM   17  C18 UNL     1       8.714  -3.470  56.072  1.00  0.00     0.118 A 
HETATM   18  C17 UNL     1       8.412  -2.147  55.839  1.00  0.00     0.037 A 
HETATM   19  C16 UNL     1       9.371  -1.229  55.367  1.00  0.00     0.034 A 
BRANCH  17  20
HETATM   20  C19 UNL     1       7.692  -4.430  56.582  1.00  0.00     0.432 C 
HETATM   21  F1  UNL     1       8.083  -5.040  57.756  1.00  0.00    -0.165 F 
HETATM   22  F2  UNL     1       6.515  -3.758  56.892  1.00  0.00    -0.165 F 
HETATM   23  F3  UNL     1       7.316  -5.351  55.605  1.00  0.00    -0.165 F 
ENDBRANCH  17  20
ENDBRANCH   1  13
BRANCH   4  24
HETATM   24  C5  UNL     1      13.872   0.579  57.214  1.00  0.00     0.036 C 
HETATM   25  C6  UNL     1      13.581   1.983  57.648  1.00  0.00     0.038 C 
HETATM   26  C7  UNL     1      13.691  -0.295  58.501  1.00  0.00     0.038 C 
HETATM   27  C8  UNL     1      15.373   0.538  56.928  1.00  0.00     0.038 C 
ENDBRANCH   4  24
BRANCH   9  28
HETATM   28  C10 UNL     1      15.991  -2.124  51.761  1.00  0.00     0.049 A 
HETATM   29  C11 UNL     1      16.163  -3.219  50.955  1.00  0.00     0.030 A 
HETATM   30  C12 UNL     1      16.662  -3.065  49.665  1.00  0.00     0.002 A 
HETATM   31  C13 UNL     1      16.981  -1.829  49.202  1.00  0.00     0.000 A 
HETATM   32  C14 UNL     1      16.819  -0.716  49.986  1.00  0.00     0.002 A 
HETATM   33  C15 UNL     1      16.314  -0.886  51.281  1.00  0.00     0.030 A 
ENDBRANCH   9  28
BRANCH  11  34
HETATM   34  N7  UNL     1      12.682  -2.306  51.758  1.00  0.00    -0.024 N 
HETATM   35  O1  UNL     1      12.503  -3.437  52.275  1.00  0.00    -0.516 OA
HETATM   36  O2  UNL     1      12.248  -2.063  50.494  1.00  0.00    -0.516 OA
ENDBRANCH  11  34
TORSDOF 5
ENDMDL
