MODEL 1
REMARK VINA RESULT: -10.128397646      0.000      0.000
REMARK  11 active torsions:
REMARK  status: ('A' for Active; 'I' for Inactive)
REMARK    1  A    between atoms: C3_3  and  C4_4 
REMARK    2  A    between atoms: C4_4  and  C5_5 
REMARK    3  A    between atoms: C8_8  and  O1_9 
REMARK    4  A    between atoms: C9_11  and  O2_12 
REMARK    5  A    between atoms: N1_17  and  C13_18 
REMARK    6  A    between atoms: C13_18  and  C14_19 
REMARK    7  A    between atoms: C14_19  and  C15_20 
REMARK    8  A    between atoms: C15_20  and  N2_21 
REMARK    9  A    between atoms: N2_21  and  S1_23 
REMARK   10  A    between atoms: S1_23  and  C16_26 
REMARK   11  A    between atoms: C17_27  and  C18_29 
ROOT
HETATM    1  C1  UNL     1      11.194   1.715  18.351  1.00  0.00     0.021 C 
HETATM    2  C2  UNL     1      10.494   2.346  19.222  1.00  0.00    -0.029 C 
HETATM    3  C3  UNL     1      10.865   2.969  20.460  1.00  0.00    -0.048 C 
HETATM    4  C11 UNL     1      10.325   2.017  21.547  1.00  0.00     0.069 C 
HETATM    5  C12 UNL     1       9.150   1.248  21.084  1.00  0.00     0.278 C 
HETATM    6  N1  UNL     1       8.316   1.781  20.073  1.00  0.00     0.097 N 
HETATM    7  C19 UNL     1       8.988   2.425  18.966  1.00  0.00     0.251 C 
HETATM    8  C20 UNL     1       8.601   1.977  17.614  1.00  0.00     0.048 C 
ENDROOT
BRANCH   6   9
HETATM    9  C13 UNL     1       7.542   0.644  19.531  1.00  0.00     0.275 C 
BRANCH   9  10
HETATM   10  C14 UNL     1       6.404   0.303  20.468  1.00  0.00     0.050 C 
BRANCH  10  11
HETATM   11  C15 UNL     1       5.115   0.337  19.685  1.00  0.00     0.134 C 
BRANCH  11  12
HETATM   12  N2  UNL     1       5.270   0.812  18.347  1.00  0.00    -0.316 N 
ATOM     13  H2  UNL     1       6.119   1.203  17.938  1.00  0.00     0.172 HD
BRANCH  12  14
HETATM   14  S1  UNL     1       3.745   0.598  17.547  1.00  0.00     0.250 S 
HETATM   15  O3  UNL     1       3.894  -0.529  16.575  1.00  0.00    -0.201 OA
HETATM   16  O4  UNL     1       2.693   0.255  18.564  1.00  0.00    -0.201 OA
BRANCH  14  17
HETATM   17  C16 UNL     1       3.345   2.106  16.768  1.00  0.00     0.155 C 
HETATM   18  C17 UNL     1       4.138   2.635  15.850  1.00  0.00     0.078 C 
HETATM   19 CL1  UNL     1       5.608   1.837  15.392  1.00  0.00    -0.084 Cl
BRANCH  18  20
HETATM   20  C18 UNL     1       3.793   3.923  15.189  1.00  0.00     0.227 C 
HETATM   21 CL2  UNL     1       4.046   5.250  16.365  1.00  0.00    -0.077 Cl
HETATM   22 CL3  UNL     1       2.114   3.850  14.625  1.00  0.00    -0.077 Cl
HETATM   23 CL4  UNL     1       4.903   4.136  13.803  1.00  0.00    -0.077 Cl
ENDBRANCH  18  20
ENDBRANCH  14  17
ENDBRANCH  12  14
ENDBRANCH  11  12
ENDBRANCH  10  11
ENDBRANCH   9  10
ENDBRANCH   6   9
BRANCH   3  24
HETATM   24  C4  UNL     1      12.142   3.564  20.778  1.00  0.00     0.019 C 
BRANCH  24  25
HETATM   25  C5  UNL     1      12.937   4.348  19.877  1.00  0.00    -0.033 A 
HETATM   26  C6  UNL     1      14.305   4.280  19.823  1.00  0.00     0.014 A 
HETATM   27  C7  UNL     1      15.073   5.013  18.970  1.00  0.00     0.040 A 
HETATM   28  C8  UNL     1      14.479   5.898  18.079  1.00  0.00     0.098 A 
HETATM   29  C9  UNL     1      13.120   6.003  18.092  1.00  0.00     0.099 A 
HETATM   30  C10 UNL     1      12.355   5.236  18.981  1.00  0.00     0.051 A 
BRANCH  28  31
HETATM   31  O1  UNL     1      15.317   6.628  17.222  1.00  0.00    -0.358 OA
ATOM     32  H1  UNL     1      15.299   6.416  16.296  1.00  0.00     0.217 HD
ENDBRANCH  28  31
BRANCH  29  33
HETATM   33  O2  UNL     1      12.490   6.874  17.221  1.00  0.00    -0.358 OA
ATOM     34  H2  UNL     1      12.719   7.796  17.228  1.00  0.00     0.217 HD
ENDBRANCH  29  33
ENDBRANCH  24  25
ENDBRANCH   3  24
TORSDOF 11
ENDMDL
MODEL 2
REMARK VINA RESULT: -10.035643633      0.549      1.194
REMARK  11 active torsions:
REMARK  status: ('A' for Active; 'I' for Inactive)
REMARK    1  A    between atoms: C3_3  and  C4_4 
REMARK    2  A    between atoms: C4_4  and  C5_5 
REMARK    3  A    between atoms: C8_8  and  O1_9 
REMARK    4  A    between atoms: C9_11  and  O2_12 
REMARK    5  A    between atoms: N1_17  and  C13_18 
REMARK    6  A    between atoms: C13_18  and  C14_19 
REMARK    7  A    between atoms: C14_19  and  C15_20 
REMARK    8  A    between atoms: C15_20  and  N2_21 
REMARK    9  A    between atoms: N2_21  and  S1_23 
REMARK   10  A    between atoms: S1_23  and  C16_26 
REMARK   11  A    between atoms: C17_27  and  C18_29 
ROOT
HETATM    1  C1  UNL     1      10.790   1.512  18.384  1.00  0.00     0.021 C 
HETATM    2  C2  UNL     1      10.161   2.175  19.284  1.00  0.00    -0.029 C 
HETATM    3  C3  UNL     1      10.628   2.839  20.467  1.00  0.00    -0.048 C 
HETATM    4  C11 UNL     1      10.172   1.928  21.625  1.00  0.00     0.069 C 
HETATM    5  C12 UNL     1       8.963   1.148  21.281  1.00  0.00     0.278 C 
HETATM    6  N1  UNL     1       8.055   1.649  20.320  1.00  0.00     0.097 N 
HETATM    7  C19 UNL     1       8.639   2.252  19.142  1.00  0.00     0.251 C 
HETATM    8  C20 UNL     1       8.149   1.759  17.840  1.00  0.00     0.048 C 
ENDROOT
BRANCH   6   9
HETATM    9  C13 UNL     1       7.239   0.498  19.879  1.00  0.00     0.275 C 
BRANCH   9  10
HETATM   10  C14 UNL     1       6.005   0.379  20.746  1.00  0.00     0.050 C 
BRANCH  10  11
HETATM   11  C15 UNL     1       4.790   0.393  19.852  1.00  0.00     0.134 C 
BRANCH  11  12
HETATM   12  N2  UNL     1       5.098   0.594  18.471  1.00  0.00    -0.316 N 
ATOM     13  H2  UNL     1       6.017   0.800  18.079  1.00  0.00     0.172 HD
BRANCH  12  14
HETATM   14  S1  UNL     1       3.615   0.424  17.585  1.00  0.00     0.250 S 
HETATM   15  O3  UNL     1       3.802  -0.677  16.591  1.00  0.00    -0.201 OA
HETATM   16  O4  UNL     1       2.506   0.068  18.534  1.00  0.00    -0.201 OA
BRANCH  14  17
HETATM   17  C16 UNL     1       3.276   1.959  16.830  1.00  0.00     0.155 C 
HETATM   18  C17 UNL     1       4.088   2.467  15.916  1.00  0.00     0.078 C 
HETATM   19 CL1  UNL     1       5.522   1.615  15.441  1.00  0.00    -0.084 Cl
BRANCH  18  20
HETATM   20  C18 UNL     1       3.795   3.778  15.274  1.00  0.00     0.227 C 
HETATM   21 CL2  UNL     1       4.057   5.073  16.483  1.00  0.00    -0.077 Cl
HETATM   22 CL3  UNL     1       2.129   3.764  14.671  1.00  0.00    -0.077 Cl
HETATM   23 CL4  UNL     1       4.943   3.987  13.919  1.00  0.00    -0.077 Cl
ENDBRANCH  18  20
ENDBRANCH  14  17
ENDBRANCH  12  14
ENDBRANCH  11  12
ENDBRANCH  10  11
ENDBRANCH   9  10
ENDBRANCH   6   9
BRANCH   3  24
HETATM   24  C4  UNL     1      11.926   3.439  20.665  1.00  0.00     0.019 C 
BRANCH  24  25
HETATM   25  C5  UNL     1      12.604   4.276  19.717  1.00  0.00    -0.033 A 
HETATM   26  C6  UNL     1      11.953   5.127  18.861  1.00  0.00     0.014 A 
HETATM   27  C7  UNL     1      12.581   5.932  17.959  1.00  0.00     0.040 A 
HETATM   28  C8  UNL     1      13.967   5.925  17.863  1.00  0.00     0.098 A 
HETATM   29  C9  UNL     1      14.662   5.097  18.693  1.00  0.00     0.099 A 
HETATM   30  C10 UNL     1      13.989   4.279  19.611  1.00  0.00     0.051 A 
BRANCH  28  31
HETATM   31  O1  UNL     1      14.563   6.774  16.917  1.00  0.00    -0.358 OA
ATOM     32  H1  UNL     1      14.239   7.665  16.855  1.00  0.00     0.217 HD
ENDBRANCH  28  31
BRANCH  29  33
HETATM   33  O2  UNL     1      16.043   5.060  18.627  1.00  0.00    -0.358 OA
ATOM     34  H2  UNL     1      16.551   5.780  18.983  1.00  0.00     0.217 HD
ENDBRANCH  29  33
ENDBRANCH  24  25
ENDBRANCH   3  24
TORSDOF 11
ENDMDL
MODEL 3
REMARK VINA RESULT: -9.965977319      1.049      2.165
REMARK  11 active torsions:
REMARK  status: ('A' for Active; 'I' for Inactive)
REMARK    1  A    between atoms: C3_3  and  C4_4 
REMARK    2  A    between atoms: C4_4  and  C5_5 
REMARK    3  A    between atoms: C8_8  and  O1_9 
REMARK    4  A    between atoms: C9_11  and  O2_12 
REMARK    5  A    between atoms: N1_17  and  C13_18 
REMARK    6  A    between atoms: C13_18  and  C14_19 
REMARK    7  A    between atoms: C14_19  and  C15_20 
REMARK    8  A    between atoms: C15_20  and  N2_21 
REMARK    9  A    between atoms: N2_21  and  S1_23 
REMARK   10  A    between atoms: S1_23  and  C16_26 
REMARK   11  A    between atoms: C17_27  and  C18_29 
ROOT
HETATM    1  C1  UNL     1       9.474   3.789  20.293  1.00  0.00     0.021 C 
HETATM    2  C2  UNL     1       9.860   2.871  19.484  1.00  0.00    -0.029 C 
HETATM    3  C3  UNL     1      10.465   2.950  18.186  1.00  0.00    -0.048 C 
HETATM    4  C11 UNL     1       9.339   2.544  17.212  1.00  0.00     0.069 C 
HETATM    5  C12 UNL     1       8.351   1.643  17.844  1.00  0.00     0.278 C 
HETATM    6  N1  UNL     1       8.744   0.816  18.921  1.00  0.00     0.097 N 
HETATM    7  C19 UNL     1       9.603   1.425  19.913  1.00  0.00     0.251 C 
HETATM    8  C20 UNL     1       9.173   1.300  21.319  1.00  0.00     0.048 C 
ENDROOT
BRANCH   6   9
HETATM    9  C13 UNL     1       7.499   0.399  19.600  1.00  0.00     0.275 C 
BRANCH   9  10
HETATM   10  C14 UNL     1       6.820  -0.694  18.803  1.00  0.00     0.050 C 
BRANCH  10  11
HETATM   11  C15 UNL     1       5.327  -0.541  18.960  1.00  0.00     0.134 C 
BRANCH  11  12
HETATM   12  N2  UNL     1       4.830   0.719  18.507  1.00  0.00    -0.316 N 
ATOM     13  H2  UNL     1       5.046   1.634  18.905  1.00  0.00     0.172 HD
BRANCH  12  14
HETATM   14  S1  UNL     1       3.788   0.404  17.155  1.00  0.00     0.250 S 
HETATM   15  O3  UNL     1       4.534  -0.472  16.199  1.00  0.00    -0.201 OA
HETATM   16  O4  UNL     1       2.552  -0.304  17.633  1.00  0.00    -0.201 OA
BRANCH  14  17
HETATM   17  C16 UNL     1       3.355   1.942  16.456  1.00  0.00     0.155 C 
HETATM   18  C17 UNL     1       4.223   2.638  15.739  1.00  0.00     0.078 C 
HETATM   19 CL1  UNL     1       5.827   2.035  15.472  1.00  0.00    -0.084 Cl
BRANCH  18  20
HETATM   20  C18 UNL     1       3.850   3.950  15.146  1.00  0.00     0.227 C 
HETATM   21 CL2  UNL     1       2.134   3.875  14.636  1.00  0.00    -0.077 Cl
HETATM   22 CL3  UNL     1       4.930   4.295  13.783  1.00  0.00    -0.077 Cl
HETATM   23 CL4  UNL     1       4.040   5.195  16.417  1.00  0.00    -0.077 Cl
ENDBRANCH  18  20
ENDBRANCH  14  17
ENDBRANCH  12  14
ENDBRANCH  11  12
ENDBRANCH  10  11
ENDBRANCH   9  10
ENDBRANCH   6   9
BRANCH   3  24
HETATM   24  C4  UNL     1      11.318   4.006  17.693  1.00  0.00     0.019 C 
BRANCH  24  25
HETATM   25  C5  UNL     1      12.608   4.343  18.225  1.00  0.00    -0.033 A 
HETATM   26  C6  UNL     1      13.145   3.745  19.335  1.00  0.00     0.014 A 
HETATM   27  C7  UNL     1      14.370   4.049  19.850  1.00  0.00     0.040 A 
HETATM   28  C8  UNL     1      15.160   5.019  19.245  1.00  0.00     0.098 A 
HETATM   29  C9  UNL     1      14.672   5.643  18.137  1.00  0.00     0.099 A 
HETATM   30  C10 UNL     1      13.408   5.310  17.631  1.00  0.00     0.051 A 
BRANCH  28  31
HETATM   31  O1  UNL     1      16.413   5.293  19.816  1.00  0.00    -0.358 OA
ATOM     32  H1  UNL     1      16.854   4.589  20.277  1.00  0.00     0.217 HD
ENDBRANCH  28  31
BRANCH  29  33
HETATM   33  O2  UNL     1      15.428   6.615  17.507  1.00  0.00    -0.358 OA
ATOM     34  H2  UNL     1      15.907   6.400  16.715  1.00  0.00     0.217 HD
ENDBRANCH  29  33
ENDBRANCH  24  25
ENDBRANCH   3  24
TORSDOF 11
ENDMDL
MODEL 4
REMARK VINA RESULT: -9.875573952      3.065      3.774
REMARK  11 active torsions:
REMARK  status: ('A' for Active; 'I' for Inactive)
REMARK    1  A    between atoms: C3_3  and  C4_4 
REMARK    2  A    between atoms: C4_4  and  C5_5 
REMARK    3  A    between atoms: C8_8  and  O1_9 
REMARK    4  A    between atoms: C9_11  and  O2_12 
REMARK    5  A    between atoms: N1_17  and  C13_18 
REMARK    6  A    between atoms: C13_18  and  C14_19 
REMARK    7  A    between atoms: C14_19  and  C15_20 
REMARK    8  A    between atoms: C15_20  and  N2_21 
REMARK    9  A    between atoms: N2_21  and  S1_23 
REMARK   10  A    between atoms: S1_23  and  C16_26 
REMARK   11  A    between atoms: C17_27  and  C18_29 
ROOT
HETATM    1  C1  UNL     1      10.381   0.845  18.664  1.00  0.00     0.021 C 
HETATM    2  C2  UNL     1       9.787   1.726  19.383  1.00  0.00    -0.029 C 
HETATM    3  C3  UNL     1      10.271   2.560  20.445  1.00  0.00    -0.048 C 
HETATM    4  C11 UNL     1       9.676   1.936  21.725  1.00  0.00     0.069 C 
HETATM    5  C12 UNL     1       8.408   1.221  21.462  1.00  0.00     0.278 C 
HETATM    6  N1  UNL     1       7.597   1.609  20.371  1.00  0.00     0.097 N 
HETATM    7  C19 UNL     1       8.288   1.915  19.138  1.00  0.00     0.251 C 
HETATM    8  C20 UNL     1       7.803   1.228  17.926  1.00  0.00     0.048 C 
ENDROOT
BRANCH   6   9
HETATM    9  C13 UNL     1       6.686   0.476  20.107  1.00  0.00     0.275 C 
BRANCH   9  10
HETATM   10  C14 UNL     1       5.381   0.680  20.846  1.00  0.00     0.050 C 
BRANCH  10  11
HETATM   11  C15 UNL     1       5.181  -0.480  21.790  1.00  0.00     0.134 C 
BRANCH  11  12
HETATM   12  N2  UNL     1       5.895  -1.657  21.410  1.00  0.00    -0.316 N 
ATOM     13  H2  UNL     1       6.909  -1.758  21.353  1.00  0.00     0.172 HD
BRANCH  12  14
HETATM   14  S1  UNL     1       4.717  -2.883  21.063  1.00  0.00     0.250 S 
HETATM   15  O3  UNL     1       5.441  -4.182  20.910  1.00  0.00    -0.201 OA
HETATM   16  O4  UNL     1       3.744  -2.976  22.205  1.00  0.00    -0.201 OA
BRANCH  14  17
HETATM   17  C16 UNL     1       3.877  -2.408  19.610  1.00  0.00     0.155 C 
HETATM   18  C17 UNL     1       4.515  -2.297  18.455  1.00  0.00     0.078 C 
HETATM   19 CL1  UNL     1       6.216  -2.624  18.355  1.00  0.00    -0.084 Cl
BRANCH  18  20
HETATM   20  C18 UNL     1       3.796  -1.891  17.218  1.00  0.00     0.227 C 
HETATM   21 CL2  UNL     1       3.268  -3.370  16.356  1.00  0.00    -0.077 Cl
HETATM   22 CL3  UNL     1       4.875  -0.896  16.224  1.00  0.00    -0.077 Cl
HETATM   23 CL4  UNL     1       2.360  -0.945  17.711  1.00  0.00    -0.077 Cl
ENDBRANCH  18  20
ENDBRANCH  14  17
ENDBRANCH  12  14
ENDBRANCH  11  12
ENDBRANCH  10  11
ENDBRANCH   9  10
ENDBRANCH   6   9
BRANCH   3  24
HETATM   24  C4  UNL     1      11.615   3.063  20.604  1.00  0.00     0.019 C 
BRANCH  24  25
HETATM   25  C5  UNL     1      12.281   3.945  19.690  1.00  0.00    -0.033 A 
HETATM   26  C6  UNL     1      11.617   4.777  18.826  1.00  0.00     0.014 A 
HETATM   27  C7  UNL     1      12.234   5.625  17.956  1.00  0.00     0.040 A 
HETATM   28  C8  UNL     1      13.621   5.686  17.904  1.00  0.00     0.098 A 
HETATM   29  C9  UNL     1      14.328   4.879  18.744  1.00  0.00     0.099 A 
HETATM   30  C10 UNL     1      13.666   4.016  19.628  1.00  0.00     0.051 A 
BRANCH  28  31
HETATM   31  O1  UNL     1      14.205   6.576  16.990  1.00  0.00    -0.358 OA
ATOM     32  H1  UNL     1      13.750   6.732  16.170  1.00  0.00     0.217 HD
ENDBRANCH  28  31
BRANCH  29  33
HETATM   33  O2  UNL     1      15.711   4.909  18.723  1.00  0.00    -0.358 OA
ATOM     34  H2  UNL     1      16.195   4.937  19.540  1.00  0.00     0.217 HD
ENDBRANCH  29  33
ENDBRANCH  24  25
ENDBRANCH   3  24
TORSDOF 11
ENDMDL
MODEL 5
REMARK VINA RESULT: -9.836186095      1.207      1.560
REMARK  11 active torsions:
REMARK  status: ('A' for Active; 'I' for Inactive)
REMARK    1  A    between atoms: C3_3  and  C4_4 
REMARK    2  A    between atoms: C4_4  and  C5_5 
REMARK    3  A    between atoms: C8_8  and  O1_9 
REMARK    4  A    between atoms: C9_11  and  O2_12 
REMARK    5  A    between atoms: N1_17  and  C13_18 
REMARK    6  A    between atoms: C13_18  and  C14_19 
REMARK    7  A    between atoms: C14_19  and  C15_20 
REMARK    8  A    between atoms: C15_20  and  N2_21 
REMARK    9  A    between atoms: N2_21  and  S1_23 
REMARK   10  A    between atoms: S1_23  and  C16_26 
REMARK   11  A    between atoms: C17_27  and  C18_29 
ROOT
HETATM    1  C1  UNL     1      10.529   1.722  18.350  1.00  0.00     0.021 C 
HETATM    2  C2  UNL     1       9.604   2.386  18.942  1.00  0.00    -0.029 C 
HETATM    3  C3  UNL     1       9.671   3.498  19.847  1.00  0.00    -0.048 C 
HETATM    4  C11 UNL     1       9.335   2.892  21.225  1.00  0.00     0.069 C 
HETATM    5  C12 UNL     1       8.475   1.694  21.115  1.00  0.00     0.278 C 
HETATM    6  N1  UNL     1       7.615   1.547  20.002  1.00  0.00     0.097 N 
HETATM    7  C19 UNL     1       8.167   1.912  18.717  1.00  0.00     0.251 C 
HETATM    8  C20 UNL     1       8.045   0.910  17.641  1.00  0.00     0.048 C 
ENDROOT
BRANCH   6   9
HETATM    9  C13 UNL     1       7.251   0.116  19.945  1.00  0.00     0.275 C 
BRANCH   9  10
HETATM   10  C14 UNL     1       5.816  -0.069  20.391  1.00  0.00     0.050 C 
BRANCH  10  11
HETATM   11  C15 UNL     1       4.964  -0.306  19.169  1.00  0.00     0.134 C 
BRANCH  11  12
HETATM   12  N2  UNL     1       4.321   0.874  18.682  1.00  0.00    -0.316 N 
ATOM     13  H2  UNL     1       4.293   1.783  19.145  1.00  0.00     0.172 HD
BRANCH  12  14
HETATM   14  S1  UNL     1       3.599   0.471  17.156  1.00  0.00     0.250 S 
HETATM   15  O3  UNL     1       4.592  -0.334  16.380  1.00  0.00    -0.201 OA
HETATM   16  O4  UNL     1       2.359  -0.344  17.391  1.00  0.00    -0.201 OA
BRANCH  14  17
HETATM   17  C16 UNL     1       3.182   1.967  16.362  1.00  0.00     0.155 C 
HETATM   18  C17 UNL     1       4.108   2.726  15.799  1.00  0.00     0.078 C 
HETATM   19 CL1  UNL     1       5.776   2.250  15.835  1.00  0.00    -0.084 Cl
BRANCH  18  20
HETATM   20  C18 UNL     1       3.748   4.001  15.123  1.00  0.00     0.227 C 
HETATM   21 CL2  UNL     1       3.943   5.340  16.297  1.00  0.00    -0.077 Cl
HETATM   22 CL3  UNL     1       2.084   3.885  14.523  1.00  0.00    -0.077 Cl
HETATM   23 CL4  UNL     1       4.883   4.234  13.760  1.00  0.00    -0.077 Cl
ENDBRANCH  18  20
ENDBRANCH  14  17
ENDBRANCH  12  14
ENDBRANCH  11  12
ENDBRANCH  10  11
ENDBRANCH   9  10
ENDBRANCH   6   9
BRANCH   3  24
HETATM   24  C4  UNL     1      10.690   4.520  19.885  1.00  0.00     0.019 C 
BRANCH  24  25
HETATM   25  C5  UNL     1      12.103   4.278  19.934  1.00  0.00    -0.033 A 
HETATM   26  C6  UNL     1      12.723   3.641  20.978  1.00  0.00     0.014 A 
HETATM   27  C7  UNL     1      14.063   3.398  21.037  1.00  0.00     0.040 A 
HETATM   28  C8  UNL     1      14.893   3.801  19.999  1.00  0.00     0.098 A 
HETATM   29  C9  UNL     1      14.325   4.438  18.936  1.00  0.00     0.099 A 
HETATM   30  C10 UNL     1      12.944   4.675  18.903  1.00  0.00     0.051 A 
BRANCH  28  31
HETATM   31  O1  UNL     1      16.265   3.525  20.111  1.00  0.00    -0.358 OA
ATOM     32  H1  UNL     1      16.792   3.567  19.322  1.00  0.00     0.217 HD
ENDBRANCH  28  31
BRANCH  29  33
HETATM   33  O2  UNL     1      15.118   4.856  17.882  1.00  0.00    -0.358 OA
ATOM     34  H2  UNL     1      14.723   5.031  17.036  1.00  0.00     0.217 HD
ENDBRANCH  29  33
ENDBRANCH  24  25
ENDBRANCH   3  24
TORSDOF 11
ENDMDL
