MODEL 1
REMARK VINA RESULT: -9.135374396      0.000      0.000
REMARK  11 active torsions:
REMARK  status: ('A' for Active; 'I' for Inactive)
REMARK    1  A    between atoms: C2_2  and  C3_3 
REMARK    2  A    between atoms: C2_2  and  C26_32 
REMARK    3  A    between atoms: C3_3  and  C4_4 
REMARK    4  A    between atoms: C4_4  and  C5_5 
REMARK    5  A    between atoms: C5_5  and  C6_6 
REMARK    6  A    between atoms: C6_6  and  C8_8 
REMARK    7  A    between atoms: C11_11  and  C12_12 
REMARK    8  A    between atoms: C15_15  and  O1_16 
REMARK    9  A    between atoms: C20_22  and  O2_23 
REMARK   10  A    between atoms: C24_28  and  C25_29 
REMARK   11  A    between atoms: C25_29  and  O3_30 
ROOT
HETATM    1  C8  UNL     1       7.856   0.196  19.106  1.00  0.00     0.000 C 
HETATM    2  C9  UNL     1       7.293   1.519  19.419  1.00  0.00     0.006 C 
HETATM    3  C10 UNL     1       6.814   2.122  18.089  1.00  0.00     0.006 C 
HETATM    4  C11 UNL     1       6.106   1.067  17.283  1.00  0.00    -0.005 C 
HETATM    5  C18 UNL     1       5.645  -0.139  18.076  1.00  0.00     0.008 C 
HETATM    6  C19 UNL     1       4.875  -1.050  17.202  1.00  0.00     0.026 A 
HETATM    7  C20 UNL     1       5.436  -1.662  15.954  1.00  0.00     0.127 A 
HETATM    8  C21 UNL     1       5.136  -2.458  17.141  1.00  0.00     0.022 A 
HETATM    9  C22 UNL     1       6.280  -3.025  17.894  1.00  0.00     0.008 C 
HETATM   10  C23 UNL     1       7.279  -2.043  18.387  1.00  0.00     0.013 C 
HETATM   11  C24 UNL     1       6.697  -0.767  18.951  1.00  0.00    -0.011 C 
ENDROOT
BRANCH   1  12
HETATM   12  C6  UNL     1       9.091  -0.251  19.730  1.00  0.00    -0.014 C 
HETATM   13  C7  UNL     1       9.261   0.318  21.169  1.00  0.00     0.010 C 
BRANCH  12  14
HETATM   14  C5  UNL     1      10.332   0.057  18.960  1.00  0.00     0.005 C 
BRANCH  14  15
HETATM   15  C4  UNL     1      10.594   1.392  18.430  1.00  0.00     0.001 C 
BRANCH  15  16
HETATM   16  C3  UNL     1      12.121   1.636  18.544  1.00  0.00     0.015 C 
BRANCH  16  17
HETATM   17  C2  UNL     1      12.450   2.980  19.076  1.00  0.00     0.083 C 
HETATM   18  C1  UNL     1      11.138   3.681  19.493  1.00  0.00     0.021 C 
BRANCH  17  19
HETATM   19  C26 UNL     1      13.058   3.904  18.091  1.00  0.00     0.176 C 
HETATM   20  O4  UNL     1      13.969   3.553  17.338  1.00  0.00    -0.648 OA
HETATM   21  O5  UNL     1      12.520   5.207  18.077  1.00  0.00    -0.648 OA
ENDBRANCH  17  19
ENDBRANCH  16  17
ENDBRANCH  15  16
ENDBRANCH  14  15
ENDBRANCH  12  14
ENDBRANCH   1  12
BRANCH  11  22
HETATM   22  C25 UNL     1       6.140  -1.123  20.306  1.00  0.00     0.174 C 
BRANCH  22  23
HETATM   23  O3  UNL     1       4.841  -0.567  20.473  1.00  0.00    -0.400 OA
ATOM     24  H3  UNL     1       4.489  -0.792  21.326  1.00  0.00     0.209 HD
ENDBRANCH  22  23
ENDBRANCH  11  22
BRANCH   4  25
HETATM   25  C12 UNL     1       4.951   1.633  16.539  1.00  0.00    -0.004 C 
HETATM   26  C13 UNL     1       4.452   2.959  16.977  1.00  0.00     0.008 C 
HETATM   27  C14 UNL     1       3.421   3.286  15.888  1.00  0.00     0.032 C 
HETATM   28  C15 UNL     1       3.688   2.311  14.747  1.00  0.00     0.122 C 
HETATM   29  C16 UNL     1       5.103   1.786  15.073  1.00  0.00     0.015 C 
HETATM   30  C17 UNL     1       6.033   2.830  14.577  1.00  0.00     0.013 C 
BRANCH  28  31
HETATM   31  O1  UNL     1       3.689   2.940  13.529  1.00  0.00    -0.395 OA
ATOM     32  H1  UNL     1       3.522   3.872  13.613  1.00  0.00     0.210 HD
ENDBRANCH  28  31
ENDBRANCH   4  25
BRANCH   7  33
HETATM   33  O2  UNL     1       6.757  -1.535  15.589  1.00  0.00    -0.395 OA
ATOM     34  H2  UNL     1       7.342  -2.279  15.499  1.00  0.00     0.210 HD
ENDBRANCH   7  33
TORSDOF 11
ENDMDL
MODEL 2
REMARK VINA RESULT: -9.119796628      2.168      6.630
REMARK  11 active torsions:
REMARK  status: ('A' for Active; 'I' for Inactive)
REMARK    1  A    between atoms: C2_2  and  C3_3 
REMARK    2  A    between atoms: C2_2  and  C26_32 
REMARK    3  A    between atoms: C3_3  and  C4_4 
REMARK    4  A    between atoms: C4_4  and  C5_5 
REMARK    5  A    between atoms: C5_5  and  C6_6 
REMARK    6  A    between atoms: C6_6  and  C8_8 
REMARK    7  A    between atoms: C11_11  and  C12_12 
REMARK    8  A    between atoms: C15_15  and  O1_16 
REMARK    9  A    between atoms: C20_22  and  O2_23 
REMARK   10  A    between atoms: C24_28  and  C25_29 
REMARK   11  A    between atoms: C25_29  and  O3_30 
ROOT
HETATM    1  C8  UNL     1       5.917  -0.128  17.916  1.00  0.00     0.000 C 
HETATM    2  C9  UNL     1       7.249   0.196  17.381  1.00  0.00     0.006 C 
HETATM    3  C10 UNL     1       7.948   1.070  18.433  1.00  0.00     0.006 C 
HETATM    4  C11 UNL     1       7.698   0.506  19.805  1.00  0.00    -0.005 C 
HETATM    5  C18 UNL     1       7.241  -0.939  19.827  1.00  0.00     0.008 C 
HETATM    6  C19 UNL     1       7.132  -1.410  21.224  1.00  0.00     0.026 A 
HETATM    7  C20 UNL     1       6.246  -0.761  22.244  1.00  0.00     0.127 A 
HETATM    8  C21 UNL     1       5.972  -2.094  21.715  1.00  0.00     0.022 A 
HETATM    9  C22 UNL     1       4.789  -2.255  20.837  1.00  0.00     0.008 C 
HETATM   10  C23 UNL     1       4.763  -1.396  19.625  1.00  0.00     0.013 C 
HETATM   11  C24 UNL     1       6.089  -1.256  18.911  1.00  0.00    -0.011 C 
ENDROOT
BRANCH   1  12
HETATM   12  C6  UNL     1       4.745  -0.091  17.058  1.00  0.00    -0.014 C 
HETATM   13  C7  UNL     1       5.118  -0.180  15.549  1.00  0.00     0.010 C 
BRANCH  12  14
HETATM   14  C5  UNL     1       3.863   1.098  17.248  1.00  0.00     0.005 C 
BRANCH  14  15
HETATM   15  C4  UNL     1       2.774   1.401  16.325  1.00  0.00     0.001 C 
BRANCH  15  16
HETATM   16  C3  UNL     1       2.834   2.922  16.031  1.00  0.00     0.015 C 
BRANCH  16  17
HETATM   17  C2  UNL     1       4.195   3.486  16.202  1.00  0.00     0.083 C 
HETATM   18  C1  UNL     1       4.070   4.913  16.781  1.00  0.00     0.021 C 
BRANCH  17  19
HETATM   19  C26 UNL     1       4.952   3.669  14.942  1.00  0.00     0.176 C 
HETATM   20  O4  UNL     1       4.502   4.315  13.994  1.00  0.00    -0.648 OA
HETATM   21  O5  UNL     1       6.222   3.055  14.909  1.00  0.00    -0.648 OA
ENDBRANCH  17  19
ENDBRANCH  16  17
ENDBRANCH  15  16
ENDBRANCH  14  15
ENDBRANCH  12  14
ENDBRANCH   1  12
BRANCH  11  22
HETATM   22  C25 UNL     1       6.312  -2.557  18.182  1.00  0.00     0.174 C 
BRANCH  22  23
HETATM   23  O3  UNL     1       7.701  -2.855  18.108  1.00  0.00    -0.400 OA
ATOM     24  H3  UNL     1       7.859  -3.555  17.485  1.00  0.00     0.209 HD
ENDBRANCH  22  23
ENDBRANCH  11  22
BRANCH   4  25
HETATM   25  C12 UNL     1       8.890   0.654  20.681  1.00  0.00    -0.004 C 
HETATM   26  C13 UNL     1      10.186   0.174  20.142  1.00  0.00     0.008 C 
HETATM   27  C14 UNL     1      11.173   0.656  21.214  1.00  0.00     0.032 C 
HETATM   28  C15 UNL     1      10.415   1.673  22.060  1.00  0.00     0.122 C 
HETATM   29  C16 UNL     1       9.201   2.017  21.170  1.00  0.00     0.015 C 
HETATM   30  C17 UNL     1       9.704   3.010  20.188  1.00  0.00     0.013 C 
BRANCH  28  31
HETATM   31  O1  UNL     1      11.161   2.799  22.294  1.00  0.00    -0.395 OA
ATOM     32  H1  UNL     1      10.692   3.428  22.830  1.00  0.00     0.210 HD
ENDBRANCH  28  31
ENDBRANCH   4  25
BRANCH   7  33
HETATM   33  O2  UNL     1       5.359   0.244  21.931  1.00  0.00    -0.395 OA
ATOM     34  H2  UNL     1       4.702   0.560  22.540  1.00  0.00     0.210 HD
ENDBRANCH   7  33
TORSDOF 11
ENDMDL
MODEL 3
REMARK VINA RESULT: -9.098483313      2.577      6.950
REMARK  11 active torsions:
REMARK  status: ('A' for Active; 'I' for Inactive)
REMARK    1  A    between atoms: C2_2  and  C3_3 
REMARK    2  A    between atoms: C2_2  and  C26_32 
REMARK    3  A    between atoms: C3_3  and  C4_4 
REMARK    4  A    between atoms: C4_4  and  C5_5 
REMARK    5  A    between atoms: C5_5  and  C6_6 
REMARK    6  A    between atoms: C6_6  and  C8_8 
REMARK    7  A    between atoms: C11_11  and  C12_12 
REMARK    8  A    between atoms: C15_15  and  O1_16 
REMARK    9  A    between atoms: C20_22  and  O2_23 
REMARK   10  A    between atoms: C24_28  and  C25_29 
REMARK   11  A    between atoms: C25_29  and  O3_30 
ROOT
HETATM    1  C8  UNL     1       5.126  -3.101  18.828  1.00  0.00     0.000 C 
HETATM    2  C9  UNL     1       6.463  -3.114  18.216  1.00  0.00     0.006 C 
HETATM    3  C10 UNL     1       7.043  -1.702  18.392  1.00  0.00     0.006 C 
HETATM    4  C11 UNL     1       6.749  -1.204  19.781  1.00  0.00    -0.005 C 
HETATM    5  C18 UNL     1       6.383  -2.283  20.780  1.00  0.00     0.008 C 
HETATM    6  C19 UNL     1       6.222  -1.688  22.125  1.00  0.00     0.026 A 
HETATM    7  C20 UNL     1       5.238  -0.600  22.429  1.00  0.00     0.127 A 
HETATM    8  C21 UNL     1       5.080  -1.954  22.949  1.00  0.00     0.022 A 
HETATM    9  C22 UNL     1       3.963  -2.769  22.415  1.00  0.00     0.008 C 
HETATM   10  C23 UNL     1       3.954  -2.967  20.943  1.00  0.00     0.013 C 
HETATM   11  C24 UNL     1       5.308  -3.235  20.325  1.00  0.00    -0.011 C 
ENDROOT
BRANCH   1  12
HETATM   12  C6  UNL     1       4.005  -3.758  18.174  1.00  0.00    -0.014 C 
HETATM   13  C7  UNL     1       4.462  -4.951  17.284  1.00  0.00     0.010 C 
BRANCH  12  14
HETATM   14  C5  UNL     1       3.149  -2.861  17.343  1.00  0.00     0.005 C 
BRANCH  14  15
HETATM   15  C4  UNL     1       2.497  -1.684  17.908  1.00  0.00     0.001 C 
BRANCH  15  16
HETATM   16  C3  UNL     1       3.484  -0.498  17.756  1.00  0.00     0.015 C 
BRANCH  16  17
HETATM   17  C2  UNL     1       3.597  -0.021  16.357  1.00  0.00     0.083 C 
HETATM   18  C1  UNL     1       5.090   0.008  15.963  1.00  0.00     0.021 C 
BRANCH  17  19
HETATM   19  C26 UNL     1       3.136   1.370  16.139  1.00  0.00     0.176 C 
HETATM   20  O4  UNL     1       2.173   1.845  16.743  1.00  0.00    -0.648 OA
HETATM   21  O5  UNL     1       3.879   2.108  15.194  1.00  0.00    -0.648 OA
ENDBRANCH  17  19
ENDBRANCH  16  17
ENDBRANCH  15  16
ENDBRANCH  14  15
ENDBRANCH  12  14
ENDBRANCH   1  12
BRANCH  11  22
HETATM   22  C25 UNL     1       5.656  -4.659  20.677  1.00  0.00     0.174 C 
BRANCH  22  23
HETATM   23  O3  UNL     1       4.474  -5.422  20.891  1.00  0.00    -0.400 OA
ATOM     24  H3  UNL     1       4.521  -6.247  20.421  1.00  0.00     0.209 HD
ENDBRANCH  22  23
ENDBRANCH  11  22
BRANCH   4  25
HETATM   25  C12 UNL     1       7.875  -0.399  20.322  1.00  0.00    -0.004 C 
HETATM   26  C13 UNL     1       9.193  -0.556  19.661  1.00  0.00     0.008 C 
HETATM   27  C14 UNL     1      10.024   0.538  20.346  1.00  0.00     0.032 C 
HETATM   28  C15 UNL     1       9.025   1.448  21.051  1.00  0.00     0.122 C 
HETATM   29  C16 UNL     1       7.688   1.069  20.378  1.00  0.00     0.015 C 
HETATM   30  C17 UNL     1       7.668   1.817  19.096  1.00  0.00     0.013 C 
BRANCH  28  31
HETATM   31  O1  UNL     1       9.302   2.773  20.834  1.00  0.00    -0.395 OA
ATOM     32  H1  UNL     1       8.601   3.208  20.362  1.00  0.00     0.210 HD
ENDBRANCH  28  31
ENDBRANCH   4  25
BRANCH   7  33
HETATM   33  O2  UNL     1       4.309  -0.155  21.515  1.00  0.00    -0.395 OA
ATOM     34  H2  UNL     1       3.373  -0.256  21.641  1.00  0.00     0.210 HD
ENDBRANCH   7  33
TORSDOF 11
ENDMDL
MODEL 4
REMARK VINA RESULT: -9.020817991      2.218      7.109
REMARK  11 active torsions:
REMARK  status: ('A' for Active; 'I' for Inactive)
REMARK    1  A    between atoms: C2_2  and  C3_3 
REMARK    2  A    between atoms: C2_2  and  C26_32 
REMARK    3  A    between atoms: C3_3  and  C4_4 
REMARK    4  A    between atoms: C4_4  and  C5_5 
REMARK    5  A    between atoms: C5_5  and  C6_6 
REMARK    6  A    between atoms: C6_6  and  C8_8 
REMARK    7  A    between atoms: C11_11  and  C12_12 
REMARK    8  A    between atoms: C15_15  and  O1_16 
REMARK    9  A    between atoms: C20_22  and  O2_23 
REMARK   10  A    between atoms: C24_28  and  C25_29 
REMARK   11  A    between atoms: C25_29  and  O3_30 
ROOT
HETATM    1  C8  UNL     1       4.363  -0.744  17.745  1.00  0.00     0.000 C 
HETATM    2  C9  UNL     1       4.516  -0.532  19.193  1.00  0.00     0.006 C 
HETATM    3  C10 UNL     1       6.025  -0.472  19.474  1.00  0.00     0.006 C 
HETATM    4  C11 UNL     1       6.703   0.358  18.418  1.00  0.00    -0.005 C 
HETATM    5  C18 UNL     1       5.779   1.267  17.632  1.00  0.00     0.008 C 
HETATM    6  C19 UNL     1       6.570   2.105  16.704  1.00  0.00     0.026 A 
HETATM    7  C20 UNL     1       7.466   1.538  15.646  1.00  0.00     0.127 A 
HETATM    8  C21 UNL     1       6.231   2.244  15.319  1.00  0.00     0.022 A 
HETATM    9  C22 UNL     1       5.115   1.450  14.753  1.00  0.00     0.008 C 
HETATM   10  C23 UNL     1       4.646   0.311  15.584  1.00  0.00     0.013 C 
HETATM   11  C24 UNL     1       4.556   0.596  17.067  1.00  0.00    -0.011 C 
ENDROOT
BRANCH   1  12
HETATM   12  C6  UNL     1       3.375  -1.679  17.233  1.00  0.00    -0.014 C 
HETATM   13  C7  UNL     1       2.294  -2.033  18.295  1.00  0.00     0.010 C 
BRANCH  12  14
HETATM   14  C5  UNL     1       3.936  -2.956  16.699  1.00  0.00     0.005 C 
BRANCH  14  15
HETATM   15  C4  UNL     1       3.411  -4.254  17.110  1.00  0.00     0.001 C 
BRANCH  15  16
HETATM   16  C3  UNL     1       4.573  -5.020  17.795  1.00  0.00     0.015 C 
BRANCH  16  17
HETATM   17  C2  UNL     1       5.179  -4.261  18.915  1.00  0.00     0.083 C 
HETATM   18  C1  UNL     1       6.705  -4.181  18.692  1.00  0.00     0.021 C 
BRANCH  17  19
HETATM   19  C26 UNL     1       5.039  -4.902  20.244  1.00  0.00     0.176 C 
HETATM   20  O4  UNL     1       5.983  -5.460  20.806  1.00  0.00    -0.648 OA
HETATM   21  O5  UNL     1       3.752  -4.825  20.816  1.00  0.00    -0.648 OA
ENDBRANCH  17  19
ENDBRANCH  16  17
ENDBRANCH  15  16
ENDBRANCH  14  15
ENDBRANCH  12  14
ENDBRANCH   1  12
BRANCH  11  22
HETATM   22  C25 UNL     1       3.328   1.451  17.256  1.00  0.00     0.174 C 
BRANCH  22  23
HETATM   23  O3  UNL     1       2.290   1.034  16.377  1.00  0.00    -0.400 OA
ATOM     24  H3  UNL     1       2.059   1.735  15.778  1.00  0.00     0.209 HD
ENDBRANCH  22  23
ENDBRANCH  11  22
BRANCH   4  25
HETATM   25  C12 UNL     1       7.813   1.165  18.988  1.00  0.00    -0.004 C 
HETATM   26  C13 UNL     1       7.789   1.405  20.452  1.00  0.00     0.008 C 
HETATM   27  C14 UNL     1       9.146   2.082  20.686  1.00  0.00     0.032 C 
HETATM   28  C15 UNL     1       9.965   1.834  19.423  1.00  0.00     0.122 C 
HETATM   29  C16 UNL     1       9.192   0.686  18.738  1.00  0.00     0.015 C 
HETATM   30  C17 UNL     1       9.634  -0.551  19.429  1.00  0.00     0.013 C 
BRANCH  28  31
HETATM   31  O1  UNL     1      11.243   1.432  19.715  1.00  0.00    -0.395 OA
ATOM     32  H1  UNL     1      11.879   1.831  19.133  1.00  0.00     0.210 HD
ENDBRANCH  28  31
ENDBRANCH   4  25
BRANCH   7  33
HETATM   33  O2  UNL     1       7.526   0.192  15.360  1.00  0.00    -0.395 OA
ATOM     34  H2  UNL     1       8.302  -0.225  15.002  1.00  0.00     0.210 HD
ENDBRANCH   7  33
TORSDOF 11
ENDMDL
MODEL 5
REMARK VINA RESULT: -8.937631800      2.473      6.412
REMARK  11 active torsions:
REMARK  status: ('A' for Active; 'I' for Inactive)
REMARK    1  A    between atoms: C2_2  and  C3_3 
REMARK    2  A    between atoms: C2_2  and  C26_32 
REMARK    3  A    between atoms: C3_3  and  C4_4 
REMARK    4  A    between atoms: C4_4  and  C5_5 
REMARK    5  A    between atoms: C5_5  and  C6_6 
REMARK    6  A    between atoms: C6_6  and  C8_8 
REMARK    7  A    between atoms: C11_11  and  C12_12 
REMARK    8  A    between atoms: C15_15  and  O1_16 
REMARK    9  A    between atoms: C20_22  and  O2_23 
REMARK   10  A    between atoms: C24_28  and  C25_29 
REMARK   11  A    between atoms: C25_29  and  O3_30 
ROOT
HETATM    1  C8  UNL     1       5.282  -2.955  18.803  1.00  0.00     0.000 C 
HETATM    2  C9  UNL     1       6.653  -3.058  18.281  1.00  0.00     0.006 C 
HETATM    3  C10 UNL     1       7.305  -1.680  18.474  1.00  0.00     0.006 C 
HETATM    4  C11 UNL     1       6.953  -1.141  19.834  1.00  0.00    -0.005 C 
HETATM    5  C18 UNL     1       6.459  -2.179  20.822  1.00  0.00     0.008 C 
HETATM    6  C19 UNL     1       6.248  -1.551  22.145  1.00  0.00     0.026 A 
HETATM    7  C20 UNL     1       5.315  -0.401  22.370  1.00  0.00     0.127 A 
HETATM    8  C21 UNL     1       5.042  -1.734  22.897  1.00  0.00     0.022 A 
HETATM    9  C22 UNL     1       3.914  -2.490  22.303  1.00  0.00     0.008 C 
HETATM   10  C23 UNL     1       3.988  -2.713  20.836  1.00  0.00     0.013 C 
HETATM   11  C24 UNL     1       5.360  -3.072  20.311  1.00  0.00    -0.011 C 
ENDROOT
BRANCH   1  12
HETATM   12  C6  UNL     1       4.168  -3.555  18.087  1.00  0.00    -0.014 C 
HETATM   13  C7  UNL     1       4.585  -4.851  17.331  1.00  0.00     0.010 C 
BRANCH  12  14
HETATM   14  C5  UNL     1       3.485  -2.651  17.116  1.00  0.00     0.005 C 
BRANCH  14  15
HETATM   15  C4  UNL     1       3.773  -1.221  17.066  1.00  0.00     0.001 C 
BRANCH  15  16
HETATM   16  C3  UNL     1       4.816  -1.005  15.939  1.00  0.00     0.015 C 
BRANCH  16  17
HETATM   17  C2  UNL     1       5.555   0.273  16.079  1.00  0.00     0.083 C 
HETATM   18  C1  UNL     1       4.683   1.414  15.512  1.00  0.00     0.021 C 
BRANCH  17  19
HETATM   19  C26 UNL     1       6.810   0.351  15.295  1.00  0.00     0.176 C 
HETATM   20  O4  UNL     1       7.131  -0.519  14.483  1.00  0.00    -0.648 OA
HETATM   21  O5  UNL     1       7.605   1.489  15.545  1.00  0.00    -0.648 OA
ENDBRANCH  17  19
ENDBRANCH  16  17
ENDBRANCH  15  16
ENDBRANCH  14  15
ENDBRANCH  12  14
ENDBRANCH   1  12
BRANCH  11  22
HETATM   22  C25 UNL     1       5.597  -4.509  20.705  1.00  0.00     0.174 C 
BRANCH  22  23
HETATM   23  O3  UNL     1       4.360  -5.192  20.866  1.00  0.00    -0.400 OA
ATOM     24  H3  UNL     1       4.504  -6.063  21.217  1.00  0.00     0.209 HD
ENDBRANCH  22  23
ENDBRANCH  11  22
BRANCH   4  25
HETATM   25  C12 UNL     1       8.089  -0.395  20.435  1.00  0.00    -0.004 C 
HETATM   26  C13 UNL     1       9.420  -0.574  19.807  1.00  0.00     0.008 C 
HETATM   27  C14 UNL     1      10.267   0.465  20.555  1.00  0.00     0.032 C 
HETATM   28  C15 UNL     1       9.277   1.384  21.264  1.00  0.00     0.122 C 
HETATM   29  C16 UNL     1       7.949   1.076  20.539  1.00  0.00     0.015 C 
HETATM   30  C17 UNL     1       7.993   1.868  19.285  1.00  0.00     0.013 C 
BRANCH  28  31
HETATM   31  O1  UNL     1       9.605   2.706  21.103  1.00  0.00    -0.395 OA
ATOM     32  H1  UNL     1       9.042   3.274  21.616  1.00  0.00     0.210 HD
ENDBRANCH  28  31
ENDBRANCH   4  25
BRANCH   7  33
HETATM   33  O2  UNL     1       4.475   0.082  21.391  1.00  0.00    -0.395 OA
ATOM     34  H2  UNL     1       4.234   0.999  21.325  1.00  0.00     0.210 HD
ENDBRANCH   7  33
TORSDOF 11
ENDMDL
