MODEL 1
REMARK VINA RESULT: -8.229417708      0.000      0.000
REMARK  12 active torsions:
REMARK  status: ('A' for Active; 'I' for Inactive)
REMARK    1  A    between atoms: C2_3  and  O1_4 
REMARK    2  A    between atoms: C3_6  and  S1_7 
REMARK    3  A    between atoms: S1_7  and  C4_8 
REMARK    4  A    between atoms: C4_8  and  C5_9 
REMARK    5  A    between atoms: C5_9  and  O2_10 
REMARK    6  A    between atoms: C5_9  and  C6_12 
REMARK    7  A    between atoms: C6_12  and  N2_13 
REMARK    8  A    between atoms: C8_18  and  N4_19 
REMARK    9  A    between atoms: N6_26  and  S2_27 
REMARK   10  A    between atoms: S2_27  and  C10_30 
REMARK   11  A    between atoms: C14_34  and  N7_35 
REMARK   12  A    between atoms: N7_35  and  O7_37 
ROOT
HETATM    1  C1  UNL     1      35.409  -1.901  12.175  1.00  0.00     0.161 C 
HETATM    2  N1  UNL     1      34.500  -0.924  12.736  1.00  0.00    -0.306 N 
HETATM    3  C2  UNL     1      33.321  -1.189  13.364  1.00  0.00     0.179 A 
HETATM    4  C3  UNL     1      32.747  -0.003  13.756  1.00  0.00     0.141 A 
HETATM    5  N6  UNL     1      33.611   0.966  13.348  1.00  0.00    -0.200 N 
HETATM    6  C16 UNL     1      34.667   0.400  12.733  1.00  0.00     0.197 A 
HETATM    7  S3  UNL     1      35.965   1.169  12.073  1.00  0.00    -0.039 SA
ENDROOT
BRANCH   4   8
HETATM    8  S1  UNL     1      31.187   0.230  14.576  1.00  0.00    -0.104 SA
BRANCH   8   9
HETATM    9  C4  UNL     1      31.058  -0.597  16.138  1.00  0.00     0.114 C 
BRANCH   9  10
HETATM   10  C5  UNL     1      31.558   0.182  17.329  1.00  0.00     0.146 C 
BRANCH  10  11
HETATM   11  O2  UNL     1      32.826   0.675  16.940  1.00  0.00    -0.393 OA
ATOM     12  H2  UNL     1      33.454   0.116  17.381  1.00  0.00     0.210 HD
ENDBRANCH  10  11
BRANCH  10  13
HETATM   13  C6  UNL     1      30.713   1.436  17.539  1.00  0.00     0.171 C 
BRANCH  13  14
HETATM   14  N2  UNL     1      29.710   1.252  18.561  1.00  0.00    -0.248 N 
HETATM   15  C7  UNL     1      28.414   0.973  18.217  1.00  0.00     0.344 A 
HETATM   16  O3  UNL     1      28.141   0.880  17.007  1.00  0.00    -0.246 OA
HETATM   17  N3  UNL     1      27.442   0.800  19.125  1.00  0.00    -0.141 N 
HETATM   18  C8  UNL     1      27.723   0.898  20.441  1.00  0.00     0.683 A 
ATOM     19  H3  UNL     1      26.491   0.595  18.821  1.00  0.00     0.189 HD
HETATM   20  N5  UNL     1      28.990   1.171  20.787  1.00  0.00    -0.141 N 
HETATM   21  C9  UNL     1      29.971   1.346  19.875  1.00  0.00     0.344 A 
ATOM     22  H5  UNL     1      29.221   1.250  21.778  1.00  0.00     0.189 HD
HETATM   23  O4  UNL     1      31.160   1.605  20.247  1.00  0.00    -0.246 OA
BRANCH  18  24
HETATM   24  N4  UNL     1      26.779   0.730  21.326  1.00  0.00    -0.234 N 
ATOM     25  H42 UNL     1      26.321   1.514  21.790  1.00  0.00     0.174 HD
ATOM     26  H41 UNL     1      26.474  -0.210  21.576  1.00  0.00     0.174 HD
ENDBRANCH  18  24
ENDBRANCH  13  14
ENDBRANCH  10  13
ENDBRANCH   9  10
ENDBRANCH   8   9
ENDBRANCH   4   8
BRANCH   3  27
HETATM   27  O1  UNL     1      32.831  -2.479  13.553  1.00  0.00    -0.344 OA
ATOM     28  H1  UNL     1      32.336  -2.741  14.320  1.00  0.00     0.219 HD
ENDBRANCH   3  27
BRANCH   5  29
HETATM   29  S2  UNL     1      33.394   2.639  13.580  1.00  0.00     0.272 S 
HETATM   30  O5  UNL     1      32.795   2.878  14.955  1.00  0.00    -0.200 OA
HETATM   31  O6  UNL     1      34.755   3.294  13.511  1.00  0.00    -0.200 OA
BRANCH  29  32
HETATM   32  C10 UNL     1      32.393   3.389  12.362  1.00  0.00     0.082 A 
HETATM   33  C11 UNL     1      33.011   3.751  11.160  1.00  0.00     0.025 A 
HETATM   34  C12 UNL     1      32.260   4.329  10.163  1.00  0.00     0.004 A 
HETATM   35  C13 UNL     1      30.909   4.544  10.364  1.00  0.00     0.031 A 
HETATM   36  C14 UNL     1      30.290   4.192  11.542  1.00  0.00     0.055 A 
HETATM   37  C15 UNL     1      31.043   3.614  12.539  1.00  0.00     0.056 A 
BRANCH  36  38
HETATM   38  N7  UNL     1      28.888   4.437  11.695  1.00  0.00    -0.269 N 
ATOM     39  H7  UNL     1      28.264   4.250  10.910  1.00  0.00     0.194 HD
BRANCH  38  40
HETATM   40  O7  UNL     1      28.368   4.908  12.851  1.00  0.00    -0.289 OA
ATOM     41  H7  UNL     1      28.657   5.729  13.233  1.00  0.00     0.244 HD
ENDBRANCH  38  40
ENDBRANCH  36  38
ENDBRANCH  29  32
ENDBRANCH   5  29
TORSDOF 12
ENDMDL
MODEL 2
REMARK VINA RESULT: -8.228477067      2.854      3.842
REMARK  12 active torsions:
REMARK  status: ('A' for Active; 'I' for Inactive)
REMARK    1  A    between atoms: C2_3  and  O1_4 
REMARK    2  A    between atoms: C3_6  and  S1_7 
REMARK    3  A    between atoms: S1_7  and  C4_8 
REMARK    4  A    between atoms: C4_8  and  C5_9 
REMARK    5  A    between atoms: C5_9  and  O2_10 
REMARK    6  A    between atoms: C5_9  and  C6_12 
REMARK    7  A    between atoms: C6_12  and  N2_13 
REMARK    8  A    between atoms: C8_18  and  N4_19 
REMARK    9  A    between atoms: N6_26  and  S2_27 
REMARK   10  A    between atoms: S2_27  and  C10_30 
REMARK   11  A    between atoms: C14_34  and  N7_35 
REMARK   12  A    between atoms: N7_35  and  O7_37 
ROOT
HETATM    1  C1  UNL     1      33.710  -3.592  13.061  1.00  0.00     0.161 C 
HETATM    2  N1  UNL     1      33.179  -2.776  14.133  1.00  0.00    -0.306 N 
HETATM    3  C2  UNL     1      32.821  -3.209  15.372  1.00  0.00     0.179 A 
HETATM    4  C3  UNL     1      32.363  -2.140  16.105  1.00  0.00     0.141 A 
HETATM    5  N6  UNL     1      32.461  -1.068  15.274  1.00  0.00    -0.200 N 
HETATM    6  C16 UNL     1      32.954  -1.461  14.084  1.00  0.00     0.197 A 
HETATM    7  S3  UNL     1      33.247  -0.519  12.765  1.00  0.00    -0.039 SA
ENDROOT
BRANCH   4   8
HETATM    8  S1  UNL     1      31.732  -2.153  17.767  1.00  0.00    -0.104 SA
BRANCH   8   9
HETATM    9  C4  UNL     1      30.126  -2.884  17.927  1.00  0.00     0.114 C 
BRANCH   9  10
HETATM   10  C5  UNL     1      28.966  -1.922  17.882  1.00  0.00     0.146 C 
BRANCH  10  11
HETATM   11  O2  UNL     1      27.876  -2.682  17.394  1.00  0.00    -0.393 OA
ATOM     12  H2  UNL     1      28.015  -2.738  16.456  1.00  0.00     0.210 HD
ENDBRANCH  10  11
BRANCH  10  13
HETATM   13  C6  UNL     1      28.547  -1.522  19.294  1.00  0.00     0.171 C 
BRANCH  13  14
HETATM   14  N2  UNL     1      29.181  -0.300  19.726  1.00  0.00    -0.248 N 
HETATM   15  C7  UNL     1      30.219  -0.335  20.617  1.00  0.00     0.344 A 
HETATM   16  O3  UNL     1      30.593  -1.448  21.030  1.00  0.00    -0.246 OA
HETATM   17  N3  UNL     1      30.838   0.770  21.057  1.00  0.00    -0.141 N 
HETATM   18  C8  UNL     1      30.445   1.984  20.618  1.00  0.00     0.683 A 
ATOM     19  H3  UNL     1      31.607   0.693  21.723  1.00  0.00     0.189 HD
HETATM   20  N5  UNL     1      29.428   2.029  19.744  1.00  0.00    -0.141 N 
HETATM   21  C9  UNL     1      28.802   0.917  19.300  1.00  0.00     0.344 A 
ATOM     22  H5  UNL     1      29.116   2.937  19.401  1.00  0.00     0.189 HD
HETATM   23  O4  UNL     1      27.841   1.004  18.471  1.00  0.00    -0.246 OA
BRANCH  18  24
HETATM   24  N4  UNL     1      31.046   3.060  21.043  1.00  0.00    -0.234 N 
ATOM     25  H42 UNL     1      31.878   3.435  20.588  1.00  0.00     0.174 HD
ATOM     26  H41 UNL     1      30.688   3.560  21.857  1.00  0.00     0.174 HD
ENDBRANCH  18  24
ENDBRANCH  13  14
ENDBRANCH  10  13
ENDBRANCH   9  10
ENDBRANCH   8   9
ENDBRANCH   4   8
BRANCH   3  27
HETATM   27  O1  UNL     1      32.928  -4.539  15.776  1.00  0.00    -0.344 OA
ATOM     28  H1  UNL     1      32.798  -4.822  16.673  1.00  0.00     0.219 HD
ENDBRANCH   3  27
BRANCH   5  29
HETATM   29  S2  UNL     1      32.027   0.530  15.673  1.00  0.00     0.272 S 
HETATM   30  O5  UNL     1      31.985   0.672  17.185  1.00  0.00    -0.200 OA
HETATM   31  O6  UNL     1      33.091   1.449  15.118  1.00  0.00    -0.200 OA
BRANCH  29  32
HETATM   32  C10 UNL     1      30.499   1.030  14.991  1.00  0.00     0.082 A 
HETATM   33  C11 UNL     1      30.543   1.847  13.856  1.00  0.00     0.025 A 
HETATM   34  C12 UNL     1      29.365   2.253  13.272  1.00  0.00     0.004 A 
HETATM   35  C13 UNL     1      28.159   1.849  13.815  1.00  0.00     0.031 A 
HETATM   36  C14 UNL     1      28.105   1.047  14.933  1.00  0.00     0.055 A 
HETATM   37  C15 UNL     1      29.284   0.641  15.516  1.00  0.00     0.056 A 
BRANCH  36  38
HETATM   38  N7  UNL     1      26.829   0.659  15.452  1.00  0.00    -0.269 N 
ATOM     39  H7  UNL     1      26.484  -0.284  15.266  1.00  0.00     0.194 HD
BRANCH  38  40
HETATM   40  O7  UNL     1      26.068   1.505  16.181  1.00  0.00    -0.289 OA
ATOM     41  H7  UNL     1      25.306   1.938  15.814  1.00  0.00     0.244 HD
ENDBRANCH  38  40
ENDBRANCH  36  38
ENDBRANCH  29  32
ENDBRANCH   5  29
TORSDOF 12
ENDMDL
MODEL 3
REMARK VINA RESULT: -8.171019206      3.432      7.117
REMARK  12 active torsions:
REMARK  status: ('A' for Active; 'I' for Inactive)
REMARK    1  A    between atoms: C2_3  and  O1_4 
REMARK    2  A    between atoms: C3_6  and  S1_7 
REMARK    3  A    between atoms: S1_7  and  C4_8 
REMARK    4  A    between atoms: C4_8  and  C5_9 
REMARK    5  A    between atoms: C5_9  and  O2_10 
REMARK    6  A    between atoms: C5_9  and  C6_12 
REMARK    7  A    between atoms: C6_12  and  N2_13 
REMARK    8  A    between atoms: C8_18  and  N4_19 
REMARK    9  A    between atoms: N6_26  and  S2_27 
REMARK   10  A    between atoms: S2_27  and  C10_30 
REMARK   11  A    between atoms: C14_34  and  N7_35 
REMARK   12  A    between atoms: N7_35  and  O7_37 
ROOT
HETATM    1  C1  UNL     1      30.224  -5.330  15.905  1.00  0.00     0.161 C 
HETATM    2  N1  UNL     1      30.647  -3.986  15.573  1.00  0.00    -0.306 N 
HETATM    3  C2  UNL     1      31.447  -3.630  14.531  1.00  0.00     0.179 A 
HETATM    4  C3  UNL     1      31.621  -2.266  14.546  1.00  0.00     0.141 A 
HETATM    5  N6  UNL     1      30.907  -1.826  15.618  1.00  0.00    -0.200 N 
HETATM    6  C16 UNL     1      30.322  -2.873  16.232  1.00  0.00     0.197 A 
HETATM    7  S3  UNL     1      29.363  -2.834  17.570  1.00  0.00    -0.039 SA
ENDROOT
BRANCH   4   8
HETATM    8  S1  UNL     1      32.606  -1.284  13.439  1.00  0.00    -0.104 SA
BRANCH   8   9
HETATM    9  C4  UNL     1      34.273  -1.030  13.982  1.00  0.00     0.114 C 
BRANCH   9  10
HETATM   10  C5  UNL     1      35.130  -0.183  13.074  1.00  0.00     0.146 C 
BRANCH  10  11
HETATM   11  O2  UNL     1      35.545  -1.056  12.040  1.00  0.00    -0.393 OA
ATOM     12  H2  UNL     1      35.147  -0.710  11.250  1.00  0.00     0.210 HD
ENDBRANCH  10  11
BRANCH  10  13
HETATM   13  C6  UNL     1      34.280   0.867  12.363  1.00  0.00     0.171 C 
BRANCH  13  14
HETATM   14  N2  UNL     1      35.007   2.092  12.134  1.00  0.00    -0.248 N 
HETATM   15  C7  UNL     1      35.923   2.174  11.120  1.00  0.00     0.344 A 
HETATM   16  O3  UNL     1      36.097   1.167  10.410  1.00  0.00    -0.246 OA
HETATM   17  N3  UNL     1      36.631   3.285  10.868  1.00  0.00    -0.141 N 
HETATM   18  C8  UNL     1      36.454   4.386  11.628  1.00  0.00     0.683 A 
ATOM     19  H3  UNL     1      37.303   3.298  10.101  1.00  0.00     0.189 HD
HETATM   20  N5  UNL     1      35.559   4.314  12.624  1.00  0.00    -0.141 N 
HETATM   21  C9  UNL     1      34.844   3.197  12.881  1.00  0.00     0.344 A 
ATOM     22  H5  UNL     1      35.411   5.136  13.211  1.00  0.00     0.189 HD
HETATM   23  O4  UNL     1      34.005   3.171  13.837  1.00  0.00    -0.246 OA
BRANCH  18  24
HETATM   24  N4  UNL     1      37.141   5.467  11.384  1.00  0.00    -0.234 N 
ATOM     25  H42 UNL     1      38.153   5.506  11.496  1.00  0.00     0.174 HD
ATOM     26  H41 UNL     1      36.668   6.314  11.069  1.00  0.00     0.174 HD
ENDBRANCH  18  24
ENDBRANCH  13  14
ENDBRANCH  10  13
ENDBRANCH   9  10
ENDBRANCH   8   9
ENDBRANCH   4   8
BRANCH   3  27
HETATM   27  O1  UNL     1      31.971  -4.547  13.622  1.00  0.00    -0.344 OA
ATOM     28  H1  UNL     1      32.714  -4.358  13.062  1.00  0.00     0.219 HD
ENDBRANCH   3  27
BRANCH   5  29
HETATM   29  S2  UNL     1      30.771  -0.201  16.109  1.00  0.00     0.272 S 
HETATM   30  O5  UNL     1      29.912  -0.130  17.360  1.00  0.00    -0.200 OA
HETATM   31  O6  UNL     1      32.159   0.301  16.430  1.00  0.00    -0.200 OA
BRANCH  29  32
HETATM   32  C10 UNL     1      30.109   0.847  14.880  1.00  0.00     0.082 A 
HETATM   33  C11 UNL     1      28.756   0.684  14.561  1.00  0.00     0.025 A 
HETATM   34  C12 UNL     1      28.185   1.497  13.610  1.00  0.00     0.004 A 
HETATM   35  C13 UNL     1      28.954   2.462  12.986  1.00  0.00     0.031 A 
HETATM   36  C14 UNL     1      30.285   2.631  13.291  1.00  0.00     0.055 A 
HETATM   37  C15 UNL     1      30.856   1.816  14.242  1.00  0.00     0.056 A 
BRANCH  36  38
HETATM   38  N7  UNL     1      31.034   3.646  12.614  1.00  0.00    -0.269 N 
ATOM     39  H7  UNL     1      31.972   3.427  12.276  1.00  0.00     0.194 HD
BRANCH  38  40
HETATM   40  O7  UNL     1      30.534   4.885  12.411  1.00  0.00    -0.289 OA
ATOM     41  H7  UNL     1      31.097   5.644  12.313  1.00  0.00     0.244 HD
ENDBRANCH  38  40
ENDBRANCH  36  38
ENDBRANCH  29  32
ENDBRANCH   5  29
TORSDOF 12
ENDMDL
MODEL 4
REMARK VINA RESULT: -8.170319259      2.344      3.003
REMARK  12 active torsions:
REMARK  status: ('A' for Active; 'I' for Inactive)
REMARK    1  A    between atoms: C2_3  and  O1_4 
REMARK    2  A    between atoms: C3_6  and  S1_7 
REMARK    3  A    between atoms: S1_7  and  C4_8 
REMARK    4  A    between atoms: C4_8  and  C5_9 
REMARK    5  A    between atoms: C5_9  and  O2_10 
REMARK    6  A    between atoms: C5_9  and  C6_12 
REMARK    7  A    between atoms: C6_12  and  N2_13 
REMARK    8  A    between atoms: C8_18  and  N4_19 
REMARK    9  A    between atoms: N6_26  and  S2_27 
REMARK   10  A    between atoms: S2_27  and  C10_30 
REMARK   11  A    between atoms: C14_34  and  N7_35 
REMARK   12  A    between atoms: N7_35  and  O7_37 
ROOT
HETATM    1  C1  UNL     1      35.633  -1.716  12.103  1.00  0.00     0.161 C 
HETATM    2  N1  UNL     1      34.797  -0.794  12.841  1.00  0.00    -0.306 N 
HETATM    3  C2  UNL     1      33.889  -1.123  13.801  1.00  0.00     0.179 A 
HETATM    4  C3  UNL     1      33.295   0.026  14.268  1.00  0.00     0.141 A 
HETATM    5  N6  UNL     1      33.871   1.038  13.565  1.00  0.00    -0.200 N 
HETATM    6  C16 UNL     1      34.777   0.534  12.705  1.00  0.00     0.197 A 
HETATM    7  S3  UNL     1      35.722   1.371  11.648  1.00  0.00    -0.039 SA
ENDROOT
BRANCH   4   8
HETATM    8  S1  UNL     1      32.012   0.166  15.491  1.00  0.00    -0.104 SA
BRANCH   8   9
HETATM    9  C4  UNL     1      30.767  -1.089  15.383  1.00  0.00     0.114 C 
BRANCH   9  10
HETATM   10  C5  UNL     1      29.377  -0.661  15.784  1.00  0.00     0.146 C 
BRANCH  10  11
HETATM   11  O2  UNL     1      29.278  -0.975  17.161  1.00  0.00    -0.393 OA
ATOM     12  H2  UNL     1      28.633  -0.370  17.506  1.00  0.00     0.210 HD
ENDBRANCH  10  11
BRANCH  10  13
HETATM   13  C6  UNL     1      29.250   0.859  15.733  1.00  0.00     0.171 C 
BRANCH  13  14
HETATM   14  N2  UNL     1      27.921   1.283  15.361  1.00  0.00    -0.248 N 
HETATM   15  C7  UNL     1      27.605   1.498  14.047  1.00  0.00     0.344 A 
HETATM   16  O3  UNL     1      28.494   1.310  13.197  1.00  0.00    -0.246 OA
HETATM   17  N3  UNL     1      26.389   1.900  13.648  1.00  0.00    -0.141 N 
HETATM   18  C8  UNL     1      25.415   2.108  14.557  1.00  0.00     0.683 A 
ATOM     19  H3  UNL     1      26.201   2.047  12.657  1.00  0.00     0.189 HD
HETATM   20  N5  UNL     1      25.716   1.900  15.848  1.00  0.00    -0.141 N 
HETATM   21  C9  UNL     1      26.940   1.496  16.253  1.00  0.00     0.344 A 
ATOM     22  H5  UNL     1      24.992   2.053  16.551  1.00  0.00     0.189 HD
HETATM   23  O4  UNL     1      27.184   1.311  17.488  1.00  0.00    -0.246 OA
BRANCH  18  24
HETATM   24  N4  UNL     1      24.231   2.497  14.172  1.00  0.00    -0.234 N 
ATOM     25  H42 UNL     1      23.865   3.423  14.391  1.00  0.00     0.174 HD
ATOM     26  H41 UNL     1      23.637   1.869  13.632  1.00  0.00     0.174 HD
ENDBRANCH  18  24
ENDBRANCH  13  14
ENDBRANCH  10  13
ENDBRANCH   9  10
ENDBRANCH   8   9
ENDBRANCH   4   8
BRANCH   3  27
HETATM   27  O1  UNL     1      33.648  -2.434  14.206  1.00  0.00    -0.344 OA
ATOM     28  H1  UNL     1      33.057  -2.660  14.914  1.00  0.00     0.219 HD
ENDBRANCH   3  27
BRANCH   5  29
HETATM   29  S2  UNL     1      33.507   2.693  13.743  1.00  0.00     0.272 S 
HETATM   30  O5  UNL     1      32.845   2.914  15.092  1.00  0.00    -0.200 OA
HETATM   31  O6  UNL     1      34.809   3.459  13.697  1.00  0.00    -0.200 OA
BRANCH  29  32
HETATM   32  C10 UNL     1      32.486   3.323  12.475  1.00  0.00     0.082 A 
HETATM   33  C11 UNL     1      33.115   3.743  11.297  1.00  0.00     0.025 A 
HETATM   34  C12 UNL     1      32.351   4.232  10.263  1.00  0.00     0.004 A 
HETATM   35  C13 UNL     1      30.977   4.300  10.402  1.00  0.00     0.031 A 
HETATM   36  C14 UNL     1      30.348   3.891  11.556  1.00  0.00     0.055 A 
HETATM   37  C15 UNL     1      31.113   3.402  12.590  1.00  0.00     0.056 A 
BRANCH  36  38
HETATM   38  N7  UNL     1      28.922   3.983  11.645  1.00  0.00    -0.269 N 
ATOM     39  H7  UNL     1      28.357   3.720  10.837  1.00  0.00     0.194 HD
BRANCH  38  40
HETATM   40  O7  UNL     1      28.304   4.409  12.768  1.00  0.00    -0.289 OA
ATOM     41  H7  UNL     1      28.786   4.790  13.493  1.00  0.00     0.244 HD
ENDBRANCH  38  40
ENDBRANCH  36  38
ENDBRANCH  29  32
ENDBRANCH   5  29
TORSDOF 12
ENDMDL
MODEL 5
REMARK VINA RESULT: -8.140469727      3.687      6.290
REMARK  12 active torsions:
REMARK  status: ('A' for Active; 'I' for Inactive)
REMARK    1  A    between atoms: C2_3  and  O1_4 
REMARK    2  A    between atoms: C3_6  and  S1_7 
REMARK    3  A    between atoms: S1_7  and  C4_8 
REMARK    4  A    between atoms: C4_8  and  C5_9 
REMARK    5  A    between atoms: C5_9  and  O2_10 
REMARK    6  A    between atoms: C5_9  and  C6_12 
REMARK    7  A    between atoms: C6_12  and  N2_13 
REMARK    8  A    between atoms: C8_18  and  N4_19 
REMARK    9  A    between atoms: N6_26  and  S2_27 
REMARK   10  A    between atoms: S2_27  and  C10_30 
REMARK   11  A    between atoms: C14_34  and  N7_35 
REMARK   12  A    between atoms: N7_35  and  O7_37 
ROOT
HETATM    1  C1  UNL     1      35.186   3.633  12.127  1.00  0.00     0.161 C 
HETATM    2  N1  UNL     1      34.743   2.412  12.766  1.00  0.00    -0.306 N 
HETATM    3  C2  UNL     1      33.691   2.287  13.621  1.00  0.00     0.179 A 
HETATM    4  C3  UNL     1      33.587   0.975  14.015  1.00  0.00     0.141 A 
HETATM    5  N6  UNL     1      34.598   0.327  13.375  1.00  0.00    -0.200 N 
HETATM    6  C16 UNL     1      35.291   1.204  12.622  1.00  0.00     0.197 A 
HETATM    7  S3  UNL     1      36.598   0.886  11.672  1.00  0.00    -0.039 SA
ENDROOT
BRANCH   4   8
HETATM    8  S1  UNL     1      32.418   0.271  15.155  1.00  0.00    -0.104 SA
BRANCH   8   9
HETATM    9  C4  UNL     1      30.846  -0.115  14.435  1.00  0.00     0.114 C 
BRANCH   9  10
HETATM   10  C5  UNL     1      29.779   0.939  14.602  1.00  0.00     0.146 C 
BRANCH  10  11
HETATM   11  O2  UNL     1      30.485   2.141  14.849  1.00  0.00    -0.393 OA
ATOM     12  H2  UNL     1      30.555   2.564  14.002  1.00  0.00     0.210 HD
ENDBRANCH  10  11
BRANCH  10  13
HETATM   13  C6  UNL     1      29.061   1.187  13.278  1.00  0.00     0.171 C 
BRANCH  13  14
HETATM   14  N2  UNL     1      28.661   2.565  13.125  1.00  0.00    -0.248 N 
HETATM   15  C7  UNL     1      27.411   2.970  13.507  1.00  0.00     0.344 A 
HETATM   16  O3  UNL     1      26.646   2.116  13.990  1.00  0.00    -0.246 OA
HETATM   17  N3  UNL     1      26.986   4.236  13.379  1.00  0.00    -0.141 N 
HETATM   18  C8  UNL     1      27.804   5.173  12.857  1.00  0.00     0.683 A 
ATOM     19  H3  UNL     1      26.045   4.490  13.678  1.00  0.00     0.189 HD
HETATM   20  N5  UNL     1      29.032   4.786  12.480  1.00  0.00    -0.141 N 
HETATM   21  C9  UNL     1      29.462   3.511  12.606  1.00  0.00     0.344 A 
ATOM     22  H5  UNL     1      29.665   5.480  12.082  1.00  0.00     0.189 HD
HETATM   23  O4  UNL     1      30.635   3.185  12.235  1.00  0.00    -0.246 OA
BRANCH  18  24
HETATM   24  N4  UNL     1      27.394   6.405  12.733  1.00  0.00    -0.234 N 
ATOM     25  H42 UNL     1      26.410   6.641  12.609  1.00  0.00     0.174 HD
ATOM     26  H41 UNL     1      28.064   7.173  12.760  1.00  0.00     0.174 HD
ENDBRANCH  18  24
ENDBRANCH  13  14
ENDBRANCH  10  13
ENDBRANCH   9  10
ENDBRANCH   8   9
ENDBRANCH   4   8
BRANCH   3  27
HETATM   27  O1  UNL     1      32.882   3.358  13.995  1.00  0.00    -0.344 OA
ATOM     28  H1  UNL     1      31.950   3.393  13.816  1.00  0.00     0.219 HD
ENDBRANCH   3  27
BRANCH   5  29
HETATM   29  S2  UNL     1      34.937  -1.337  13.501  1.00  0.00     0.272 S 
HETATM   30  O5  UNL     1      35.978  -1.713  12.461  1.00  0.00    -0.200 OA
HETATM   31  O6  UNL     1      35.500  -1.589  14.881  1.00  0.00    -0.200 OA
BRANCH  29  32
HETATM   32  C10 UNL     1      33.528  -2.352  13.319  1.00  0.00     0.082 A 
HETATM   33  C11 UNL     1      32.846  -2.287  12.099  1.00  0.00     0.025 A 
HETATM   34  C12 UNL     1      31.740  -3.081  11.902  1.00  0.00     0.004 A 
HETATM   35  C13 UNL     1      31.320  -3.929  12.910  1.00  0.00     0.031 A 
HETATM   36  C14 UNL     1      31.983  -4.000  14.114  1.00  0.00     0.055 A 
HETATM   37  C15 UNL     1      33.090  -3.206  14.310  1.00  0.00     0.056 A 
BRANCH  36  38
HETATM   38  N7  UNL     1      31.504  -4.897  15.122  1.00  0.00    -0.269 N 
ATOM     39  H7  UNL     1      30.565  -5.285  15.035  1.00  0.00     0.194 HD
BRANCH  38  40
HETATM   40  O7  UNL     1      32.262  -5.244  16.187  1.00  0.00    -0.289 OA
ATOM     41  H7  UNL     1      32.261  -4.737  16.990  1.00  0.00     0.244 HD
ENDBRANCH  38  40
ENDBRANCH  36  38
ENDBRANCH  29  32
ENDBRANCH   5  29
TORSDOF 12
ENDMDL
