MODEL 1
REMARK VINA RESULT: -8.883467703      0.000      0.000
REMARK  5 active torsions:
REMARK  status: ('A' for Active; 'I' for Inactive)
REMARK    1  A    between atoms: C2_2  and  C3_3 
REMARK       I    between atoms: C3_3  and  N1_5 
REMARK    2  A    between atoms: N1_5  and  C4_7 
REMARK    3  A    between atoms: C9_15  and  C10_16 
REMARK    4  A    between atoms: C10_16  and  N3_17 
REMARK       I    between atoms: N3_17  and  C11_18 
REMARK       I    between atoms: C11_18  and  N4_20 
REMARK    5  A    between atoms: N4_20  and  N5_22 
ROOT
HETATM    1  C4  UNL     1     -34.341  -9.610  75.333  1.00  0.00     0.092 C 
HETATM    2  C5  UNL     1     -34.768 -11.021  75.261  1.00  0.00     0.026 C 
HETATM    3  C6  UNL     1     -36.034 -11.243  74.530  1.00  0.00     0.004 C 
HETATM    4  C7  UNL     1     -37.130 -10.287  74.907  1.00  0.00     0.034 C 
HETATM    5  C8  UNL     1     -36.746  -9.264  75.887  1.00  0.00     0.195 C 
HETATM    6  N2  UNL     1     -37.223  -7.913  75.513  1.00  0.00    -0.060 N 
ATOM      7  H21 UNL     1     -37.648  -7.299  76.208  1.00  0.00     0.278 HD
ATOM      8  H22 UNL     1     -38.050  -7.795  74.927  1.00  0.00     0.278 HD
HETATM    9  C9  UNL     1     -35.927  -7.643  75.003  1.00  0.00     0.246 C 
HETATM   10  C12 UNL     1     -35.395  -8.732  75.877  1.00  0.00     0.076 C 
ENDROOT
BRANCH   9  11
HETATM   11  C10 UNL     1     -35.731  -7.644  73.550  1.00  0.00     0.194 C 
BRANCH  11  12
HETATM   12  N3  UNL     1     -34.831  -6.703  73.058  1.00  0.00    -0.366 NA
HETATM   13  C11 UNL     1     -33.955  -5.780  72.579  1.00  0.00     0.412 C 
HETATM   14  O2  UNL     1     -33.937  -4.511  72.744  1.00  0.00    -0.228 OA
HETATM   15  N4  UNL     1     -32.836  -6.208  71.743  1.00  0.00    -0.225 N 
ATOM     16  H4  UNL     1     -32.732  -7.200  71.529  1.00  0.00     0.194 HD
BRANCH  15  17
HETATM   17  N5  UNL     1     -31.907  -5.309  71.226  1.00  0.00    -0.245 N 
HETATM   18  N6  UNL     1     -30.677  -5.580  71.174  1.00  0.00    -0.331 N 
ATOM     19  H62 UNL     1     -30.371  -6.488  71.523  1.00  0.00     0.178 HD
ATOM     20  H61 UNL     1     -29.996  -4.922  70.795  1.00  0.00     0.178 HD
ATOM     21  H5  UNL     1     -32.231  -4.406  70.882  1.00  0.00     0.208 HD
ENDBRANCH  15  17
ENDBRANCH  11  12
ENDBRANCH   9  11
BRANCH   1  22
HETATM   22  N1  UNL     1     -33.175  -9.506  76.260  1.00  0.00    -0.356 N 
HETATM   23  C3  UNL     1     -31.879  -9.826  75.811  1.00  0.00     0.217 C 
HETATM   24  O1  UNL     1     -31.647 -10.201  74.638  1.00  0.00    -0.274 OA
ATOM     25  H1  UNL     1     -33.318  -9.201  77.223  1.00  0.00     0.162 HD
BRANCH  23  26
HETATM   26  C2  UNL     1     -30.745  -9.711  76.754  1.00  0.00     0.098 C 
HETATM   27  C1  UNL     1     -31.143  -9.111  78.070  1.00  0.00     0.014 C 
ENDBRANCH  23  26
ENDBRANCH   1  22
TORSDOF 5
ENDMDL
MODEL 2
REMARK VINA RESULT: -8.826960742      9.941     11.445
REMARK  5 active torsions:
REMARK  status: ('A' for Active; 'I' for Inactive)
REMARK    1  A    between atoms: C2_2  and  C3_3 
REMARK       I    between atoms: C3_3  and  N1_5 
REMARK    2  A    between atoms: N1_5  and  C4_7 
REMARK    3  A    between atoms: C9_15  and  C10_16 
REMARK    4  A    between atoms: C10_16  and  N3_17 
REMARK       I    between atoms: N3_17  and  C11_18 
REMARK       I    between atoms: C11_18  and  N4_20 
REMARK    5  A    between atoms: N4_20  and  N5_22 
ROOT
HETATM    1  C4  UNL     1     -27.865 -13.535  68.588  1.00  0.00     0.092 C 
HETATM    2  C5  UNL     1     -27.002 -14.727  68.468  1.00  0.00     0.026 C 
HETATM    3  C6  UNL     1     -26.034 -14.673  67.351  1.00  0.00     0.004 C 
HETATM    4  C7  UNL     1     -26.630 -14.210  66.051  1.00  0.00     0.034 C 
HETATM    5  C8  UNL     1     -28.047 -13.836  66.122  1.00  0.00     0.195 C 
HETATM    6  N2  UNL     1     -28.334 -12.566  65.417  1.00  0.00    -0.060 N 
ATOM      7  H21 UNL     1     -29.149 -12.479  64.810  1.00  0.00     0.278 HD
ATOM      8  H22 UNL     1     -27.745 -12.253  64.644  1.00  0.00     0.278 HD
HETATM    9  C9  UNL     1     -28.292 -11.909  66.674  1.00  0.00     0.246 C 
HETATM   10  C12 UNL     1     -28.569 -13.223  67.329  1.00  0.00     0.076 C 
ENDROOT
BRANCH   9  11
HETATM   11  C10 UNL     1     -27.111 -11.106  67.005  1.00  0.00     0.194 C 
BRANCH  11  12
HETATM   12  N3  UNL     1     -26.105 -11.080  66.044  1.00  0.00    -0.366 NA
HETATM   13  C11 UNL     1     -25.124 -11.059  65.102  1.00  0.00     0.412 C 
HETATM   14  O2  UNL     1     -25.003 -11.758  64.037  1.00  0.00    -0.228 OA
HETATM   15  N4  UNL     1     -24.001 -10.136  65.246  1.00  0.00    -0.225 N 
ATOM     16  H4  UNL     1     -23.971  -9.519  66.057  1.00  0.00     0.194 HD
BRANCH  15  17
HETATM   17  N5  UNL     1     -22.970 -10.069  64.313  1.00  0.00    -0.245 N 
HETATM   18  N6  UNL     1     -22.014 -10.890  64.317  1.00  0.00    -0.331 N 
ATOM     19  H62 UNL     1     -22.011 -11.619  65.031  1.00  0.00     0.178 HD
ATOM     20  H61 UNL     1     -21.259 -10.842  63.634  1.00  0.00     0.178 HD
ATOM     21  H5  UNL     1     -22.989  -9.334  63.606  1.00  0.00     0.208 HD
ENDBRANCH  15  17
ENDBRANCH  11  12
ENDBRANCH   9  11
BRANCH   1  22
HETATM   22  N1  UNL     1     -28.918 -13.804  69.613  1.00  0.00    -0.356 N 
HETATM   23  C3  UNL     1     -28.574 -13.904  70.975  1.00  0.00     0.217 C 
HETATM   24  O1  UNL     1     -27.398 -13.772  71.384  1.00  0.00    -0.274 OA
ATOM     25  H1  UNL     1     -29.890 -13.916  69.325  1.00  0.00     0.162 HD
BRANCH  23  26
HETATM   26  C2  UNL     1     -29.641 -14.170  71.966  1.00  0.00     0.098 C 
HETATM   27  C1  UNL     1     -29.129 -14.193  73.376  1.00  0.00     0.014 C 
ENDBRANCH  23  26
ENDBRANCH   1  22
TORSDOF 5
ENDMDL
MODEL 3
REMARK VINA RESULT: -8.208259385      5.831      8.062
REMARK  5 active torsions:
REMARK  status: ('A' for Active; 'I' for Inactive)
REMARK    1  A    between atoms: C2_2  and  C3_3 
REMARK       I    between atoms: C3_3  and  N1_5 
REMARK    2  A    between atoms: N1_5  and  C4_7 
REMARK    3  A    between atoms: C9_15  and  C10_16 
REMARK    4  A    between atoms: C10_16  and  N3_17 
REMARK       I    between atoms: N3_17  and  C11_18 
REMARK       I    between atoms: C11_18  and  N4_20 
REMARK    5  A    between atoms: N4_20  and  N5_22 
ROOT
HETATM    1  C4  UNL     1     -30.074  -7.653  80.375  1.00  0.00     0.092 C 
HETATM    2  C5  UNL     1     -28.948  -6.698  80.409  1.00  0.00     0.026 C 
HETATM    3  C6  UNL     1     -27.907  -6.939  79.388  1.00  0.00     0.004 C 
HETATM    4  C7  UNL     1     -27.490  -8.378  79.271  1.00  0.00     0.034 C 
HETATM    5  C8  UNL     1     -28.223  -9.304  80.143  1.00  0.00     0.195 C 
HETATM    6  N2  UNL     1     -28.647 -10.534  79.435  1.00  0.00    -0.060 N 
ATOM      7  H21 UNL     1     -28.536 -11.450  79.869  1.00  0.00     0.278 HD
ATOM      8  H22 UNL     1     -28.131 -10.873  78.623  1.00  0.00     0.278 HD
HETATM    9  C9  UNL     1     -29.933  -9.953  79.287  1.00  0.00     0.246 C 
HETATM   10  C12 UNL     1     -29.621  -9.056  80.441  1.00  0.00     0.076 C 
ENDROOT
BRANCH   9  11
HETATM   11  C10 UNL     1     -30.318  -9.428  77.974  1.00  0.00     0.194 C 
BRANCH  11  12
HETATM   12  N3  UNL     1     -30.390 -10.362  76.944  1.00  0.00    -0.366 NA
HETATM   13  C11 UNL     1     -30.466 -11.271  75.936  1.00  0.00     0.412 C 
HETATM   14  O2  UNL     1     -31.285 -11.334  74.954  1.00  0.00    -0.228 OA
HETATM   15  N4  UNL     1     -29.512 -12.377  75.884  1.00  0.00    -0.225 N 
ATOM     16  H4  UNL     1     -28.802 -12.449  76.613  1.00  0.00     0.194 HD
BRANCH  15  17
HETATM   17  N5  UNL     1     -29.540 -13.336  74.876  1.00  0.00    -0.245 N 
HETATM   18  N6  UNL     1     -28.519 -14.008  74.568  1.00  0.00    -0.331 N 
ATOM     19  H62 UNL     1     -27.656 -13.832  75.083  1.00  0.00     0.178 HD
ATOM     20  H61 UNL     1     -28.539 -14.711  73.830  1.00  0.00     0.178 HD
ATOM     21  H5  UNL     1     -30.411 -13.499  74.371  1.00  0.00     0.208 HD
ENDBRANCH  15  17
ENDBRANCH  11  12
ENDBRANCH   9  11
BRANCH   1  22
HETATM   22  N1  UNL     1     -30.938  -7.424  81.572  1.00  0.00    -0.356 N 
HETATM   23  C3  UNL     1     -32.329  -7.625  81.493  1.00  0.00     0.217 C 
HETATM   24  O1  UNL     1     -32.896  -8.000  80.440  1.00  0.00    -0.274 OA
ATOM     25  H1  UNL     1     -30.517  -7.120  82.450  1.00  0.00     0.162 HD
BRANCH  23  26
HETATM   26  C2  UNL     1     -33.157  -7.390  82.696  1.00  0.00     0.098 C 
HETATM   27  C1  UNL     1     -32.422  -7.683  83.971  1.00  0.00     0.014 C 
ENDBRANCH  23  26
ENDBRANCH   1  22
TORSDOF 5
ENDMDL
MODEL 4
REMARK VINA RESULT: -8.149427226     10.838     12.630
REMARK  5 active torsions:
REMARK  status: ('A' for Active; 'I' for Inactive)
REMARK    1  A    between atoms: C2_2  and  C3_3 
REMARK       I    between atoms: C3_3  and  N1_5 
REMARK    2  A    between atoms: N1_5  and  C4_7 
REMARK    3  A    between atoms: C9_15  and  C10_16 
REMARK    4  A    between atoms: C10_16  and  N3_17 
REMARK       I    between atoms: N3_17  and  C11_18 
REMARK       I    between atoms: C11_18  and  N4_20 
REMARK    5  A    between atoms: N4_20  and  N5_22 
ROOT
HETATM    1  C4  UNL     1     -25.673 -12.449  66.105  1.00  0.00     0.092 C 
HETATM    2  C5  UNL     1     -26.227 -11.085  65.995  1.00  0.00     0.026 C 
HETATM    3  C6  UNL     1     -27.434 -10.844  66.814  1.00  0.00     0.004 C 
HETATM    4  C7  UNL     1     -28.462 -11.936  66.718  1.00  0.00     0.034 C 
HETATM    5  C8  UNL     1     -28.073 -13.077  65.880  1.00  0.00     0.195 C 
HETATM    6  N2  UNL     1     -28.380 -14.378  66.516  1.00  0.00    -0.060 N 
ATOM      7  H21 UNL     1     -28.806 -15.134  65.979  1.00  0.00     0.278 HD
ATOM      8  H22 UNL     1     -29.132 -14.461  67.200  1.00  0.00     0.278 HD
HETATM    9  C9  UNL     1     -27.021 -14.452  66.919  1.00  0.00     0.246 C 
HETATM   10  C12 UNL     1     -26.683 -13.488  65.827  1.00  0.00     0.076 C 
ENDROOT
BRANCH   9  11
HETATM   11  C10 UNL     1     -26.690 -14.188  68.322  1.00  0.00     0.194 C 
BRANCH  11  12
HETATM   12  N3  UNL     1     -27.760 -14.215  69.213  1.00  0.00    -0.366 NA
HETATM   13  C11 UNL     1     -28.808 -14.241  70.078  1.00  0.00     0.412 C 
HETATM   14  O2  UNL     1     -30.058 -14.386  69.841  1.00  0.00    -0.228 OA
HETATM   15  N4  UNL     1     -28.569 -14.086  71.511  1.00  0.00    -0.225 N 
ATOM     16  H4  UNL     1     -27.611 -13.959  71.840  1.00  0.00     0.194 HD
BRANCH  15  17
HETATM   17  N5  UNL     1     -29.602 -14.107  72.444  1.00  0.00    -0.245 N 
HETATM   18  N6  UNL     1     -30.242 -13.066  72.751  1.00  0.00    -0.331 N 
ATOM     19  H62 UNL     1     -29.984 -12.191  72.293  1.00  0.00     0.178 HD
ATOM     20  H61 UNL     1     -30.999 -13.080  73.434  1.00  0.00     0.178 HD
ATOM     21  H5  UNL     1     -29.846 -14.990  72.892  1.00  0.00     0.208 HD
ENDBRANCH  15  17
ENDBRANCH  11  12
ENDBRANCH   9  11
BRANCH   1  22
HETATM   22  N1  UNL     1     -24.594 -12.615  65.085  1.00  0.00    -0.356 N 
HETATM   23  C3  UNL     1     -23.392 -13.265  65.422  1.00  0.00     0.217 C 
HETATM   24  O1  UNL     1     -23.175 -13.728  66.566  1.00  0.00    -0.274 OA
ATOM     25  H1  UNL     1     -24.730 -12.256  64.140  1.00  0.00     0.162 HD
BRANCH  23  26
HETATM   26  C2  UNL     1     -22.343 -13.415  64.389  1.00  0.00     0.098 C 
HETATM   27  C1  UNL     1     -21.659 -12.120  64.065  1.00  0.00     0.014 C 
ENDBRANCH  23  26
ENDBRANCH   1  22
TORSDOF 5
ENDMDL
MODEL 5
REMARK VINA RESULT: -8.147847727      2.868      5.550
REMARK  5 active torsions:
REMARK  status: ('A' for Active; 'I' for Inactive)
REMARK    1  A    between atoms: C2_2  and  C3_3 
REMARK       I    between atoms: C3_3  and  N1_5 
REMARK    2  A    between atoms: N1_5  and  C4_7 
REMARK    3  A    between atoms: C9_15  and  C10_16 
REMARK    4  A    between atoms: C10_16  and  N3_17 
REMARK       I    between atoms: N3_17  and  C11_18 
REMARK       I    between atoms: C11_18  and  N4_20 
REMARK    5  A    between atoms: N4_20  and  N5_22 
ROOT
HETATM    1  C4  UNL     1     -36.171  -8.646  75.115  1.00  0.00     0.092 C 
HETATM    2  C5  UNL     1     -37.273  -9.629  75.091  1.00  0.00     0.026 C 
HETATM    3  C6  UNL     1     -36.858 -11.008  74.758  1.00  0.00     0.004 C 
HETATM    4  C7  UNL     1     -35.928 -11.097  73.581  1.00  0.00     0.034 C 
HETATM    5  C8  UNL     1     -35.545  -9.804  73.000  1.00  0.00     0.195 C 
HETATM    6  N2  UNL     1     -34.094  -9.718  72.716  1.00  0.00    -0.060 N 
ATOM      7  H21 UNL     1     -33.757  -9.327  71.837  1.00  0.00     0.278 HD
ATOM      8  H22 UNL     1     -33.547 -10.560  72.534  1.00  0.00     0.278 HD
HETATM    9  C9  UNL     1     -33.942  -9.004  73.933  1.00  0.00     0.246 C 
HETATM   10  C12 UNL     1     -35.392  -8.647  73.862  1.00  0.00     0.076 C 
ENDROOT
BRANCH   9  11
HETATM   11  C10 UNL     1     -33.367  -9.700  75.087  1.00  0.00     0.194 C 
BRANCH  11  12
HETATM   12  N3  UNL     1     -32.272 -10.517  74.820  1.00  0.00    -0.366 NA
HETATM   13  C11 UNL     1     -31.205 -11.316  74.553  1.00  0.00     0.412 C 
HETATM   14  O2  UNL     1     -30.768 -11.743  73.428  1.00  0.00    -0.228 OA
HETATM   15  N4  UNL     1     -30.376 -11.810  75.650  1.00  0.00    -0.225 N 
ATOM     16  H4  UNL     1     -30.616 -11.545  76.606  1.00  0.00     0.194 HD
BRANCH  15  17
HETATM   17  N5  UNL     1     -29.271 -12.628  75.437  1.00  0.00    -0.245 N 
HETATM   18  N6  UNL     1     -29.363 -13.726  74.825  1.00  0.00    -0.331 N 
ATOM     19  H62 UNL     1     -30.282 -14.008  74.482  1.00  0.00     0.178 HD
ATOM     20  H61 UNL     1     -28.554 -14.326  74.669  1.00  0.00     0.178 HD
ATOM     21  H5  UNL     1     -28.360 -12.331  75.787  1.00  0.00     0.208 HD
ENDBRANCH  15  17
ENDBRANCH  11  12
ENDBRANCH   9  11
BRANCH   1  22
HETATM   22  N1  UNL     1     -36.750  -7.277  75.260  1.00  0.00    -0.356 N 
HETATM   23  C3  UNL     1     -36.327  -6.434  76.306  1.00  0.00     0.217 C 
HETATM   24  O1  UNL     1     -35.464  -6.783  77.144  1.00  0.00    -0.274 OA
ATOM     25  H1  UNL     1     -37.454  -6.951  74.598  1.00  0.00     0.162 HD
BRANCH  23  26
HETATM   26  C2  UNL     1     -36.919  -5.083  76.421  1.00  0.00     0.098 C 
HETATM   27  C1  UNL     1     -36.498  -4.169  75.309  1.00  0.00     0.014 C 
ENDBRANCH  23  26
ENDBRANCH   1  22
TORSDOF 5
ENDMDL
