MODEL 1
REMARK VINA RESULT: -7.228148507      0.000      0.000
REMARK  13 active torsions:
REMARK  status: ('A' for Active; 'I' for Inactive)
REMARK    1  A    between atoms: N2_6  and  C3_8 
REMARK    2  A    between atoms: C3_8  and  O1_9 
REMARK    3  A    between atoms: C3_8  and  C4_11 
REMARK    4  A    between atoms: C4_11  and  C5_12 
REMARK    5  A    between atoms: C4_11  and  N3_18 
REMARK    6  A    between atoms: C5_12  and  C6_13 
REMARK    7  A    between atoms: C6_13  and  O2_14 
REMARK    8  A    between atoms: C6_13  and  O3_16 
REMARK    9  A    between atoms: C11_31  and  C12_32 
REMARK   10  A    between atoms: C12_32  and  O7_33 
REMARK   11  A    between atoms: N6_35  and  C13_36 
REMARK   12  A    between atoms: C13_36  and  N7_37 
REMARK   13  A    between atoms: C13_36  and  O8_41 
ROOT
HETATM    1  N1  UNL     1      20.187   5.345  12.434  1.00  0.00    -0.384 N 
ATOM      2  H11 UNL     1      20.895   4.706  12.074  1.00  0.00     0.157 HD
ATOM      3  H12 UNL     1      20.164   5.457  13.447  1.00  0.00     0.157 HD
HETATM    4  C1  UNL     1      19.369   5.958  11.682  1.00  0.00     0.126 C 
HETATM    5  C2  UNL     1      18.356   6.872  12.196  1.00  0.00     0.081 C 
HETATM    6  N2  UNL     1      17.640   6.595  13.198  1.00  0.00    -0.338 N 
ATOM      7  H2  UNL     1      16.976   7.329  13.446  1.00  0.00     0.167 HD
HETATM    8  C10 UNL     1      18.207   8.170  11.436  1.00  0.00     0.295 C 
HETATM    9  N5  UNL     1      18.619   8.020  10.075  1.00  0.00    -0.047 N 
ATOM     10  H51 UNL     1      19.573   8.358   9.954  1.00  0.00     0.280 HD
ATOM     11  H52 UNL     1      18.122   8.682   9.479  1.00  0.00     0.280 HD
HETATM   12  C11 UNL     1      18.489   6.672   9.550  1.00  0.00     0.315 C 
HETATM   13  N6  UNL     1      19.402   5.799  10.243  1.00  0.00    -0.286 N 
ENDROOT
BRANCH   6  14
HETATM   14  C3  UNL     1      17.584   5.486  14.024  1.00  0.00     0.140 C 
BRANCH  14  15
HETATM   15  O1  UNL     1      18.246   5.617  15.141  1.00  0.00    -0.348 OA
ATOM     16  H1  UNL     1      18.962   5.001  15.244  1.00  0.00     0.219 HD
ENDBRANCH  14  15
BRANCH  14  17
HETATM   17  C4  UNL     1      16.892   4.220  13.795  1.00  0.00     0.177 C 
BRANCH  17  18
HETATM   18  C5  UNL     1      16.130   4.038  12.531  1.00  0.00     0.094 C 
BRANCH  18  19
HETATM   19  C6  UNL     1      16.734   3.053  11.578  1.00  0.00     0.256 C 
BRANCH  19  20
HETATM   20  O2  UNL     1      18.065   2.751  11.967  1.00  0.00    -0.371 OA
ATOM     21  H2  UNL     1      18.190   1.809  11.999  1.00  0.00     0.212 HD
ENDBRANCH  19  20
BRANCH  19  22
HETATM   22  O3  UNL     1      16.826   3.568  10.298  1.00  0.00    -0.371 OA
ATOM     23  H3  UNL     1      16.281   3.088   9.685  1.00  0.00     0.212 HD
ENDBRANCH  19  22
ENDBRANCH  18  19
ENDBRANCH  17  18
BRANCH  17  24
HETATM   24  N3  UNL     1      16.068   3.850  14.955  1.00  0.00    -0.249 N 
HETATM   25  C7  UNL     1      15.068   4.639  15.576  1.00  0.00     0.333 A 
HETATM   26  O4  UNL     1      14.693   5.817  15.249  1.00  0.00    -0.246 OA
HETATM   27  N4  UNL     1      14.550   3.859  16.652  1.00  0.00    -0.271 N 
HETATM   28  C8  UNL     1      15.226   2.606  16.690  1.00  0.00     0.318 A 
ATOM     29  H4  UNL     1      13.813   4.152  17.293  1.00  0.00     0.174 HD
HETATM   30  O5  UNL     1      15.053   1.639  17.497  1.00  0.00    -0.262 OA
HETATM   31  C9  UNL     1      16.200   2.591  15.606  1.00  0.00     0.320 A 
HETATM   32  O6  UNL     1      16.988   1.642  15.325  1.00  0.00    -0.262 OA
ENDBRANCH  17  24
ENDBRANCH  14  17
ENDBRANCH   6  14
BRANCH  13  33
HETATM   33  C13 UNL     1      20.291   4.842   9.685  1.00  0.00     0.429 C 
BRANCH  33  34
HETATM   34  N7  UNL     1      21.662   5.172  10.097  1.00  0.00    -0.035 N 
ATOM     35  H73 UNL     1      22.319   5.152   9.317  1.00  0.00     0.279 HD
ATOM     36  H72 UNL     1      21.768   6.155  10.347  1.00  0.00     0.279 HD
ATOM     37  H71 UNL     1      21.938   4.546  10.853  1.00  0.00     0.279 HD
ENDBRANCH  33  34
BRANCH  33  38
HETATM   38  O8  UNL     1      20.019   3.597  10.296  1.00  0.00    -0.354 OA
ATOM     39  H8  UNL     1      19.788   2.984   9.608  1.00  0.00     0.213 HD
ENDBRANCH  33  38
ENDBRANCH  13  33
BRANCH  12  40
HETATM   40  C12 UNL     1      18.705   6.704   8.066  1.00  0.00     0.218 C 
BRANCH  40  41
HETATM   41  O7  UNL     1      17.491   6.323   7.464  1.00  0.00    -0.397 OA
ATOM     42  H7  UNL     1      17.172   7.075   6.979  1.00  0.00     0.209 HD
ENDBRANCH  40  41
ENDBRANCH  12  40
TORSDOF 13
ENDMDL
MODEL 2
REMARK VINA RESULT: -7.112395980      1.564      1.840
REMARK  13 active torsions:
REMARK  status: ('A' for Active; 'I' for Inactive)
REMARK    1  A    between atoms: N2_6  and  C3_8 
REMARK    2  A    between atoms: C3_8  and  O1_9 
REMARK    3  A    between atoms: C3_8  and  C4_11 
REMARK    4  A    between atoms: C4_11  and  C5_12 
REMARK    5  A    between atoms: C4_11  and  N3_18 
REMARK    6  A    between atoms: C5_12  and  C6_13 
REMARK    7  A    between atoms: C6_13  and  O2_14 
REMARK    8  A    between atoms: C6_13  and  O3_16 
REMARK    9  A    between atoms: C11_31  and  C12_32 
REMARK   10  A    between atoms: C12_32  and  O7_33 
REMARK   11  A    between atoms: N6_35  and  C13_36 
REMARK   12  A    between atoms: C13_36  and  N7_37 
REMARK   13  A    between atoms: C13_36  and  O8_41 
ROOT
HETATM    1  N1  UNL     1      18.900   6.575  11.634  1.00  0.00    -0.384 N 
ATOM      2  H11 UNL     1      19.521   6.248  10.894  1.00  0.00     0.157 HD
ATOM      3  H12 UNL     1      19.285   6.553  12.578  1.00  0.00     0.157 HD
HETATM    4  C1  UNL     1      17.716   6.971  11.411  1.00  0.00     0.126 C 
HETATM    5  C2  UNL     1      16.827   7.438  12.469  1.00  0.00     0.081 C 
HETATM    6  N2  UNL     1      16.701   6.828  13.566  1.00  0.00    -0.338 N 
ATOM      7  H2  UNL     1      16.047   7.272  14.212  1.00  0.00     0.167 HD
HETATM    8  C10 UNL     1      16.051   8.697  12.156  1.00  0.00     0.295 C 
HETATM    9  N5  UNL     1      15.865   8.851  10.746  1.00  0.00    -0.047 N 
ATOM     10  H51 UNL     1      16.560   9.493  10.365  1.00  0.00     0.280 HD
ATOM     11  H52 UNL     1      15.014   9.380  10.556  1.00  0.00     0.280 HD
HETATM   12  C11 UNL     1      15.864   7.606   9.999  1.00  0.00     0.315 C 
HETATM   13  N6  UNL     1      17.170   7.002  10.070  1.00  0.00    -0.286 N 
ENDROOT
BRANCH   6  14
HETATM   14  C3  UNL     1      17.280   5.673  14.060  1.00  0.00     0.140 C 
BRANCH  14  15
HETATM   15  O1  UNL     1      18.375   5.872  14.742  1.00  0.00    -0.348 OA
ATOM     16  H1  UNL     1      18.312   5.631  15.659  1.00  0.00     0.219 HD
ENDBRANCH  14  15
BRANCH  14  17
HETATM   17  C4  UNL     1      16.823   4.294  13.908  1.00  0.00     0.177 C 
BRANCH  17  18
HETATM   18  C5  UNL     1      16.136   3.901  12.648  1.00  0.00     0.094 C 
BRANCH  18  19
HETATM   19  C6  UNL     1      16.971   3.079  11.715  1.00  0.00     0.256 C 
BRANCH  19  20
HETATM   20  O2  UNL     1      18.340   3.424  11.853  1.00  0.00    -0.371 OA
ATOM     21  H2  UNL     1      18.423   4.330  12.128  1.00  0.00     0.212 HD
ENDBRANCH  19  20
BRANCH  19  22
HETATM   22  O3  UNL     1      16.654   3.326  10.391  1.00  0.00    -0.371 OA
ATOM     23  H3  UNL     1      16.650   2.529   9.875  1.00  0.00     0.212 HD
ENDBRANCH  19  22
ENDBRANCH  18  19
ENDBRANCH  17  18
BRANCH  17  24
HETATM   24  N3  UNL     1      16.047   3.860  15.079  1.00  0.00    -0.249 N 
HETATM   25  C7  UNL     1      15.066   4.610  15.775  1.00  0.00     0.333 A 
HETATM   26  O4  UNL     1      14.672   5.799  15.521  1.00  0.00    -0.246 OA
HETATM   27  N4  UNL     1      14.595   3.774  16.831  1.00  0.00    -0.271 N 
HETATM   28  C8  UNL     1      15.280   2.526  16.782  1.00  0.00     0.318 A 
ATOM     29  H4  UNL     1      13.882   4.030  17.513  1.00  0.00     0.174 HD
HETATM   30  O5  UNL     1      15.144   1.520  17.546  1.00  0.00    -0.262 OA
HETATM   31  C9  UNL     1      16.212   2.572  15.661  1.00  0.00     0.320 A 
HETATM   32  O6  UNL     1      16.994   1.644  15.305  1.00  0.00    -0.262 OA
ENDBRANCH  17  24
ENDBRANCH  14  17
ENDBRANCH   6  14
BRANCH  13  33
HETATM   33  C13 UNL     1      17.942   6.460   9.009  1.00  0.00     0.429 C 
BRANCH  33  34
HETATM   34  N7  UNL     1      19.105   7.327   8.778  1.00  0.00    -0.035 N 
ATOM     35  H73 UNL     1      18.894   8.102   8.149  1.00  0.00     0.279 HD
ATOM     36  H72 UNL     1      19.352   7.876   9.602  1.00  0.00     0.279 HD
ATOM     37  H71 UNL     1      19.881   6.756   8.444  1.00  0.00     0.279 HD
ENDBRANCH  33  34
BRANCH  33  38
HETATM   38  O8  UNL     1      18.487   5.236   9.459  1.00  0.00    -0.354 OA
ATOM     39  H8  UNL     1      18.305   4.580   8.795  1.00  0.00     0.213 HD
ENDBRANCH  33  38
ENDBRANCH  13  33
BRANCH  12  40
HETATM   40  C12 UNL     1      15.410   7.880   8.595  1.00  0.00     0.218 C 
BRANCH  40  41
HETATM   41  O7  UNL     1      14.099   7.381   8.480  1.00  0.00    -0.397 OA
ATOM     42  H7  UNL     1      14.170   6.457   8.270  1.00  0.00     0.209 HD
ENDBRANCH  40  41
ENDBRANCH  12  40
TORSDOF 13
ENDMDL
MODEL 3
REMARK VINA RESULT: -6.834337723      1.894      3.379
REMARK  13 active torsions:
REMARK  status: ('A' for Active; 'I' for Inactive)
REMARK    1  A    between atoms: N2_6  and  C3_8 
REMARK    2  A    between atoms: C3_8  and  O1_9 
REMARK    3  A    between atoms: C3_8  and  C4_11 
REMARK    4  A    between atoms: C4_11  and  C5_12 
REMARK    5  A    between atoms: C4_11  and  N3_18 
REMARK    6  A    between atoms: C5_12  and  C6_13 
REMARK    7  A    between atoms: C6_13  and  O2_14 
REMARK    8  A    between atoms: C6_13  and  O3_16 
REMARK    9  A    between atoms: C11_31  and  C12_32 
REMARK   10  A    between atoms: C12_32  and  O7_33 
REMARK   11  A    between atoms: N6_35  and  C13_36 
REMARK   12  A    between atoms: C13_36  and  N7_37 
REMARK   13  A    between atoms: C13_36  and  O8_41 
ROOT
HETATM    1  N1  UNL     1      17.117   5.683  10.506  1.00  0.00    -0.384 N 
ATOM      2  H11 UNL     1      16.954   6.579  10.047  1.00  0.00     0.157 HD
ATOM      3  H12 UNL     1      16.301   5.080  10.603  1.00  0.00     0.157 HD
HETATM    4  C1  UNL     1      18.253   5.334  10.947  1.00  0.00     0.126 C 
HETATM    5  C2  UNL     1      18.487   4.054  11.605  1.00  0.00     0.081 C 
HETATM    6  N2  UNL     1      17.708   3.591  12.483  1.00  0.00    -0.338 N 
ATOM      7  H2  UNL     1      17.995   2.685  12.854  1.00  0.00     0.167 HD
HETATM    8  C10 UNL     1      19.738   3.322  11.175  1.00  0.00     0.295 C 
HETATM    9  N5  UNL     1      20.728   4.234  10.693  1.00  0.00    -0.047 N 
ATOM     10  H51 UNL     1      20.710   4.270   9.674  1.00  0.00     0.280 HD
ATOM     11  H52 UNL     1      21.662   3.852  10.838  1.00  0.00     0.280 HD
HETATM   12  C11 UNL     1      20.637   5.572  11.248  1.00  0.00     0.315 C 
HETATM   13  N6  UNL     1      19.413   6.191  10.809  1.00  0.00    -0.286 N 
ENDROOT
BRANCH   6  14
HETATM   14  C3  UNL     1      16.538   4.079  13.040  1.00  0.00     0.140 C 
BRANCH  14  15
HETATM   15  O1  UNL     1      15.452   3.687  12.431  1.00  0.00    -0.348 OA
ATOM     16  H1  UNL     1      14.905   4.397  12.116  1.00  0.00     0.219 HD
ENDBRANCH  14  15
BRANCH  14  17
HETATM   17  C4  UNL     1      16.383   4.960  14.194  1.00  0.00     0.177 C 
BRANCH  17  18
HETATM   18  C5  UNL     1      17.552   5.759  14.648  1.00  0.00     0.094 C 
BRANCH  18  19
HETATM   19  C6  UNL     1      17.488   7.213  14.293  1.00  0.00     0.256 C 
BRANCH  19  20
HETATM   20  O2  UNL     1      16.565   7.416  13.234  1.00  0.00    -0.371 OA
ATOM     21  H2  UNL     1      17.030   7.558  12.418  1.00  0.00     0.212 HD
ENDBRANCH  19  20
BRANCH  19  22
HETATM   22  O3  UNL     1      18.702   7.681  13.825  1.00  0.00    -0.371 OA
ATOM     23  H3  UNL     1      18.606   8.156  13.007  1.00  0.00     0.212 HD
ENDBRANCH  19  22
ENDBRANCH  18  19
ENDBRANCH  17  18
BRANCH  17  24
HETATM   24  N3  UNL     1      15.770   4.249  15.325  1.00  0.00    -0.249 N 
HETATM   25  C7  UNL     1      14.853   4.777  16.268  1.00  0.00     0.333 A 
HETATM   26  O4  UNL     1      14.385   5.966  16.314  1.00  0.00    -0.246 OA
HETATM   27  N4  UNL     1      14.545   3.715  17.169  1.00  0.00    -0.271 N 
HETATM   28  C8  UNL     1      15.266   2.549  16.783  1.00  0.00     0.318 A 
ATOM     29  H4  UNL     1      13.910   3.781  17.964  1.00  0.00     0.174 HD
HETATM   30  O5  UNL     1      15.263   1.401  17.329  1.00  0.00    -0.262 OA
HETATM   31  C9  UNL     1      16.054   2.882  15.602  1.00  0.00     0.320 A 
HETATM   32  O6  UNL     1      16.822   2.097  14.975  1.00  0.00    -0.262 OA
ENDBRANCH  17  24
ENDBRANCH  14  17
ENDBRANCH   6  14
BRANCH  13  33
HETATM   33  C13 UNL     1      19.234   7.496  10.277  1.00  0.00     0.429 C 
BRANCH  33  34
HETATM   34  N7  UNL     1      18.760   7.382   8.891  1.00  0.00    -0.035 N 
ATOM     35  H73 UNL     1      19.463   7.676   8.213  1.00  0.00     0.279 HD
ATOM     36  H72 UNL     1      18.669   6.412   8.589  1.00  0.00     0.279 HD
ATOM     37  H71 UNL     1      17.888   7.902   8.798  1.00  0.00     0.279 HD
ENDBRANCH  33  34
BRANCH  33  38
HETATM   38  O8  UNL     1      18.165   8.100  10.977  1.00  0.00    -0.354 OA
ATOM     39  H8  UNL     1      17.909   8.878  10.494  1.00  0.00     0.213 HD
ENDBRANCH  33  38
ENDBRANCH  13  33
BRANCH  12  40
HETATM   40  C12 UNL     1      21.865   6.344  10.865  1.00  0.00     0.218 C 
BRANCH  40  41
HETATM   41  O7  UNL     1      22.956   5.731  11.512  1.00  0.00    -0.397 OA
ATOM     42  H7  UNL     1      23.657   5.665  10.874  1.00  0.00     0.209 HD
ENDBRANCH  40  41
ENDBRANCH  12  40
TORSDOF 13
ENDMDL
MODEL 4
REMARK VINA RESULT: -6.724087159      2.032      4.280
REMARK  13 active torsions:
REMARK  status: ('A' for Active; 'I' for Inactive)
REMARK    1  A    between atoms: N2_6  and  C3_8 
REMARK    2  A    between atoms: C3_8  and  O1_9 
REMARK    3  A    between atoms: C3_8  and  C4_11 
REMARK    4  A    between atoms: C4_11  and  C5_12 
REMARK    5  A    between atoms: C4_11  and  N3_18 
REMARK    6  A    between atoms: C5_12  and  C6_13 
REMARK    7  A    between atoms: C6_13  and  O2_14 
REMARK    8  A    between atoms: C6_13  and  O3_16 
REMARK    9  A    between atoms: C11_31  and  C12_32 
REMARK   10  A    between atoms: C12_32  and  O7_33 
REMARK   11  A    between atoms: N6_35  and  C13_36 
REMARK   12  A    between atoms: C13_36  and  N7_37 
REMARK   13  A    between atoms: C13_36  and  O8_41 
ROOT
HETATM    1  N1  UNL     1      17.041   5.589  10.776  1.00  0.00    -0.384 N 
ATOM      2  H11 UNL     1      16.842   6.548  10.490  1.00  0.00     0.157 HD
ATOM      3  H12 UNL     1      16.234   4.969  10.842  1.00  0.00     0.157 HD
HETATM    4  C1  UNL     1      18.210   5.183  11.050  1.00  0.00     0.126 C 
HETATM    5  C2  UNL     1      18.495   3.812  11.460  1.00  0.00     0.081 C 
HETATM    6  N2  UNL     1      17.795   3.201  12.312  1.00  0.00    -0.338 N 
ATOM      7  H2  UNL     1      18.110   2.248  12.498  1.00  0.00     0.167 HD
HETATM    8  C10 UNL     1      19.700   3.176  10.804  1.00  0.00     0.295 C 
HETATM    9  N5  UNL     1      20.648   4.166  10.397  1.00  0.00    -0.047 N 
ATOM     10  H51 UNL     1      20.540   4.373   9.404  1.00  0.00     0.280 HD
ATOM     11  H52 UNL     1      21.590   3.775  10.393  1.00  0.00     0.280 HD
HETATM   12  C11 UNL     1      20.612   5.392  11.176  1.00  0.00     0.315 C 
HETATM   13  N6  UNL     1      19.357   6.063  10.957  1.00  0.00    -0.286 N 
ENDROOT
BRANCH   6  14
HETATM   14  C3  UNL     1      16.681   3.576  13.044  1.00  0.00     0.140 C 
BRANCH  14  15
HETATM   15  O1  UNL     1      15.547   3.380  12.430  1.00  0.00    -0.348 OA
ATOM     16  H1  UNL     1      14.782   3.622  12.938  1.00  0.00     0.219 HD
ENDBRANCH  14  15
BRANCH  14  17
HETATM   17  C4  UNL     1      16.631   4.154  14.384  1.00  0.00     0.177 C 
BRANCH  17  18
HETATM   18  C5  UNL     1      15.554   3.718  15.313  1.00  0.00     0.094 C 
BRANCH  18  19
HETATM   19  C6  UNL     1      16.032   2.931  16.494  1.00  0.00     0.256 C 
BRANCH  19  20
HETATM   20  O2  UNL     1      17.378   2.525  16.297  1.00  0.00    -0.371 OA
ATOM     21  H2  UNL     1      17.808   2.400  17.136  1.00  0.00     0.212 HD
ENDBRANCH  19  20
BRANCH  19  22
HETATM   22  O3  UNL     1      15.310   1.764  16.660  1.00  0.00    -0.371 OA
ATOM     23  H3  UNL     1      15.813   1.100  17.119  1.00  0.00     0.212 HD
ENDBRANCH  19  22
ENDBRANCH  18  19
ENDBRANCH  17  18
BRANCH  17  24
HETATM   24  N3  UNL     1      16.707   5.621  14.331  1.00  0.00    -0.249 N 
HETATM   25  C7  UNL     1      15.628   6.524  14.157  1.00  0.00     0.333 A 
HETATM   26  O4  UNL     1      14.390   6.237  14.012  1.00  0.00    -0.246 OA
HETATM   27  N4  UNL     1      16.193   7.834  14.172  1.00  0.00    -0.271 N 
HETATM   28  C8  UNL     1      17.602   7.735  14.355  1.00  0.00     0.318 A 
ATOM     29  H4  UNL     1      15.670   8.704  14.069  1.00  0.00     0.174 HD
HETATM   30  O5  UNL     1      18.458   8.672  14.423  1.00  0.00    -0.262 OA
HETATM   31  C9  UNL     1      17.940   6.320  14.458  1.00  0.00     0.320 A 
HETATM   32  O6  UNL     1      19.099   5.842  14.625  1.00  0.00    -0.262 OA
ENDBRANCH  17  24
ENDBRANCH  14  17
ENDBRANCH   6  14
BRANCH  13  33
HETATM   33  C13 UNL     1      19.138   7.436  10.669  1.00  0.00     0.429 C 
BRANCH  33  34
HETATM   34  N7  UNL     1      18.760   7.571   9.256  1.00  0.00    -0.035 N 
ATOM     35  H73 UNL     1      19.547   7.846   8.668  1.00  0.00     0.279 HD
ATOM     36  H72 UNL     1      18.563   6.671   8.818  1.00  0.00     0.279 HD
ATOM     37  H71 UNL     1      17.976   8.219   9.185  1.00  0.00     0.279 HD
ENDBRANCH  33  34
BRANCH  33  38
HETATM   38  O8  UNL     1      17.993   7.847  11.391  1.00  0.00    -0.354 OA
ATOM     39  H8  UNL     1      17.508   7.064  11.629  1.00  0.00     0.213 HD
ENDBRANCH  33  38
ENDBRANCH  13  33
BRANCH  12  40
HETATM   40  C12 UNL     1      21.806   6.229  10.822  1.00  0.00     0.218 C 
BRANCH  40  41
HETATM   41  O7  UNL     1      22.907   5.692  11.515  1.00  0.00    -0.397 OA
ATOM     42  H7  UNL     1      23.641   5.688  10.912  1.00  0.00     0.209 HD
ENDBRANCH  40  41
ENDBRANCH  12  40
TORSDOF 13
ENDMDL
MODEL 5
REMARK VINA RESULT: -6.593352152      1.459      3.464
REMARK  13 active torsions:
REMARK  status: ('A' for Active; 'I' for Inactive)
REMARK    1  A    between atoms: N2_6  and  C3_8 
REMARK    2  A    between atoms: C3_8  and  O1_9 
REMARK    3  A    between atoms: C3_8  and  C4_11 
REMARK    4  A    between atoms: C4_11  and  C5_12 
REMARK    5  A    between atoms: C4_11  and  N3_18 
REMARK    6  A    between atoms: C5_12  and  C6_13 
REMARK    7  A    between atoms: C6_13  and  O2_14 
REMARK    8  A    between atoms: C6_13  and  O3_16 
REMARK    9  A    between atoms: C11_31  and  C12_32 
REMARK   10  A    between atoms: C12_32  and  O7_33 
REMARK   11  A    between atoms: N6_35  and  C13_36 
REMARK   12  A    between atoms: C13_36  and  N7_37 
REMARK   13  A    between atoms: C13_36  and  O8_41 
ROOT
HETATM    1  N1  UNL     1      19.751   5.159  12.347  1.00  0.00    -0.384 N 
ATOM      2  H11 UNL     1      20.433   4.485  11.999  1.00  0.00     0.157 HD
ATOM      3  H12 UNL     1      19.687   5.243  13.361  1.00  0.00     0.157 HD
HETATM    4  C1  UNL     1      19.012   5.847  11.579  1.00  0.00     0.126 C 
HETATM    5  C2  UNL     1      18.037   6.810  12.076  1.00  0.00     0.081 C 
HETATM    6  N2  UNL     1      17.258   6.553  13.034  1.00  0.00    -0.338 N 
ATOM      7  H2  UNL     1      16.632   7.322  13.275  1.00  0.00     0.167 HD
HETATM    8  C10 UNL     1      18.009   8.138  11.352  1.00  0.00     0.295 C 
HETATM    9  N5  UNL     1      18.475   8.001  10.007  1.00  0.00    -0.047 N 
ATOM     10  H51 UNL     1      19.454   8.278   9.942  1.00  0.00     0.280 HD
ATOM     11  H52 UNL     1      18.051   8.712   9.412  1.00  0.00     0.280 HD
HETATM   12  C11 UNL     1      18.283   6.681   9.434  1.00  0.00     0.315 C 
HETATM   13  N6  UNL     1      19.103   5.729  10.139  1.00  0.00    -0.286 N 
ENDROOT
BRANCH   6  14
HETATM   14  C3  UNL     1      17.090   5.426  13.821  1.00  0.00     0.140 C 
BRANCH  14  15
HETATM   15  O1  UNL     1      18.029   5.250  14.709  1.00  0.00    -0.348 OA
ATOM     16  H1  UNL     1      18.135   4.348  14.990  1.00  0.00     0.219 HD
ENDBRANCH  14  15
BRANCH  14  17
HETATM   17  C4  UNL     1      16.016   4.438  13.769  1.00  0.00     0.177 C 
BRANCH  17  18
HETATM   18  C5  UNL     1      15.489   3.884  15.046  1.00  0.00     0.094 C 
BRANCH  18  19
HETATM   19  C6  UNL     1      16.319   4.203  16.251  1.00  0.00     0.256 C 
BRANCH  19  20
HETATM   20  O2  UNL     1      17.292   3.191  16.455  1.00  0.00    -0.371 OA
ATOM     21  H2  UNL     1      18.093   3.408  15.991  1.00  0.00     0.212 HD
ENDBRANCH  19  20
BRANCH  19  22
HETATM   22  O3  UNL     1      15.558   4.229  17.405  1.00  0.00    -0.371 OA
ATOM     23  H3  UNL     1      16.085   4.428  18.171  1.00  0.00     0.212 HD
ENDBRANCH  19  22
ENDBRANCH  18  19
ENDBRANCH  17  18
BRANCH  17  24
HETATM   24  N3  UNL     1      16.338   3.354  12.828  1.00  0.00    -0.249 N 
HETATM   25  C7  UNL     1      16.783   2.048  13.153  1.00  0.00     0.333 A 
HETATM   26  O4  UNL     1      16.987   1.565  14.319  1.00  0.00    -0.246 OA
HETATM   27  N4  UNL     1      16.961   1.364  11.914  1.00  0.00    -0.271 N 
HETATM   28  C8  UNL     1      16.630   2.241  10.842  1.00  0.00     0.318 A 
ATOM     29  H4  UNL     1      17.276   0.400  11.812  1.00  0.00     0.174 HD
HETATM   30  O5  UNL     1      16.658   2.009   9.593  1.00  0.00    -0.262 OA
HETATM   31  C9  UNL     1      16.229   3.519  11.419  1.00  0.00     0.320 A 
HETATM   32  O6  UNL     1      15.865   4.545  10.775  1.00  0.00    -0.262 OA
ENDBRANCH  17  24
ENDBRANCH  14  17
ENDBRANCH   6  14
BRANCH  13  33
HETATM   33  C13 UNL     1      19.954   4.732   9.590  1.00  0.00     0.429 C 
BRANCH  33  34
HETATM   34  N7  UNL     1      21.313   4.930  10.111  1.00  0.00    -0.035 N 
ATOM     35  H73 UNL     1      21.483   4.399  10.966  1.00  0.00     0.279 HD
ATOM     36  H72 UNL     1      22.023   4.489   9.526  1.00  0.00     0.279 HD
ATOM     37  H71 UNL     1      21.476   5.929  10.235  1.00  0.00     0.279 HD
ENDBRANCH  33  34
BRANCH  33  38
HETATM   38  O8  UNL     1      19.543   3.484  10.114  1.00  0.00    -0.354 OA
ATOM     39  H8  UNL     1      20.315   3.049  10.457  1.00  0.00     0.213 HD
ENDBRANCH  33  38
ENDBRANCH  13  33
BRANCH  12  40
HETATM   40  C12 UNL     1      18.571   6.742   7.963  1.00  0.00     0.218 C 
BRANCH  40  41
HETATM   41  O7  UNL     1      17.386   6.382   7.294  1.00  0.00    -0.397 OA
ATOM     42  H7  UNL     1      17.488   6.641   6.386  1.00  0.00     0.209 HD
ENDBRANCH  40  41
ENDBRANCH  12  40
TORSDOF 13
ENDMDL
