MODEL 1
REMARK VINA RESULT: -7.791055478      0.000      0.000
REMARK  3 active torsions:
REMARK  status: ('A' for Active; 'I' for Inactive)
REMARK    1  A    between atoms: C3_4  and  C4_5 
REMARK    2  A    between atoms: C7_8  and  N2_9 
REMARK    3  A    between atoms: N3_14  and  N4_15 
ROOT
HETATM    1  N1  UNL     1      18.472   7.745  14.702  1.00  0.00    -0.191 NA
HETATM    2  C1  UNL     1      18.616   7.087  13.750  1.00  0.00     0.107 C 
HETATM    3  C2  UNL     1      18.816   6.290  12.570  1.00  0.00     0.142 C 
HETATM    4  C3  UNL     1      18.188   5.043  12.579  1.00  0.00     0.096 C 
HETATM    5  N3  UNL     1      18.361   3.981  11.772  1.00  0.00    -0.216 N 
HETATM    6  C13 UNL     1      19.339   3.901  10.854  1.00  0.00     0.335 C 
HETATM    7  O3  UNL     1      19.521   2.742  10.407  1.00  0.00    -0.260 OA
HETATM    8  C14 UNL     1      20.179   4.841  10.304  1.00  0.00     0.318 C 
HETATM    9  O4  UNL     1      21.078   4.460   9.517  1.00  0.00    -0.262 OA
HETATM   10  N5  UNL     1      20.156   6.166  10.513  1.00  0.00    -0.284 N 
ATOM     11  H5  UNL     1      20.613   6.746   9.809  1.00  0.00     0.172 HD
HETATM   12  C15 UNL     1      19.594   6.812  11.552  1.00  0.00     0.271 C 
HETATM   13  O5  UNL     1      19.789   8.060  11.630  1.00  0.00    -0.266 OA
ENDROOT
BRANCH   4  14
HETATM   14  C4  UNL     1      17.213   4.908  13.629  1.00  0.00    -0.005 A 
HETATM   15  C5  UNL     1      15.954   5.424  13.461  1.00  0.00     0.016 A 
HETATM   16  C6  UNL     1      15.036   5.285  14.476  1.00  0.00     0.037 A 
HETATM   17  C7  UNL     1      15.379   4.636  15.640  1.00  0.00     0.102 A 
HETATM   18  C8  UNL     1      16.636   4.109  15.833  1.00  0.00     0.037 A 
HETATM   19  C9  UNL     1      17.542   4.265  14.791  1.00  0.00     0.016 A 
BRANCH  17  20
HETATM   20  N2  UNL     1      14.377   4.521  16.665  1.00  0.00    -0.116 N 
HETATM   21  O1  UNL     1      13.982   5.525  17.291  1.00  0.00    -0.532 OA
HETATM   22  O2  UNL     1      13.876   3.260  16.925  1.00  0.00    -0.532 OA
ENDBRANCH  17  20
ENDBRANCH   4  14
BRANCH   5  23
HETATM   23  N4  UNL     1      17.479   2.907  11.885  1.00  0.00    -0.318 N 
HETATM   24  C10 UNL     1      16.246   2.556  11.157  1.00  0.00     0.145 C 
HETATM   25  C11 UNL     1      16.676   1.104  11.356  1.00  0.00     0.043 C 
HETATM   26  C12 UNL     1      17.255   1.697  12.652  1.00  0.00     0.145 C 
ENDBRANCH   5  23
TORSDOF 3
ENDMDL
MODEL 2
REMARK VINA RESULT: -7.502316145      2.119      4.902
REMARK  3 active torsions:
REMARK  status: ('A' for Active; 'I' for Inactive)
REMARK    1  A    between atoms: C3_4  and  C4_5 
REMARK    2  A    between atoms: C7_8  and  N2_9 
REMARK    3  A    between atoms: N3_14  and  N4_15 
ROOT
HETATM    1  N1  UNL     1      21.441   6.059  11.437  1.00  0.00    -0.191 NA
HETATM    2  C1  UNL     1      20.521   5.349  11.526  1.00  0.00     0.107 C 
HETATM    3  C2  UNL     1      19.401   4.452  11.624  1.00  0.00     0.142 C 
HETATM    4  C3  UNL     1      18.417   4.826  12.542  1.00  0.00     0.096 C 
HETATM    5  N3  UNL     1      17.391   4.118  13.048  1.00  0.00    -0.216 N 
HETATM    6  C13 UNL     1      17.229   2.800  12.842  1.00  0.00     0.335 C 
HETATM    7  O3  UNL     1      16.398   2.264  13.615  1.00  0.00    -0.260 OA
HETATM    8  C14 UNL     1      17.793   1.921  11.945  1.00  0.00     0.318 C 
HETATM    9  O4  UNL     1      17.517   0.702  12.041  1.00  0.00    -0.262 OA
HETATM   10  N5  UNL     1      18.633   2.218  10.943  1.00  0.00    -0.284 N 
ATOM     11  H5  UNL     1      18.704   1.534  10.191  1.00  0.00     0.172 HD
HETATM   12  C15 UNL     1      19.393   3.324  10.824  1.00  0.00     0.271 C 
HETATM   13  O5  UNL     1      20.216   3.358   9.863  1.00  0.00    -0.266 OA
ENDROOT
BRANCH   4  14
HETATM   14  C4  UNL     1      18.554   6.184  12.996  1.00  0.00    -0.005 A 
HETATM   15  C5  UNL     1      19.232   6.452  14.156  1.00  0.00     0.016 A 
HETATM   16  C6  UNL     1      19.352   7.757  14.574  1.00  0.00     0.037 A 
HETATM   17  C7  UNL     1      18.800   8.777  13.833  1.00  0.00     0.102 A 
HETATM   18  C8  UNL     1      18.115   8.536  12.663  1.00  0.00     0.037 A 
HETATM   19  C9  UNL     1      18.009   7.208  12.269  1.00  0.00     0.016 A 
BRANCH  17  20
HETATM   20  N2  UNL     1      18.959  10.121  14.318  1.00  0.00    -0.116 N 
HETATM   21  O1  UNL     1      19.023  10.358  15.541  1.00  0.00    -0.532 OA
HETATM   22  O2  UNL     1      19.037  11.130  13.378  1.00  0.00    -0.532 OA
ENDBRANCH  17  20
ENDBRANCH   4  14
BRANCH   5  23
HETATM   23  N4  UNL     1      16.441   4.781  13.823  1.00  0.00    -0.318 N 
HETATM   24  C10 UNL     1      16.294   4.951  15.281  1.00  0.00     0.145 C 
HETATM   25  C11 UNL     1      15.718   6.325  14.949  1.00  0.00     0.043 C 
HETATM   26  C12 UNL     1      15.225   5.563  13.707  1.00  0.00     0.145 C 
ENDBRANCH   5  23
TORSDOF 3
ENDMDL
MODEL 3
REMARK VINA RESULT: -7.487203433      1.089      3.734
REMARK  3 active torsions:
REMARK  status: ('A' for Active; 'I' for Inactive)
REMARK    1  A    between atoms: C3_4  and  C4_5 
REMARK    2  A    between atoms: C7_8  and  N2_9 
REMARK    3  A    between atoms: N3_14  and  N4_15 
ROOT
HETATM    1  N1  UNL     1      16.544   1.794  12.471  1.00  0.00    -0.191 NA
HETATM    2  C1  UNL     1      17.350   2.606  12.244  1.00  0.00     0.107 C 
HETATM    3  C2  UNL     1      18.351   3.593  11.941  1.00  0.00     0.142 C 
HETATM    4  C3  UNL     1      18.168   4.835  12.553  1.00  0.00     0.096 C 
HETATM    5  N3  UNL     1      18.758   6.018  12.304  1.00  0.00    -0.216 N 
HETATM    6  C13 UNL     1      19.570   6.233  11.255  1.00  0.00     0.335 C 
HETATM    7  O3  UNL     1      19.788   7.448  11.025  1.00  0.00    -0.260 OA
HETATM    8  C14 UNL     1      20.212   5.383  10.385  1.00  0.00     0.318 C 
HETATM    9  O4  UNL     1      20.848   5.874   9.421  1.00  0.00    -0.262 OA
HETATM   10  N5  UNL     1      20.245   4.044  10.440  1.00  0.00    -0.284 N 
ATOM     11  H5  UNL     1      21.004   3.586   9.936  1.00  0.00     0.172 HD
HETATM   12  C15 UNL     1      19.383   3.239  11.091  1.00  0.00     0.271 C 
HETATM   13  O5  UNL     1      19.514   1.992  10.917  1.00  0.00    -0.266 OA
ENDROOT
BRANCH   4  14
HETATM   14  C4  UNL     1      17.189   4.807  13.607  1.00  0.00    -0.005 A 
HETATM   15  C5  UNL     1      17.535   4.343  14.848  1.00  0.00     0.016 A 
HETATM   16  C6  UNL     1      16.585   4.324  15.843  1.00  0.00     0.037 A 
HETATM   17  C7  UNL     1      15.307   4.767  15.592  1.00  0.00     0.102 A 
HETATM   18  C8  UNL     1      14.933   5.240  14.353  1.00  0.00     0.037 A 
HETATM   19  C9  UNL     1      15.914   5.246  13.370  1.00  0.00     0.016 A 
BRANCH  17  20
HETATM   20  N2  UNL     1      14.357   4.725  16.671  1.00  0.00    -0.116 N 
HETATM   21  O1  UNL     1      14.023   5.765  17.272  1.00  0.00    -0.532 OA
HETATM   22  O2  UNL     1      13.834   3.492  17.008  1.00  0.00    -0.532 OA
ENDBRANCH  17  20
ENDBRANCH   4  14
BRANCH   5  23
HETATM   23  N4  UNL     1      18.523   7.077  13.179  1.00  0.00    -0.318 N 
HETATM   24  C10 UNL     1      17.556   8.190  13.151  1.00  0.00     0.145 C 
HETATM   25  C11 UNL     1      17.538   8.064  14.673  1.00  0.00     0.043 C 
HETATM   26  C12 UNL     1      18.998   7.649  14.424  1.00  0.00     0.145 C 
ENDBRANCH   5  23
TORSDOF 3
ENDMDL
MODEL 4
REMARK VINA RESULT: -7.345445295      2.217      6.159
REMARK  3 active torsions:
REMARK  status: ('A' for Active; 'I' for Inactive)
REMARK    1  A    between atoms: C3_4  and  C4_5 
REMARK    2  A    between atoms: C7_8  and  N2_9 
REMARK    3  A    between atoms: N3_14  and  N4_15 
ROOT
HETATM    1  N1  UNL     1      20.143   3.456  10.081  1.00  0.00    -0.191 NA
HETATM    2  C1  UNL     1      19.296   3.321  10.871  1.00  0.00     0.107 C 
HETATM    3  C2  UNL     1      18.257   3.129  11.847  1.00  0.00     0.142 C 
HETATM    4  C3  UNL     1      17.798   4.294  12.467  1.00  0.00     0.096 C 
HETATM    5  N3  UNL     1      17.036   4.447  13.563  1.00  0.00    -0.216 N 
HETATM    6  C13 UNL     1      16.692   3.432  14.374  1.00  0.00     0.335 C 
HETATM    7  O3  UNL     1      16.234   3.801  15.483  1.00  0.00    -0.260 OA
HETATM    8  C14 UNL     1      16.741   2.065  14.227  1.00  0.00     0.318 C 
HETATM    9  O4  UNL     1      16.435   1.341  15.204  1.00  0.00    -0.262 OA
HETATM   10  N5  UNL     1      17.091   1.384  13.125  1.00  0.00    -0.284 N 
ATOM     11  H5  UNL     1      16.775   0.415  13.070  1.00  0.00     0.172 HD
HETATM   12  C15 UNL     1      17.813   1.841  12.085  1.00  0.00     0.271 C 
HETATM   13  O5  UNL     1      18.143   1.002  11.197  1.00  0.00    -0.266 OA
ENDROOT
BRANCH   4  14
HETATM   14  C4  UNL     1      18.228   5.495  11.801  1.00  0.00    -0.005 A 
HETATM   15  C5  UNL     1      17.518   5.975  10.732  1.00  0.00     0.016 A 
HETATM   16  C6  UNL     1      17.944   7.124  10.109  1.00  0.00     0.037 A 
HETATM   17  C7  UNL     1      19.067   7.782  10.557  1.00  0.00     0.102 A 
HETATM   18  C8  UNL     1      19.798   7.322  11.630  1.00  0.00     0.037 A 
HETATM   19  C9  UNL     1      19.343   6.158  12.237  1.00  0.00     0.016 A 
BRANCH  17  20
HETATM   20  N2  UNL     1      19.465   8.980   9.868  1.00  0.00    -0.116 N 
HETATM   21  O1  UNL     1      20.642   9.387   9.918  1.00  0.00    -0.532 OA
HETATM   22  O2  UNL     1      18.494   9.653   9.152  1.00  0.00    -0.532 OA
ENDBRANCH  17  20
ENDBRANCH   4  14
BRANCH   5  23
HETATM   23  N4  UNL     1      16.570   5.723  13.878  1.00  0.00    -0.318 N 
HETATM   24  C10 UNL     1      15.308   6.422  13.568  1.00  0.00     0.145 C 
HETATM   25  C11 UNL     1      15.474   7.088  14.932  1.00  0.00     0.043 C 
HETATM   26  C12 UNL     1      16.961   6.938  14.566  1.00  0.00     0.145 C 
ENDBRANCH   5  23
TORSDOF 3
ENDMDL
MODEL 5
REMARK VINA RESULT: -7.287742402      2.413      5.052
REMARK  3 active torsions:
REMARK  status: ('A' for Active; 'I' for Inactive)
REMARK    1  A    between atoms: C3_4  and  C4_5 
REMARK    2  A    between atoms: C7_8  and  N2_9 
REMARK    3  A    between atoms: N3_14  and  N4_15 
ROOT
HETATM    1  N1  UNL     1      20.210   5.484   9.668  1.00  0.00    -0.191 NA
HETATM    2  C1  UNL     1      19.950   5.910  10.722  1.00  0.00     0.107 C 
HETATM    3  C2  UNL     1      19.647   6.456  12.018  1.00  0.00     0.142 C 
HETATM    4  C3  UNL     1      18.471   5.984  12.603  1.00  0.00     0.096 C 
HETATM    5  N3  UNL     1      17.783   6.449  13.661  1.00  0.00    -0.216 N 
HETATM    6  C13 UNL     1      18.066   7.611  14.275  1.00  0.00     0.335 C 
HETATM    7  O3  UNL     1      17.156   8.015  15.039  1.00  0.00    -0.260 OA
HETATM    8  C14 UNL     1      19.160   8.444  14.232  1.00  0.00     0.318 C 
HETATM    9  O4  UNL     1      19.113   9.533  14.851  1.00  0.00    -0.262 OA
HETATM   10  N5  UNL     1      20.315   8.229  13.584  1.00  0.00    -0.284 N 
ATOM     11  H5  UNL     1      21.122   8.765  13.902  1.00  0.00     0.172 HD
HETATM   12  C15 UNL     1      20.523   7.380  12.559  1.00  0.00     0.271 C 
HETATM   13  O5  UNL     1      21.658   7.414  12.002  1.00  0.00    -0.266 OA
ENDROOT
BRANCH   4  14
HETATM   14  C4  UNL     1      17.940   4.819  11.946  1.00  0.00    -0.005 A 
HETATM   15  C5  UNL     1      16.913   4.950  11.049  1.00  0.00     0.016 A 
HETATM   16  C6  UNL     1      16.419   3.825  10.430  1.00  0.00     0.037 A 
HETATM   17  C7  UNL     1      16.952   2.587  10.710  1.00  0.00     0.102 A 
HETATM   18  C8  UNL     1      17.985   2.428  11.607  1.00  0.00     0.037 A 
HETATM   19  C9  UNL     1      18.462   3.582  12.215  1.00  0.00     0.016 A 
BRANCH  17  20
HETATM   20  N2  UNL     1      16.396   1.447  10.032  1.00  0.00    -0.116 N 
HETATM   21  O1  UNL     1      16.231   0.365  10.629  1.00  0.00    -0.532 OA
HETATM   22  O2  UNL     1      16.057   1.602   8.702  1.00  0.00    -0.532 OA
ENDBRANCH  17  20
ENDBRANCH   4  14
BRANCH   5  23
HETATM   23  N4  UNL     1      16.725   5.688  14.156  1.00  0.00    -0.318 N 
HETATM   24  C10 UNL     1      16.661   4.621  15.171  1.00  0.00     0.145 C 
HETATM   25  C11 UNL     1      15.280   5.181  15.509  1.00  0.00     0.043 C 
HETATM   26  C12 UNL     1      15.296   5.496  14.003  1.00  0.00     0.145 C 
ENDBRANCH   5  23
TORSDOF 3
ENDMDL
