MODEL 1
REMARK VINA RESULT: -10.059349093      0.000      0.000
REMARK  7 active torsions:
REMARK  status: ('A' for Active; 'I' for Inactive)
REMARK    1  A    between atoms: C6_7  and  N1_8 
REMARK       I    between atoms: N1_8  and  C7_10 
REMARK    2  A    between atoms: C7_10  and  O2_12 
REMARK    3  A    between atoms: O2_12  and  C8_13 
REMARK    4  A    between atoms: C8_13  and  C9_14 
REMARK    5  A    between atoms: C11_18  and  C12_19 
REMARK    6  A    between atoms: C21_28  and  C22_29 
REMARK    7  A    between atoms: C24_32  and  O6_33 
ROOT
HETATM    1  C9  UNL     1      36.349   3.244 -17.982  1.00  0.00     0.156 C 
HETATM    2  O3  UNL     1      35.200   4.023 -17.776  1.00  0.00    -0.352 OA
HETATM    3  C10 UNL     1      34.897   4.230 -19.145  1.00  0.00     0.275 C 
HETATM    4  O4  UNL     1      33.793   4.970 -19.389  1.00  0.00    -0.354 OA
HETATM    5  C11 UNL     1      34.126   5.941 -20.346  1.00  0.00     0.132 C 
HETATM    6  C16 UNL     1      34.854   5.356 -21.521  1.00  0.00     0.033 C 
HETATM    7  C17 UNL     1      34.537   3.947 -21.827  1.00  0.00     0.009 C 
HETATM    8  C18 UNL     1      35.451   2.943 -21.104  1.00  0.00     0.011 C 
HETATM    9  C19 UNL     1      35.327   1.642 -21.912  1.00  0.00     0.020 C 
HETATM   10  C20 UNL     1      36.568   0.821 -21.817  1.00  0.00     0.013 C 
HETATM   11  C21 UNL     1      34.050   0.943 -21.613  1.00  0.00     0.163 C 
HETATM   12  O7  UNL     1      33.670   0.931 -20.308  1.00  0.00    -0.350 OA
HETATM   13  C26 UNL     1      33.620   2.128 -19.647  1.00  0.00     0.275 C 
HETATM   14  O8  UNL     1      33.566   1.816 -18.265  1.00  0.00    -0.355 OA
HETATM   15  C27 UNL     1      34.835   1.197 -18.138  1.00  0.00     0.128 C 
HETATM   16  C28 UNL     1      34.958   0.739 -16.748  1.00  0.00     0.040 C 
HETATM   17  C29 UNL     1      35.821   2.105 -18.732  1.00  0.00     0.064 C 
HETATM   18  C30 UNL     1      34.912   2.842 -19.734  1.00  0.00     0.072 C 
ENDROOT
BRANCH   1  19
HETATM   19  C8  UNL     1      37.207   3.062 -16.810  1.00  0.00     0.213 C 
BRANCH  19  20
HETATM   20  O2  UNL     1      38.198   2.035 -17.013  1.00  0.00    -0.301 OA
BRANCH  20  21
HETATM   21  C7  UNL     1      38.444   1.111 -16.009  1.00  0.00     0.361 C 
HETATM   22  N1  UNL     1      38.814   1.544 -14.715  1.00  0.00    -0.330 N 
ATOM     23  H1  UNL     1      38.890   2.548 -14.554  1.00  0.00     0.165 HD
HETATM   24  O1  UNL     1      38.334  -0.138 -16.258  1.00  0.00    -0.239 OA
BRANCH  22  25
HETATM   25  C6  UNL     1      39.089   0.670 -13.617  1.00  0.00     0.116 C 
HETATM   26  C2  UNL     1      38.842   1.312 -12.273  1.00  0.00     0.028 C 
HETATM   27  C1  UNL     1      37.981   0.438 -11.370  1.00  0.00     0.016 C 
HETATM   28  C3  UNL     1      40.209   1.433 -11.654  1.00  0.00    -0.023 C 
HETATM   29  C4  UNL     1      41.109   0.811 -12.394  1.00  0.00    -0.008 C 
HETATM   30  C5  UNL     1      40.499   0.188 -13.601  1.00  0.00     0.128 C 
HETATM   31 CL1  UNL     1      40.607  -1.586 -13.519  1.00  0.00    -0.119 Cl
ENDBRANCH  22  25
ENDBRANCH  20  21
ENDBRANCH  19  20
ENDBRANCH   1  19
BRANCH   5  32
HETATM   32  C12 UNL     1      32.984   6.842 -20.697  1.00  0.00    -0.025 C 
HETATM   33  C13 UNL     1      32.244   6.409 -21.931  1.00  0.00     0.017 C 
HETATM   34  C14 UNL     1      32.008   6.812 -19.528  1.00  0.00     0.017 C 
HETATM   35  C15 UNL     1      33.482   8.264 -20.811  1.00  0.00     0.017 C 
ENDBRANCH   5  32
BRANCH  11  36
HETATM   36  C22 UNL     1      34.051  -0.460 -22.120  1.00  0.00    -0.002 A 
HETATM   37  C23 UNL     1      33.857  -0.837 -23.431  1.00  0.00     0.154 A 
HETATM   38  O5  UNL     1      33.920  -2.143 -23.477  1.00  0.00    -0.300 OA
HETATM   39  C24 UNL     1      34.141  -2.659 -22.313  1.00  0.00     0.183 A 
HETATM   40  C25 UNL     1      34.231  -1.626 -21.411  1.00  0.00     0.075 A 
BRANCH  39  41
HETATM   41  O6  UNL     1      34.262  -4.040 -22.035  1.00  0.00    -0.341 OA
ATOM     42  H6  UNL     1      34.379  -4.422 -21.173  1.00  0.00     0.220 HD
ENDBRANCH  39  41
ENDBRANCH  11  36
TORSDOF 7
ENDMDL
MODEL 2
REMARK VINA RESULT: -9.674496040      2.012      2.702
REMARK  7 active torsions:
REMARK  status: ('A' for Active; 'I' for Inactive)
REMARK    1  A    between atoms: C6_7  and  N1_8 
REMARK       I    between atoms: N1_8  and  C7_10 
REMARK    2  A    between atoms: C7_10  and  O2_12 
REMARK    3  A    between atoms: O2_12  and  C8_13 
REMARK    4  A    between atoms: C8_13  and  C9_14 
REMARK    5  A    between atoms: C11_18  and  C12_19 
REMARK    6  A    between atoms: C21_28  and  C22_29 
REMARK    7  A    between atoms: C24_32  and  O6_33 
ROOT
HETATM    1  C9  UNL     1      34.677   1.650 -18.355  1.00  0.00     0.156 C 
HETATM    2  O3  UNL     1      33.503   2.322 -18.731  1.00  0.00    -0.352 OA
HETATM    3  C10 UNL     1      34.110   3.197 -19.666  1.00  0.00     0.275 C 
HETATM    4  O4  UNL     1      33.270   4.052 -20.289  1.00  0.00    -0.354 OA
HETATM    5  C11 UNL     1      33.836   5.335 -20.230  1.00  0.00     0.132 C 
HETATM    6  C16 UNL     1      35.280   5.342 -20.641  1.00  0.00     0.033 C 
HETATM    7  C17 UNL     1      35.668   4.295 -21.608  1.00  0.00     0.009 C 
HETATM    8  C18 UNL     1      36.144   2.992 -20.941  1.00  0.00     0.011 C 
HETATM    9  C19 UNL     1      36.959   2.269 -22.024  1.00  0.00     0.020 C 
HETATM   10  C20 UNL     1      38.016   1.405 -21.424  1.00  0.00     0.013 C 
HETATM   11  C21 UNL     1      36.071   1.624 -23.026  1.00  0.00     0.163 C 
HETATM   12  O7  UNL     1      34.966   1.008 -22.532  1.00  0.00    -0.350 OA
HETATM   13  C26 UNL     1      34.153   1.727 -21.700  1.00  0.00     0.275 C 
HETATM   14  O8  UNL     1      33.316   0.784 -21.051  1.00  0.00    -0.355 OA
HETATM   15  C27 UNL     1      34.312   0.077 -20.330  1.00  0.00     0.128 C 
HETATM   16  C28 UNL     1      33.638  -1.011 -19.611  1.00  0.00     0.040 C 
HETATM   17  C29 UNL     1      35.123   1.073 -19.623  1.00  0.00     0.064 C 
HETATM   18  C30 UNL     1      34.910   2.279 -20.557  1.00  0.00     0.072 C 
ENDROOT
BRANCH   1  19
HETATM   19  C8  UNL     1      34.580   0.844 -17.136  1.00  0.00     0.213 C 
BRANCH  19  20
HETATM   20  O2  UNL     1      34.837   1.620 -15.948  1.00  0.00    -0.301 OA
BRANCH  20  21
HETATM   21  C7  UNL     1      35.626   1.087 -14.939  1.00  0.00     0.361 C 
HETATM   22  N1  UNL     1      37.001   1.405 -14.866  1.00  0.00    -0.330 N 
ATOM     23  H1  UNL     1      37.382   2.033 -15.573  1.00  0.00     0.165 HD
HETATM   24  O1  UNL     1      35.103   0.306 -14.073  1.00  0.00    -0.239 OA
BRANCH  22  25
HETATM   25  C6  UNL     1      37.895   0.906 -13.868  1.00  0.00     0.116 C 
HETATM   26  C2  UNL     1      37.940   1.768 -12.628  1.00  0.00     0.028 C 
HETATM   27  C1  UNL     1      37.760   0.951 -11.355  1.00  0.00     0.016 C 
HETATM   28  C3  UNL     1      39.326   2.353 -12.625  1.00  0.00    -0.023 C 
HETATM   29  C4  UNL     1      40.061   1.809 -13.577  1.00  0.00    -0.008 C 
HETATM   30  C5  UNL     1      39.300   0.793 -14.353  1.00  0.00     0.128 C 
HETATM   31 CL1  UNL     1      39.975  -0.834 -14.098  1.00  0.00    -0.119 Cl
ENDBRANCH  22  25
ENDBRANCH  20  21
ENDBRANCH  19  20
ENDBRANCH   1  19
BRANCH   5  32
HETATM   32  C12 UNL     1      32.991   6.385 -20.878  1.00  0.00    -0.025 C 
HETATM   33  C13 UNL     1      32.381   5.938 -22.177  1.00  0.00     0.017 C 
HETATM   34  C14 UNL     1      31.858   6.713 -19.915  1.00  0.00     0.017 C 
HETATM   35  C15 UNL     1      33.800   7.650 -21.045  1.00  0.00     0.017 C 
ENDBRANCH   5  32
BRANCH  11  36
HETATM   36  C22 UNL     1      36.812   0.655 -23.884  1.00  0.00    -0.002 A 
HETATM   37  C23 UNL     1      36.592  -0.705 -23.930  1.00  0.00     0.154 A 
HETATM   38  O5  UNL     1      37.437  -1.211 -24.791  1.00  0.00    -0.300 OA
HETATM   39  C24 UNL     1      38.194  -0.304 -25.317  1.00  0.00     0.183 A 
HETATM   40  C25 UNL     1      37.835   0.904 -24.771  1.00  0.00     0.075 A 
BRANCH  39  41
HETATM   41  O6  UNL     1      39.205  -0.533 -26.279  1.00  0.00    -0.341 OA
ATOM     42  H6  UNL     1      39.772   0.130 -26.653  1.00  0.00     0.220 HD
ENDBRANCH  39  41
ENDBRANCH  11  36
TORSDOF 7
ENDMDL
MODEL 3
REMARK VINA RESULT: -9.647789461      1.331      1.663
REMARK  7 active torsions:
REMARK  status: ('A' for Active; 'I' for Inactive)
REMARK    1  A    between atoms: C6_7  and  N1_8 
REMARK       I    between atoms: N1_8  and  C7_10 
REMARK    2  A    between atoms: C7_10  and  O2_12 
REMARK    3  A    between atoms: O2_12  and  C8_13 
REMARK    4  A    between atoms: C8_13  and  C9_14 
REMARK    5  A    between atoms: C11_18  and  C12_19 
REMARK    6  A    between atoms: C21_28  and  C22_29 
REMARK    7  A    between atoms: C24_32  and  O6_33 
ROOT
HETATM    1  C9  UNL     1      36.874   2.330 -17.918  1.00  0.00     0.156 C 
HETATM    2  O3  UNL     1      35.796   3.171 -17.601  1.00  0.00    -0.352 OA
HETATM    3  C10 UNL     1      35.442   3.492 -18.935  1.00  0.00     0.275 C 
HETATM    4  O4  UNL     1      34.386   4.322 -19.071  1.00  0.00    -0.354 OA
HETATM    5  C11 UNL     1      34.741   5.330 -19.980  1.00  0.00     0.132 C 
HETATM    6  C16 UNL     1      35.367   4.777 -21.228  1.00  0.00     0.033 C 
HETATM    7  C17 UNL     1      34.932   3.417 -21.606  1.00  0.00     0.009 C 
HETATM    8  C18 UNL     1      35.805   2.305 -21.000  1.00  0.00     0.011 C 
HETATM    9  C19 UNL     1      35.546   1.074 -21.882  1.00  0.00     0.020 C 
HETATM   10  C20 UNL     1      36.726   0.163 -21.907  1.00  0.00     0.013 C 
HETATM   11  C21 UNL     1      34.237   0.448 -21.560  1.00  0.00     0.163 C 
HETATM   12  O7  UNL     1      33.921   0.374 -20.241  1.00  0.00    -0.350 OA
HETATM   13  C26 UNL     1      33.992   1.523 -19.503  1.00  0.00     0.275 C 
HETATM   14  O8  UNL     1      33.983   1.122 -18.143  1.00  0.00    -0.355 OA
HETATM   15  C27 UNL     1      35.209   0.409 -18.124  1.00  0.00     0.128 C 
HETATM   16  C28 UNL     1      35.365  -0.150 -16.775  1.00  0.00     0.040 C 
HETATM   17  C29 UNL     1      36.228   1.284 -18.710  1.00  0.00     0.064 C 
HETATM   18  C30 UNL     1      35.327   2.149 -19.612  1.00  0.00     0.072 C 
ENDROOT
BRANCH   1  19
HETATM   19  C8  UNL     1      37.773   2.008 -16.807  1.00  0.00     0.213 C 
BRANCH  19  20
HETATM   20  O2  UNL     1      37.154   2.228 -15.524  1.00  0.00    -0.301 OA
BRANCH  20  21
HETATM   21  C7  UNL     1      37.907   2.088 -14.367  1.00  0.00     0.361 C 
HETATM   22  N1  UNL     1      38.705   0.938 -14.169  1.00  0.00    -0.330 N 
ATOM     23  H1  UNL     1      38.704   0.228 -14.902  1.00  0.00     0.165 HD
HETATM   24  O1  UNL     1      37.877   3.006 -13.478  1.00  0.00    -0.239 OA
BRANCH  22  25
HETATM   25  C6  UNL     1      39.511   0.702 -13.013  1.00  0.00     0.116 C 
HETATM   26  C2  UNL     1      40.802  -0.017 -13.328  1.00  0.00     0.028 C 
HETATM   27  C1  UNL     1      42.010   0.680 -12.716  1.00  0.00     0.016 C 
HETATM   28  C3  UNL     1      40.652  -1.365 -12.676  1.00  0.00    -0.023 C 
HETATM   29  C4  UNL     1      39.557  -1.404 -11.939  1.00  0.00    -0.008 C 
HETATM   30  C5  UNL     1      38.816  -0.114 -11.979  1.00  0.00     0.128 C 
HETATM   31 CL1  UNL     1      38.823   0.668 -10.381  1.00  0.00    -0.119 Cl
ENDBRANCH  22  25
ENDBRANCH  20  21
ENDBRANCH  19  20
ENDBRANCH   1  19
BRANCH   5  32
HETATM   32  C12 UNL     1      33.653   6.330 -20.211  1.00  0.00    -0.025 C 
HETATM   33  C13 UNL     1      32.824   6.035 -21.429  1.00  0.00     0.017 C 
HETATM   34  C14 UNL     1      32.735   6.288 -18.996  1.00  0.00     0.017 C 
HETATM   35  C15 UNL     1      34.247   7.718 -20.259  1.00  0.00     0.017 C 
ENDBRANCH   5  32
BRANCH  11  36
HETATM   36  C22 UNL     1      34.110  -0.914 -22.156  1.00  0.00    -0.002 A 
HETATM   37  C23 UNL     1      33.847  -1.187 -23.481  1.00  0.00     0.154 A 
HETATM   38  O5  UNL     1      33.805  -2.488 -23.613  1.00  0.00    -0.300 OA
HETATM   39  C24 UNL     1      34.018  -3.096 -22.492  1.00  0.00     0.183 A 
HETATM   40  C25 UNL     1      34.219  -2.136 -21.531  1.00  0.00     0.075 A 
BRANCH  39  41
HETATM   41  O6  UNL     1      34.037  -4.498 -22.308  1.00  0.00    -0.341 OA
ATOM     42  H6  UNL     1      33.317  -5.021 -21.978  1.00  0.00     0.220 HD
ENDBRANCH  39  41
ENDBRANCH  11  36
TORSDOF 7
ENDMDL
MODEL 4
REMARK VINA RESULT: -9.631482683      2.616      3.576
REMARK  7 active torsions:
REMARK  status: ('A' for Active; 'I' for Inactive)
REMARK    1  A    between atoms: C6_7  and  N1_8 
REMARK       I    between atoms: N1_8  and  C7_10 
REMARK    2  A    between atoms: C7_10  and  O2_12 
REMARK    3  A    between atoms: O2_12  and  C8_13 
REMARK    4  A    between atoms: C8_13  and  C9_14 
REMARK    5  A    between atoms: C11_18  and  C12_19 
REMARK    6  A    between atoms: C21_28  and  C22_29 
REMARK    7  A    between atoms: C24_32  and  O6_33 
ROOT
HETATM    1  C9  UNL     1      36.449   3.191 -18.042  1.00  0.00     0.156 C 
HETATM    2  O3  UNL     1      35.306   3.959 -17.772  1.00  0.00    -0.352 OA
HETATM    3  C10 UNL     1      34.940   4.186 -19.123  1.00  0.00     0.275 C 
HETATM    4  O4  UNL     1      33.822   4.923 -19.304  1.00  0.00    -0.354 OA
HETATM    5  C11 UNL     1      34.106   5.910 -20.260  1.00  0.00     0.132 C 
HETATM    6  C16 UNL     1      34.784   5.349 -21.476  1.00  0.00     0.033 C 
HETATM    7  C17 UNL     1      34.461   3.942 -21.789  1.00  0.00     0.009 C 
HETATM    8  C18 UNL     1      35.413   2.933 -21.125  1.00  0.00     0.011 C 
HETATM    9  C19 UNL     1      35.260   1.644 -21.947  1.00  0.00     0.020 C 
HETATM   10  C20 UNL     1      36.508   0.829 -21.920  1.00  0.00     0.013 C 
HETATM   11  C21 UNL     1      34.002   0.932 -21.601  1.00  0.00     0.163 C 
HETATM   12  O7  UNL     1      33.681   0.898 -20.281  1.00  0.00    -0.350 OA
HETATM   13  C26 UNL     1      33.654   2.083 -19.600  1.00  0.00     0.275 C 
HETATM   14  O8  UNL     1      33.665   1.749 -18.222  1.00  0.00    -0.355 OA
HETATM   15  C27 UNL     1      34.942   1.137 -18.162  1.00  0.00     0.128 C 
HETATM   16  C28 UNL     1      35.130   0.658 -16.787  1.00  0.00     0.040 C 
HETATM   17  C29 UNL     1      35.894   2.061 -18.785  1.00  0.00     0.064 C 
HETATM   18  C30 UNL     1      34.937   2.807 -19.733  1.00  0.00     0.072 C 
ENDROOT
BRANCH   1  19
HETATM   19  C8  UNL     1      37.360   2.996 -16.912  1.00  0.00     0.213 C 
BRANCH  19  20
HETATM   20  O2  UNL     1      38.631   3.646 -17.117  1.00  0.00    -0.301 OA
BRANCH  20  21
HETATM   21  C7  UNL     1      39.440   3.254 -18.172  1.00  0.00     0.361 C 
HETATM   22  N1  UNL     1      39.761   1.889 -18.356  1.00  0.00    -0.330 N 
ATOM     23  H1  UNL     1      39.376   1.217 -17.692  1.00  0.00     0.165 HD
HETATM   24  O1  UNL     1      39.897   4.132 -18.980  1.00  0.00    -0.239 OA
BRANCH  22  25
HETATM   25  C6  UNL     1      40.586   1.387 -19.409  1.00  0.00     0.116 C 
HETATM   26  C2  UNL     1      39.795   0.809 -20.558  1.00  0.00     0.028 C 
HETATM   27  C1  UNL     1      40.252   1.359 -21.903  1.00  0.00     0.016 C 
HETATM   28  C3  UNL     1      40.097  -0.665 -20.521  1.00  0.00    -0.023 C 
HETATM   29  C4  UNL     1      41.042  -0.923 -19.636  1.00  0.00    -0.008 C 
HETATM   30  C5  UNL     1      41.515   0.313 -18.955  1.00  0.00     0.128 C 
HETATM   31 CL1  UNL     1      43.209   0.659 -19.377  1.00  0.00    -0.119 Cl
ENDBRANCH  22  25
ENDBRANCH  20  21
ENDBRANCH  19  20
ENDBRANCH   1  19
BRANCH   5  32
HETATM   32  C12 UNL     1      32.944   6.809 -20.545  1.00  0.00    -0.025 C 
HETATM   33  C13 UNL     1      31.951   6.869 -19.419  1.00  0.00     0.017 C 
HETATM   34  C14 UNL     1      33.499   8.211 -20.758  1.00  0.00     0.017 C 
HETATM   35  C15 UNL     1      32.295   6.396 -21.845  1.00  0.00     0.017 C 
ENDBRANCH   5  32
BRANCH  11  36
HETATM   36  C22 UNL     1      33.987  -0.462 -22.130  1.00  0.00    -0.002 A 
HETATM   37  C23 UNL     1      33.787  -0.817 -23.446  1.00  0.00     0.154 A 
HETATM   38  O5  UNL     1      33.838  -2.123 -23.513  1.00  0.00    -0.300 OA
HETATM   39  C24 UNL     1      34.056  -2.659 -22.357  1.00  0.00     0.183 A 
HETATM   40  C25 UNL     1      34.158  -1.641 -21.440  1.00  0.00     0.075 A 
BRANCH  39  41
HETATM   41  O6  UNL     1      34.164  -4.046 -22.101  1.00  0.00    -0.341 OA
ATOM     42  H6  UNL     1      34.604  -4.437 -21.355  1.00  0.00     0.220 HD
ENDBRANCH  39  41
ENDBRANCH  11  36
TORSDOF 7
ENDMDL
MODEL 5
REMARK VINA RESULT: -9.601100851      0.994      1.605
REMARK  7 active torsions:
REMARK  status: ('A' for Active; 'I' for Inactive)
REMARK    1  A    between atoms: C6_7  and  N1_8 
REMARK       I    between atoms: N1_8  and  C7_10 
REMARK    2  A    between atoms: C7_10  and  O2_12 
REMARK    3  A    between atoms: O2_12  and  C8_13 
REMARK    4  A    between atoms: C8_13  and  C9_14 
REMARK    5  A    between atoms: C11_18  and  C12_19 
REMARK    6  A    between atoms: C21_28  and  C22_29 
REMARK    7  A    between atoms: C24_32  and  O6_33 
ROOT
HETATM    1  C9  UNL     1      36.425   3.004 -17.816  1.00  0.00     0.156 C 
HETATM    2  O3  UNL     1      35.283   3.788 -17.588  1.00  0.00    -0.352 OA
HETATM    3  C10 UNL     1      34.991   4.048 -18.951  1.00  0.00     0.275 C 
HETATM    4  O4  UNL     1      33.897   4.809 -19.173  1.00  0.00    -0.354 OA
HETATM    5  C11 UNL     1      34.246   5.810 -20.093  1.00  0.00     0.132 C 
HETATM    6  C16 UNL     1      34.976   5.260 -21.285  1.00  0.00     0.033 C 
HETATM    7  C17 UNL     1      34.645   3.866 -21.643  1.00  0.00     0.009 C 
HETATM    8  C18 UNL     1      35.544   2.826 -20.952  1.00  0.00     0.011 C 
HETATM    9  C19 UNL     1      35.410   1.558 -21.807  1.00  0.00     0.020 C 
HETATM   10  C20 UNL     1      36.642   0.719 -21.735  1.00  0.00     0.013 C 
HETATM   11  C21 UNL     1      34.124   0.862 -21.541  1.00  0.00     0.163 C 
HETATM   12  O7  UNL     1      33.735   0.808 -20.240  1.00  0.00    -0.350 OA
HETATM   13  C26 UNL     1      33.695   1.980 -19.537  1.00  0.00     0.275 C 
HETATM   14  O8  UNL     1      33.629   1.618 -18.167  1.00  0.00    -0.355 OA
HETATM   15  C27 UNL     1      34.890   0.981 -18.055  1.00  0.00     0.128 C 
HETATM   16  C28 UNL     1      34.999   0.471 -16.682  1.00  0.00     0.040 C 
HETATM   17  C29 UNL     1      35.890   1.899 -18.610  1.00  0.00     0.064 C 
HETATM   18  C30 UNL     1      34.995   2.682 -19.590  1.00  0.00     0.072 C 
ENDROOT
BRANCH   1  19
HETATM   19  C8  UNL     1      37.274   2.770 -16.646  1.00  0.00     0.213 C 
BRANCH  19  20
HETATM   20  O2  UNL     1      38.212   1.696 -16.858  1.00  0.00    -0.301 OA
BRANCH  20  21
HETATM   21  C7  UNL     1      39.250   1.504 -15.958  1.00  0.00     0.361 C 
HETATM   22  N1  UNL     1      39.068   0.677 -14.826  1.00  0.00    -0.330 N 
ATOM     23  H1  UNL     1      38.159   0.234 -14.702  1.00  0.00     0.165 HD
HETATM   24  O1  UNL     1      40.374   2.080 -16.156  1.00  0.00    -0.239 OA
BRANCH  22  25
HETATM   25  C6  UNL     1      40.074   0.420 -13.843  1.00  0.00     0.116 C 
HETATM   26  C2  UNL     1      40.745  -0.921 -14.018  1.00  0.00     0.028 C 
HETATM   27  C1  UNL     1      42.264  -0.809 -13.998  1.00  0.00     0.016 C 
HETATM   28  C3  UNL     1      40.313  -1.721 -12.818  1.00  0.00    -0.023 C 
HETATM   29  C4  UNL     1      39.653  -0.957 -11.966  1.00  0.00    -0.008 C 
HETATM   30  C5  UNL     1      39.542   0.446 -12.450  1.00  0.00     0.128 C 
HETATM   31 CL1  UNL     1      40.455   1.552 -11.397  1.00  0.00    -0.119 Cl
ENDBRANCH  22  25
ENDBRANCH  20  21
ENDBRANCH  19  20
ENDBRANCH   1  19
BRANCH   5  32
HETATM   32  C12 UNL     1      33.117   6.736 -20.417  1.00  0.00    -0.025 C 
HETATM   33  C13 UNL     1      32.062   6.782 -19.348  1.00  0.00     0.017 C 
HETATM   34  C14 UNL     1      33.704   8.133 -20.559  1.00  0.00     0.017 C 
HETATM   35  C15 UNL     1      32.536   6.369 -21.763  1.00  0.00     0.017 C 
ENDBRANCH   5  32
BRANCH  11  36
HETATM   36  C22 UNL     1      34.112  -0.521 -22.099  1.00  0.00    -0.002 A 
HETATM   37  C23 UNL     1      33.923  -0.848 -23.424  1.00  0.00     0.154 A 
HETATM   38  O5  UNL     1      33.973  -2.152 -23.518  1.00  0.00    -0.300 OA
HETATM   39  C24 UNL     1      34.179  -2.712 -22.371  1.00  0.00     0.183 A 
HETATM   40  C25 UNL     1      34.275  -1.714 -21.432  1.00  0.00     0.075 A 
BRANCH  39  41
HETATM   41  O6  UNL     1      34.283  -4.104 -22.143  1.00  0.00    -0.341 OA
ATOM     42  H6  UNL     1      33.888  -4.783 -22.678  1.00  0.00     0.220 HD
ENDBRANCH  39  41
ENDBRANCH  11  36
TORSDOF 7
ENDMDL
