MODEL 1
REMARK VINA RESULT: -6.631351472      0.000      0.000
REMARK  10 active torsions:
REMARK  status: ('A' for Active; 'I' for Inactive)
REMARK    1  A    between atoms: C1_2  and  C2_3 
REMARK       I    between atoms: C1_2  and  N6_34 
REMARK    2  A    between atoms: C2_3  and  N1_4 
REMARK    3  A    between atoms: N1_4  and  C3_6 
REMARK    4  A    between atoms: N3_11  and  C5_12 
REMARK    5  A    between atoms: C5_12  and  C6_13 
REMARK    6  A    between atoms: C12_19  and  N4_20 
REMARK    7  A    between atoms: N4_20  and  C13_22 
REMARK    8  A    between atoms: N6_34  and  C23_36 
REMARK    9  A    between atoms: C23_36  and  C24_37 
REMARK   10  A    between atoms: C24_37  and  N7_38 
ROOT
HETATM    1  C3  UNL     1      10.838  15.005 -24.074  1.00  0.00     0.697 A 
HETATM    2  N2  UNL     1      10.083  16.060 -24.384  1.00  0.00    -0.140 N 
ATOM      3  H2  UNL     1      10.346  16.634 -25.185  1.00  0.00     0.189 HD
HETATM    4  C4  UNL     1       8.969  16.399 -23.666  1.00  0.00     0.355 A 
HETATM    5  O2  UNL     1       8.349  17.401 -24.056  1.00  0.00    -0.245 OA
HETATM    6  N3  UNL     1       8.638  15.633 -22.620  1.00  0.00    -0.127 N 
HETATM    7  C12 UNL     1       9.393  14.570 -22.303  1.00  0.00     0.703 A 
HETATM    8  N5  UNL     1      10.469  14.265 -23.017  1.00  0.00    -0.022 N 
ATOM      9  H5  UNL     1      11.027  13.452 -22.757  1.00  0.00     0.203 HD
ENDROOT
BRANCH   1  10
HETATM   10  N1  UNL     1      11.904  14.666 -24.759  1.00  0.00    -0.217 N 
ATOM     11  H1  UNL     1      12.712  15.287 -24.794  1.00  0.00     0.178 HD
BRANCH  10  12
HETATM   12  C2  UNL     1      11.923  13.420 -25.454  1.00  0.00     0.240 C 
BRANCH  12  13
HETATM   13  C1  UNL     1      12.154  12.260 -24.571  1.00  0.00     0.235 C 
HETATM   14  O1  UNL     1      13.027  12.355 -23.655  1.00  0.00    -0.272 OA
HETATM   15  N6  UNL     1      11.412  11.076 -24.755  1.00  0.00    -0.358 N 
ATOM     16  H6  UNL     1      10.722  11.020 -25.504  1.00  0.00     0.162 HD
BRANCH  15  17
HETATM   17  C23 UNL     1      11.626   9.940 -23.885  1.00  0.00     0.143 C 
BRANCH  17  18
HETATM   18  C24 UNL     1      10.375   9.116 -23.811  1.00  0.00     0.147 C 
BRANCH  18  19
HETATM   19  N7  UNL     1      10.087   8.957 -22.376  1.00  0.00    -0.365 N 
HETATM   20  C25 UNL     1       9.283   7.962 -21.973  1.00  0.00     0.090 A 
HETATM   21  C26 UNL     1       9.029   7.838 -20.606  1.00  0.00     0.017 A 
HETATM   22  C27 UNL     1       9.587   8.713 -19.684  1.00  0.00     0.003 A 
HETATM   23  C28 UNL     1      10.409   9.725 -20.140  1.00  0.00     0.017 A 
HETATM   24  C29 UNL     1      10.627   9.805 -21.486  1.00  0.00     0.090 A 
ENDBRANCH  18  19
ENDBRANCH  17  18
ENDBRANCH  15  17
ENDBRANCH  12  13
ENDBRANCH  10  12
ENDBRANCH   1  10
BRANCH   7  25
HETATM   25  N4  UNL     1       9.045  13.787 -21.300  1.00  0.00    -0.191 N 
ATOM     26  H4  UNL     1       9.359  13.997 -20.353  1.00  0.00     0.184 HD
BRANCH  25  27
HETATM   27  C13 UNL     1       8.225  12.642 -21.546  1.00  0.00     0.050 A 
HETATM   28  C14 UNL     1       8.038  12.152 -22.826  1.00  0.00     0.031 A 
HETATM   29  C15 UNL     1       7.255  11.052 -23.108  1.00  0.00     0.014 A 
HETATM   30  C16 UNL     1       6.617  10.393 -22.077  1.00  0.00    -0.026 A 
HETATM   31  C17 UNL     1       5.818   9.283 -22.298  1.00  0.00     0.012 A 
HETATM   32  C21 UNL     1       6.783  10.856 -20.788  1.00  0.00    -0.024 A 
HETATM   33  C18 UNL     1       5.209   8.671 -21.222  1.00  0.00     0.001 A 
HETATM   34  C19 UNL     1       5.353   9.107 -19.921  1.00  0.00     0.001 A 
HETATM   35  C20 UNL     1       6.154  10.215 -19.727  1.00  0.00     0.012 A 
HETATM   36  C22 UNL     1       7.581  11.974 -20.524  1.00  0.00     0.042 A 
ENDBRANCH  25  27
ENDBRANCH   7  25
BRANCH   6  37
HETATM   37  C5  UNL     1       7.443  15.980 -21.881  1.00  0.00     0.191 C 
BRANCH  37  38
HETATM   38  C6  UNL     1       7.727  16.410 -20.509  1.00  0.00    -0.039 A 
HETATM   39  C7  UNL     1       8.478  17.487 -20.138  1.00  0.00     0.009 A 
HETATM   40  C8  UNL     1       8.729  17.838 -18.801  1.00  0.00     0.001 A 
HETATM   41  C9  UNL     1       8.200  17.067 -17.801  1.00  0.00     0.000 A 
HETATM   42  C10 UNL     1       7.439  15.973 -18.150  1.00  0.00     0.001 A 
HETATM   43  C11 UNL     1       7.198  15.638 -19.460  1.00  0.00     0.009 A 
ENDBRANCH  37  38
ENDBRANCH   6  37
TORSDOF 10
ENDMDL
MODEL 2
REMARK VINA RESULT: -6.445706712      2.358      5.149
REMARK  10 active torsions:
REMARK  status: ('A' for Active; 'I' for Inactive)
REMARK    1  A    between atoms: C1_2  and  C2_3 
REMARK       I    between atoms: C1_2  and  N6_34 
REMARK    2  A    between atoms: C2_3  and  N1_4 
REMARK    3  A    between atoms: N1_4  and  C3_6 
REMARK    4  A    between atoms: N3_11  and  C5_12 
REMARK    5  A    between atoms: C5_12  and  C6_13 
REMARK    6  A    between atoms: C12_19  and  N4_20 
REMARK    7  A    between atoms: N4_20  and  C13_22 
REMARK    8  A    between atoms: N6_34  and  C23_36 
REMARK    9  A    between atoms: C23_36  and  C24_37 
REMARK   10  A    between atoms: C24_37  and  N7_38 
ROOT
HETATM    1  C3  UNL     1       8.605  17.733 -20.748  1.00  0.00     0.697 A 
HETATM    2  N2  UNL     1       7.718  18.578 -21.273  1.00  0.00    -0.140 N 
ATOM      3  H2  UNL     1       7.163  19.162 -20.646  1.00  0.00     0.189 HD
HETATM    4  C4  UNL     1       7.525  18.692 -22.623  1.00  0.00     0.355 A 
HETATM    5  O2  UNL     1       6.672  19.516 -22.988  1.00  0.00    -0.245 OA
HETATM    6  N3  UNL     1       8.262  17.921 -23.431  1.00  0.00    -0.127 N 
HETATM    7  C12 UNL     1       9.157  17.068 -22.908  1.00  0.00     0.703 A 
HETATM    8  N5  UNL     1       9.323  16.978 -21.595  1.00  0.00    -0.022 N 
ATOM      9  H5  UNL     1      10.009  16.323 -21.221  1.00  0.00     0.203 HD
ENDROOT
BRANCH   1  10
HETATM   10  N1  UNL     1       8.804  17.620 -19.456  1.00  0.00    -0.217 N 
ATOM     11  H1  UNL     1       9.364  18.313 -18.959  1.00  0.00     0.178 HD
BRANCH  10  12
HETATM   12  C2  UNL     1       8.228  16.520 -18.752  1.00  0.00     0.240 C 
BRANCH  12  13
HETATM   13  C1  UNL     1       7.937  15.360 -19.616  1.00  0.00     0.235 C 
HETATM   14  O1  UNL     1       6.916  15.400 -20.369  1.00  0.00    -0.272 OA
HETATM   15  N6  UNL     1       8.786  14.234 -19.592  1.00  0.00    -0.358 N 
ATOM     16  H6  UNL     1       9.595  14.220 -18.972  1.00  0.00     0.162 HD
BRANCH  15  17
HETATM   17  C23 UNL     1       8.511  13.098 -20.446  1.00  0.00     0.143 C 
BRANCH  17  18
HETATM   18  C24 UNL     1       9.269  11.901 -19.954  1.00  0.00     0.147 C 
BRANCH  18  19
HETATM   19  N7  UNL     1       8.372  10.751 -20.156  1.00  0.00    -0.365 N 
HETATM   20  C25 UNL     1       8.878   9.509 -20.125  1.00  0.00     0.090 A 
HETATM   21  C26 UNL     1       8.001   8.440 -20.320  1.00  0.00     0.017 A 
HETATM   22  C27 UNL     1       6.646   8.646 -20.541  1.00  0.00     0.003 A 
HETATM   23  C28 UNL     1       6.166   9.941 -20.566  1.00  0.00     0.017 A 
HETATM   24  C29 UNL     1       7.061  10.953 -20.370  1.00  0.00     0.090 A 
ENDBRANCH  18  19
ENDBRANCH  17  18
ENDBRANCH  15  17
ENDBRANCH  12  13
ENDBRANCH  10  12
ENDBRANCH   1  10
BRANCH   7  25
HETATM   25  N4  UNL     1       9.918  16.339 -23.702  1.00  0.00    -0.191 N 
ATOM     26  H4  UNL     1      10.592  16.788 -24.322  1.00  0.00     0.184 HD
BRANCH  25  27
HETATM   27  C13 UNL     1       9.792  14.915 -23.691  1.00  0.00     0.050 A 
HETATM   28  C14 UNL     1      10.888  14.097 -23.478  1.00  0.00     0.031 A 
HETATM   29  C15 UNL     1      10.812  12.720 -23.460  1.00  0.00     0.014 A 
HETATM   30  C16 UNL     1       9.592  12.106 -23.662  1.00  0.00    -0.026 A 
HETATM   31  C17 UNL     1       9.454  10.729 -23.656  1.00  0.00     0.012 A 
HETATM   32  C21 UNL     1       8.480  12.893 -23.877  1.00  0.00    -0.024 A 
HETATM   33  C18 UNL     1       8.206  10.180 -23.865  1.00  0.00     0.001 A 
HETATM   34  C19 UNL     1       7.073  10.936 -24.082  1.00  0.00     0.001 A 
HETATM   35  C20 UNL     1       7.237  12.307 -24.085  1.00  0.00     0.012 A 
HETATM   36  C22 UNL     1       8.579  14.288 -23.892  1.00  0.00     0.042 A 
ENDBRANCH  25  27
ENDBRANCH   7  25
BRANCH   6  37
HETATM   37  C5  UNL     1       8.075  18.065 -24.858  1.00  0.00     0.191 C 
BRANCH  37  38
HETATM   38  C6  UNL     1       7.220  17.018 -25.428  1.00  0.00    -0.039 A 
HETATM   39  C7  UNL     1       6.014  16.605 -24.943  1.00  0.00     0.009 A 
HETATM   40  C8  UNL     1       5.250  15.581 -25.526  1.00  0.00     0.001 A 
HETATM   41  C9  UNL     1       5.727  14.951 -26.644  1.00  0.00     0.000 A 
HETATM   42  C10 UNL     1       6.943  15.349 -27.153  1.00  0.00     0.001 A 
HETATM   43  C11 UNL     1       7.683  16.352 -26.576  1.00  0.00     0.009 A 
ENDBRANCH  37  38
ENDBRANCH   6  37
TORSDOF 10
ENDMDL
MODEL 3
REMARK VINA RESULT: -6.337237554      3.683      4.979
REMARK  10 active torsions:
REMARK  status: ('A' for Active; 'I' for Inactive)
REMARK    1  A    between atoms: C1_2  and  C2_3 
REMARK       I    between atoms: C1_2  and  N6_34 
REMARK    2  A    between atoms: C2_3  and  N1_4 
REMARK    3  A    between atoms: N1_4  and  C3_6 
REMARK    4  A    between atoms: N3_11  and  C5_12 
REMARK    5  A    between atoms: C5_12  and  C6_13 
REMARK    6  A    between atoms: C12_19  and  N4_20 
REMARK    7  A    between atoms: N4_20  and  C13_22 
REMARK    8  A    between atoms: N6_34  and  C23_36 
REMARK    9  A    between atoms: C23_36  and  C24_37 
REMARK   10  A    between atoms: C24_37  and  N7_38 
ROOT
HETATM    1  C3  UNL     1      11.083  14.809 -24.076  1.00  0.00     0.697 A 
HETATM    2  N2  UNL     1      10.253  15.807 -24.382  1.00  0.00    -0.140 N 
ATOM      3  H2  UNL     1      10.479  16.410 -25.173  1.00  0.00     0.189 HD
HETATM    4  C4  UNL     1       9.108  16.050 -23.673  1.00  0.00     0.355 A 
HETATM    5  O2  UNL     1       8.418  17.007 -24.058  1.00  0.00    -0.245 OA
HETATM    6  N3  UNL     1       8.826  15.248 -22.639  1.00  0.00    -0.127 N 
HETATM    7  C12 UNL     1       9.657  14.242 -22.327  1.00  0.00     0.703 A 
HETATM    8  N5  UNL     1      10.761  14.029 -23.032  1.00  0.00    -0.022 N 
ATOM      9  H5  UNL     1      11.377  13.258 -22.775  1.00  0.00     0.203 HD
ENDROOT
BRANCH   1  10
HETATM   10  N1  UNL     1      12.179  14.562 -24.753  1.00  0.00    -0.217 N 
ATOM     11  H1  UNL     1      12.351  15.028 -25.643  1.00  0.00     0.178 HD
BRANCH  10  12
HETATM   12  C2  UNL     1      13.130  13.634 -24.231  1.00  0.00     0.240 C 
BRANCH  12  13
HETATM   13  C1  UNL     1      14.483  14.203 -24.080  1.00  0.00     0.235 C 
HETATM   14  O1  UNL     1      14.920  14.985 -24.980  1.00  0.00    -0.272 OA
HETATM   15  N6  UNL     1      15.264  13.874 -22.955  1.00  0.00    -0.358 N 
ATOM     16  H6  UNL     1      14.897  13.235 -22.250  1.00  0.00     0.162 HD
BRANCH  15  17
HETATM   17  C23 UNL     1      16.588  14.438 -22.797  1.00  0.00     0.143 C 
BRANCH  17  18
HETATM   18  C24 UNL     1      17.175  13.992 -21.491  1.00  0.00     0.147 C 
BRANCH  18  19
HETATM   19  N7  UNL     1      17.630  15.221 -20.818  1.00  0.00    -0.365 N 
HETATM   20  C25 UNL     1      18.620  15.148 -19.916  1.00  0.00     0.090 A 
HETATM   21  C26 UNL     1      19.028  16.330 -19.295  1.00  0.00     0.017 A 
HETATM   22  C27 UNL     1      18.432  17.548 -19.596  1.00  0.00     0.003 A 
HETATM   23  C28 UNL     1      17.416  17.579 -20.531  1.00  0.00     0.017 A 
HETATM   24  C29 UNL     1      17.053  16.397 -21.110  1.00  0.00     0.090 A 
ENDBRANCH  18  19
ENDBRANCH  17  18
ENDBRANCH  15  17
ENDBRANCH  12  13
ENDBRANCH  10  12
ENDBRANCH   1  10
BRANCH   7  25
HETATM   25  N4  UNL     1       9.359  13.422 -21.338  1.00  0.00    -0.191 N 
ATOM     26  H4  UNL     1       9.781  13.553 -20.418  1.00  0.00     0.184 HD
BRANCH  25  27
HETATM   27  C13 UNL     1       8.443  12.347 -21.559  1.00  0.00     0.050 A 
HETATM   28  C14 UNL     1       8.223  11.838 -22.826  1.00  0.00     0.031 A 
HETATM   29  C15 UNL     1       7.347  10.803 -23.084  1.00  0.00     0.014 A 
HETATM   30  C16 UNL     1       6.646  10.234 -22.041  1.00  0.00    -0.026 A 
HETATM   31  C17 UNL     1       5.753   9.194 -22.238  1.00  0.00     0.012 A 
HETATM   32  C21 UNL     1       6.842  10.719 -20.764  1.00  0.00    -0.024 A 
HETATM   33  C18 UNL     1       5.084   8.671 -21.152  1.00  0.00     0.001 A 
HETATM   34  C19 UNL     1       5.256   9.130 -19.863  1.00  0.00     0.001 A 
HETATM   35  C20 UNL     1       6.150  10.169 -19.693  1.00  0.00     0.012 A 
HETATM   36  C22 UNL     1       7.734  11.769 -20.525  1.00  0.00     0.042 A 
ENDBRANCH  25  27
ENDBRANCH   7  25
BRANCH   6  37
HETATM   37  C5  UNL     1       7.600  15.493 -21.911  1.00  0.00     0.191 C 
BRANCH  37  38
HETATM   38  C6  UNL     1       7.828  16.138 -20.614  1.00  0.00    -0.039 A 
HETATM   39  C7  UNL     1       8.425  17.347 -20.406  1.00  0.00     0.009 A 
HETATM   40  C8  UNL     1       8.632  17.905 -19.133  1.00  0.00     0.001 A 
HETATM   41  C9  UNL     1       8.218  17.210 -18.029  1.00  0.00     0.000 A 
HETATM   42  C10 UNL     1       7.613  15.986 -18.212  1.00  0.00     0.001 A 
HETATM   43  C11 UNL     1       7.416  15.449 -19.460  1.00  0.00     0.009 A 
ENDBRANCH  37  38
ENDBRANCH   6  37
TORSDOF 10
ENDMDL
MODEL 4
REMARK VINA RESULT: -6.217841635      2.387      3.722
REMARK  10 active torsions:
REMARK  status: ('A' for Active; 'I' for Inactive)
REMARK    1  A    between atoms: C1_2  and  C2_3 
REMARK       I    between atoms: C1_2  and  N6_34 
REMARK    2  A    between atoms: C2_3  and  N1_4 
REMARK    3  A    between atoms: N1_4  and  C3_6 
REMARK    4  A    between atoms: N3_11  and  C5_12 
REMARK    5  A    between atoms: C5_12  and  C6_13 
REMARK    6  A    between atoms: C12_19  and  N4_20 
REMARK    7  A    between atoms: N4_20  and  C13_22 
REMARK    8  A    between atoms: N6_34  and  C23_36 
REMARK    9  A    between atoms: C23_36  and  C24_37 
REMARK   10  A    between atoms: C24_37  and  N7_38 
ROOT
HETATM    1  C3  UNL     1      10.529  11.919 -22.315  1.00  0.00     0.697 A 
HETATM    2  N2  UNL     1      10.599  13.138 -22.851  1.00  0.00    -0.140 N 
ATOM      3  H2  UNL     1      11.392  13.367 -23.450  1.00  0.00     0.189 HD
HETATM    4  C4  UNL     1       9.643  14.091 -22.626  1.00  0.00     0.355 A 
HETATM    5  O2  UNL     1       9.821  15.186 -23.183  1.00  0.00    -0.245 OA
HETATM    6  N3  UNL     1       8.609  13.773 -21.839  1.00  0.00    -0.127 N 
HETATM    7  C12 UNL     1       8.533  12.547 -21.298  1.00  0.00     0.703 A 
HETATM    8  N5  UNL     1       9.474  11.642 -21.533  1.00  0.00    -0.022 N 
ATOM      9  H5  UNL     1       9.395  10.717 -21.110  1.00  0.00     0.203 HD
ENDROOT
BRANCH   1  10
HETATM   10  N1  UNL     1      11.435  10.994 -22.530  1.00  0.00    -0.217 N 
ATOM     11  H1  UNL     1      12.409  11.253 -22.683  1.00  0.00     0.178 HD
BRANCH  10  12
HETATM   12  C2  UNL     1      11.044   9.621 -22.545  1.00  0.00     0.240 C 
BRANCH  12  13
HETATM   13  C1  UNL     1      11.611   8.838 -21.431  1.00  0.00     0.235 C 
HETATM   14  O1  UNL     1      12.815   9.047 -21.088  1.00  0.00    -0.272 OA
HETATM   15  N6  UNL     1      10.819   7.877 -20.770  1.00  0.00    -0.358 N 
ATOM     16  H6  UNL     1       9.857   7.719 -21.069  1.00  0.00     0.162 HD
BRANCH  15  17
HETATM   17  C23 UNL     1      11.366   7.115 -19.668  1.00  0.00     0.143 C 
BRANCH  17  18
HETATM   18  C24 UNL     1      10.609   7.425 -18.412  1.00  0.00     0.147 C 
BRANCH  18  19
HETATM   19  N7  UNL     1      11.598   7.993 -17.481  1.00  0.00    -0.365 N 
HETATM   20  C25 UNL     1      12.077   7.232 -16.485  1.00  0.00     0.090 A 
HETATM   21  C26 UNL     1      13.013   7.799 -15.619  1.00  0.00     0.017 A 
HETATM   22  C27 UNL     1      13.441   9.111 -15.775  1.00  0.00     0.003 A 
HETATM   23  C28 UNL     1      12.924   9.861 -16.813  1.00  0.00     0.017 A 
HETATM   24  C29 UNL     1      12.011   9.262 -17.633  1.00  0.00     0.090 A 
ENDBRANCH  18  19
ENDBRANCH  17  18
ENDBRANCH  15  17
ENDBRANCH  12  13
ENDBRANCH  10  12
ENDBRANCH   1  10
BRANCH   7  25
HETATM   25  N4  UNL     1       7.493  12.214 -20.558  1.00  0.00    -0.191 N 
ATOM     26  H4  UNL     1       7.206  12.807 -19.780  1.00  0.00     0.184 HD
BRANCH  25  27
HETATM   27  C13 UNL     1       6.768  11.018 -20.853  1.00  0.00     0.050 A 
HETATM   28  C14 UNL     1       6.251  10.222 -19.846  1.00  0.00     0.031 A 
HETATM   29  C15 UNL     1       5.547   9.060 -20.086  1.00  0.00     0.014 A 
HETATM   30  C16 UNL     1       5.337   8.653 -21.387  1.00  0.00    -0.026 A 
HETATM   31  C17 UNL     1       4.639   7.496 -21.690  1.00  0.00     0.012 A 
HETATM   32  C21 UNL     1       5.839   9.423 -22.415  1.00  0.00    -0.024 A 
HETATM   33  C18 UNL     1       4.464   7.146 -23.013  1.00  0.00     0.001 A 
HETATM   34  C19 UNL     1       4.952   7.892 -24.065  1.00  0.00     0.001 A 
HETATM   35  C20 UNL     1       5.646   9.041 -23.737  1.00  0.00     0.012 A 
HETATM   36  C22 UNL     1       6.551  10.598 -22.150  1.00  0.00     0.042 A 
ENDBRANCH  25  27
ENDBRANCH   7  25
BRANCH   6  37
HETATM   37  C5  UNL     1       7.588  14.775 -21.628  1.00  0.00     0.191 C 
BRANCH  37  38
HETATM   38  C6  UNL     1       7.879  15.652 -20.489  1.00  0.00    -0.039 A 
HETATM   39  C7  UNL     1       7.842  15.306 -19.170  1.00  0.00     0.009 A 
HETATM   40  C8  UNL     1       8.114  16.200 -18.122  1.00  0.00     0.001 A 
HETATM   41  C9  UNL     1       8.437  17.496 -18.422  1.00  0.00     0.000 A 
HETATM   42  C10 UNL     1       8.481  17.871 -19.746  1.00  0.00     0.001 A 
HETATM   43  C11 UNL     1       8.213  16.990 -20.765  1.00  0.00     0.009 A 
ENDBRANCH  37  38
ENDBRANCH   6  37
TORSDOF 10
ENDMDL
MODEL 5
REMARK VINA RESULT: -6.150337961      3.379      4.456
REMARK  10 active torsions:
REMARK  status: ('A' for Active; 'I' for Inactive)
REMARK    1  A    between atoms: C1_2  and  C2_3 
REMARK       I    between atoms: C1_2  and  N6_34 
REMARK    2  A    between atoms: C2_3  and  N1_4 
REMARK    3  A    between atoms: N1_4  and  C3_6 
REMARK    4  A    between atoms: N3_11  and  C5_12 
REMARK    5  A    between atoms: C5_12  and  C6_13 
REMARK    6  A    between atoms: C12_19  and  N4_20 
REMARK    7  A    between atoms: N4_20  and  C13_22 
REMARK    8  A    between atoms: N6_34  and  C23_36 
REMARK    9  A    between atoms: C23_36  and  C24_37 
REMARK   10  A    between atoms: C24_37  and  N7_38 
ROOT
HETATM    1  C3  UNL     1      11.285  14.591 -23.834  1.00  0.00     0.697 A 
HETATM    2  N2  UNL     1      10.503  15.606 -24.202  1.00  0.00    -0.140 N 
ATOM      3  H2  UNL     1      10.790  16.189 -24.989  1.00  0.00     0.189 HD
HETATM    4  C4  UNL     1       9.328  15.894 -23.562  1.00  0.00     0.355 A 
HETATM    5  O2  UNL     1       8.688  16.863 -24.000  1.00  0.00    -0.245 OA
HETATM    6  N3  UNL     1       8.966  15.119 -22.533  1.00  0.00    -0.127 N 
HETATM    7  C12 UNL     1       9.749  14.095 -22.159  1.00  0.00     0.703 A 
HETATM    8  N5  UNL     1      10.883  13.839 -22.797  1.00  0.00    -0.022 N 
ATOM      9  H5  UNL     1      11.462  13.056 -22.494  1.00  0.00     0.203 HD
ENDROOT
BRANCH   1  10
HETATM   10  N1  UNL     1      12.410  14.301 -24.445  1.00  0.00    -0.217 N 
ATOM     11  H1  UNL     1      12.881  15.003 -25.015  1.00  0.00     0.178 HD
BRANCH  10  12
HETATM   12  C2  UNL     1      12.967  12.995 -24.302  1.00  0.00     0.240 C 
BRANCH  12  13
HETATM   13  C1  UNL     1      14.358  13.002 -23.811  1.00  0.00     0.235 C 
HETATM   14  O1  UNL     1      14.843  11.929 -23.335  1.00  0.00    -0.272 OA
HETATM   15  N6  UNL     1      15.122  14.185 -23.873  1.00  0.00    -0.358 N 
ATOM     16  H6  UNL     1      14.708  15.037 -24.250  1.00  0.00     0.162 HD
BRANCH  15  17
HETATM   17  C23 UNL     1      16.491  14.193 -23.403  1.00  0.00     0.143 C 
BRANCH  17  18
HETATM   18  C24 UNL     1      16.663  15.264 -22.368  1.00  0.00     0.147 C 
BRANCH  18  19
HETATM   19  N7  UNL     1      17.372  14.624 -21.246  1.00  0.00    -0.365 N 
HETATM   20  C25 UNL     1      17.875  15.388 -20.265  1.00  0.00     0.090 A 
HETATM   21  C26 UNL     1      18.541  14.751 -19.216  1.00  0.00     0.017 A 
HETATM   22  C27 UNL     1      18.684  13.370 -19.182  1.00  0.00     0.003 A 
HETATM   23  C28 UNL     1      18.151  12.621 -20.212  1.00  0.00     0.017 A 
HETATM   24  C29 UNL     1      17.509  13.289 -21.215  1.00  0.00     0.090 A 
ENDBRANCH  18  19
ENDBRANCH  17  18
ENDBRANCH  15  17
ENDBRANCH  12  13
ENDBRANCH  10  12
ENDBRANCH   1  10
BRANCH   7  25
HETATM   25  N4  UNL     1       9.373  13.301 -21.174  1.00  0.00    -0.191 N 
ATOM     26  H4  UNL     1       9.746  13.438 -20.235  1.00  0.00     0.184 HD
BRANCH  25  27
HETATM   27  C13 UNL     1       8.442  12.247 -21.430  1.00  0.00     0.050 A 
HETATM   28  C14 UNL     1       8.238  11.760 -22.709  1.00  0.00     0.031 A 
HETATM   29  C15 UNL     1       7.349  10.747 -22.999  1.00  0.00     0.014 A 
HETATM   30  C16 UNL     1       6.616  10.176 -21.979  1.00  0.00    -0.026 A 
HETATM   31  C17 UNL     1       5.708   9.156 -22.209  1.00  0.00     0.012 A 
HETATM   32  C21 UNL     1       6.795  10.639 -20.692  1.00  0.00    -0.024 A 
HETATM   33  C18 UNL     1       5.007   8.630 -21.144  1.00  0.00     0.001 A 
HETATM   34  C19 UNL     1       5.162   9.067 -19.845  1.00  0.00     0.001 A 
HETATM   35  C20 UNL     1       6.072  10.086 -19.642  1.00  0.00     0.012 A 
HETATM   36  C22 UNL     1       7.702  11.668 -20.419  1.00  0.00     0.042 A 
ENDBRANCH  25  27
ENDBRANCH   7  25
BRANCH   6  37
HETATM   37  C5  UNL     1       7.709  15.410 -21.878  1.00  0.00     0.191 C 
BRANCH  37  38
HETATM   38  C6  UNL     1       7.883  16.089 -20.590  1.00  0.00    -0.039 A 
HETATM   39  C7  UNL     1       8.431  17.323 -20.394  1.00  0.00     0.009 A 
HETATM   40  C8  UNL     1       8.587  17.914 -19.129  1.00  0.00     0.001 A 
HETATM   41  C9  UNL     1       8.173  17.226 -18.020  1.00  0.00     0.000 A 
HETATM   42  C10 UNL     1       7.617  15.978 -18.192  1.00  0.00     0.001 A 
HETATM   43  C11 UNL     1       7.469  15.408 -19.432  1.00  0.00     0.009 A 
ENDBRANCH  37  38
ENDBRANCH   6  37
TORSDOF 10
ENDMDL
