MODEL 1
REMARK VINA RESULT: -7.777046152      0.000      0.000
REMARK  4 active torsions:
REMARK  status: ('A' for Active; 'I' for Inactive)
REMARK    1  A    between atoms: C6_9  and  C7_10 
REMARK    2  A    between atoms: C7_10  and  C8_11 
REMARK    3  A    between atoms: C7_10  and  N4_26 
REMARK    4  A    between atoms: C9_14  and  C10_15 
ROOT
HETATM    1  C8  UNL     1      34.333  36.805  22.535  1.00  0.00     0.085 A 
HETATM    2  N2  UNL     1      34.146  36.087  21.417  1.00  0.00    -0.349 N 
ATOM      3  H2  UNL     1      33.424  35.366  21.390  1.00  0.00     0.166 HD
HETATM    4  C9  UNL     1      34.878  36.307  20.373  1.00  0.00     0.083 A 
HETATM    5  S1  UNL     1      35.926  37.553  20.853  1.00  0.00    -0.065 SA
HETATM    6  C15 UNL     1      35.336  37.744  22.466  1.00  0.00     0.082 A 
HETATM    7 BR1  UNL     1      35.996  38.956  23.824  1.00  0.00    -0.041 Br
ENDROOT
BRANCH   1   8
HETATM    8  C7  UNL     1      33.328  36.719  23.638  1.00  0.00     0.067 C 
BRANCH   8   9
HETATM    9  C6  UNL     1      33.585  36.168  24.919  1.00  0.00     0.002 C 
HETATM   10  C2  UNL     1      34.587  35.355  25.499  1.00  0.00    -0.056 C 
HETATM   11  C1  UNL     1      35.801  34.966  25.121  1.00  0.00     0.019 C 
HETATM   12  C3  UNL     1      34.277  34.790  26.881  1.00  0.00     0.066 C 
HETATM   13  C4  UNL     1      33.297  35.531  27.683  1.00  0.00     0.237 C 
HETATM   14  N1  UNL     1      32.240  36.178  26.931  1.00  0.00    -0.071 N 
HETATM   15  C5  UNL     1      32.954  37.086  26.030  1.00  0.00     0.273 C 
ATOM     16  H12 UNL     1      31.603  35.534  26.461  1.00  0.00     0.277 HD
ATOM     17  H11 UNL     1      31.531  36.631  27.507  1.00  0.00     0.277 HD
ENDBRANCH   8   9
BRANCH   8  18
HETATM   18  N4  UNL     1      32.017  36.340  23.060  1.00  0.00    -0.387 N 
HETATM   19  C16 UNL     1      31.063  37.385  23.174  1.00  0.00     0.149 C 
HETATM   20  C17 UNL     1      31.548  35.051  23.343  1.00  0.00     0.149 C 
ENDBRANCH   8  18
ENDBRANCH   1   8
BRANCH   4  21
HETATM   21  C10 UNL     1      34.769  35.607  19.037  1.00  0.00     0.242 C 
HETATM   22  C11 UNL     1      34.414  36.638  17.993  1.00  0.00     0.040 C 
HETATM   23  C12 UNL     1      34.820  36.174  16.598  1.00  0.00     0.004 C 
HETATM   24  C13 UNL     1      36.252  35.745  16.537  1.00  0.00     0.027 C 
HETATM   25  C14 UNL     1      36.874  35.951  17.908  1.00  0.00     0.233 C 
HETATM   26  N3  UNL     1      36.116  35.065  18.813  1.00  0.00    -0.065 N 
ATOM     27  H32 UNL     1      36.613  34.900  19.689  1.00  0.00     0.278 HD
ATOM     28  H31 UNL     1      36.090  34.104  18.473  1.00  0.00     0.278 HD
ENDBRANCH   4  21
TORSDOF 4
ENDMDL
MODEL 2
REMARK VINA RESULT: -7.580739318      1.090      1.669
REMARK  4 active torsions:
REMARK  status: ('A' for Active; 'I' for Inactive)
REMARK    1  A    between atoms: C6_9  and  C7_10 
REMARK    2  A    between atoms: C7_10  and  C8_11 
REMARK    3  A    between atoms: C7_10  and  N4_26 
REMARK    4  A    between atoms: C9_14  and  C10_15 
ROOT
HETATM    1  C8  UNL     1      34.218  36.899  22.566  1.00  0.00     0.085 A 
HETATM    2  N2  UNL     1      33.972  36.214  21.439  1.00  0.00    -0.349 N 
ATOM      3  H2  UNL     1      33.174  35.580  21.392  1.00  0.00     0.166 HD
HETATM    4  C9  UNL     1      34.745  36.356  20.410  1.00  0.00     0.083 A 
HETATM    5  S1  UNL     1      35.918  37.472  20.921  1.00  0.00    -0.065 SA
HETATM    6  C15 UNL     1      35.321  37.718  22.524  1.00  0.00     0.082 A 
HETATM    7 BR1  UNL     1      36.087  38.839  23.905  1.00  0.00    -0.041 Br
ENDROOT
BRANCH   1   8
HETATM    8  C7  UNL     1      33.187  36.921  23.649  1.00  0.00     0.067 C 
BRANCH   8   9
HETATM    9  C6  UNL     1      32.680  35.767  24.300  1.00  0.00     0.002 C 
HETATM   10  C2  UNL     1      32.321  34.454  23.916  1.00  0.00    -0.056 C 
HETATM   11  C1  UNL     1      32.522  33.714  22.829  1.00  0.00     0.019 C 
HETATM   12  C3  UNL     1      31.550  33.639  24.951  1.00  0.00     0.066 C 
HETATM   13  C4  UNL     1      31.725  34.034  26.353  1.00  0.00     0.237 C 
HETATM   14  N1  UNL     1      31.928  35.452  26.578  1.00  0.00    -0.071 N 
HETATM   15  C5  UNL     1      33.134  35.762  25.806  1.00  0.00     0.273 C 
ATOM     16  H12 UNL     1      31.122  36.034  26.350  1.00  0.00     0.277 HD
ATOM     17  H11 UNL     1      31.980  35.719  27.561  1.00  0.00     0.277 HD
ENDBRANCH   8   9
BRANCH   8  18
HETATM   18  N4  UNL     1      32.160  37.934  23.310  1.00  0.00    -0.387 N 
HETATM   19  C16 UNL     1      32.368  39.154  24.006  1.00  0.00     0.149 C 
HETATM   20  C17 UNL     1      30.833  37.491  23.235  1.00  0.00     0.149 C 
ENDBRANCH   8  18
ENDBRANCH   1   8
BRANCH   4  21
HETATM   21  C10 UNL     1      34.583  35.681  19.067  1.00  0.00     0.242 C 
HETATM   22  C11 UNL     1      34.438  36.756  18.015  1.00  0.00     0.040 C 
HETATM   23  C12 UNL     1      34.825  36.233  16.635  1.00  0.00     0.004 C 
HETATM   24  C13 UNL     1      36.173  35.585  16.631  1.00  0.00     0.027 C 
HETATM   25  C14 UNL     1      36.761  35.690  18.027  1.00  0.00     0.233 C 
HETATM   26  N3  UNL     1      35.837  34.935  18.895  1.00  0.00    -0.065 N 
ATOM     27  H32 UNL     1      36.264  34.694  19.789  1.00  0.00     0.278 HD
ATOM     28  H31 UNL     1      35.675  33.990  18.548  1.00  0.00     0.278 HD
ENDBRANCH   4  21
TORSDOF 4
ENDMDL
MODEL 3
REMARK VINA RESULT: -7.543182678      1.902      2.546
REMARK  4 active torsions:
REMARK  status: ('A' for Active; 'I' for Inactive)
REMARK    1  A    between atoms: C6_9  and  C7_10 
REMARK    2  A    between atoms: C7_10  and  C8_11 
REMARK    3  A    between atoms: C7_10  and  N4_26 
REMARK    4  A    between atoms: C9_14  and  C10_15 
ROOT
HETATM    1  C8  UNL     1      33.920  37.064  23.227  1.00  0.00     0.085 A 
HETATM    2  N2  UNL     1      34.089  36.945  21.902  1.00  0.00    -0.349 N 
ATOM      3  H2  UNL     1      33.409  36.425  21.346  1.00  0.00     0.166 HD
HETATM    4  C9  UNL     1      35.113  37.489  21.326  1.00  0.00     0.083 A 
HETATM    5  S1  UNL     1      35.962  38.227  22.597  1.00  0.00    -0.065 SA
HETATM    6  C15 UNL     1      34.897  37.776  23.881  1.00  0.00     0.082 A 
HETATM    7 BR1  UNL     1      35.102  38.156  25.768  1.00  0.00    -0.041 Br
ENDROOT
BRANCH   1   8
HETATM    8  C7  UNL     1      32.618  36.653  23.839  1.00  0.00     0.067 C 
BRANCH   8   9
HETATM    9  C6  UNL     1      32.168  35.312  23.948  1.00  0.00     0.002 C 
HETATM   10  C2  UNL     1      32.309  34.124  23.194  1.00  0.00    -0.056 C 
HETATM   11  C1  UNL     1      33.101  33.744  22.195  1.00  0.00     0.019 C 
HETATM   12  C3  UNL     1      31.391  32.969  23.584  1.00  0.00     0.066 C 
HETATM   13  C4  UNL     1      30.881  32.978  24.959  1.00  0.00     0.237 C 
HETATM   14  N1  UNL     1      30.643  34.291  25.525  1.00  0.00    -0.071 N 
HETATM   15  C5  UNL     1      31.953  34.944  25.461  1.00  0.00     0.273 C 
ATOM     16  H12 UNL     1      29.891  34.814  25.075  1.00  0.00     0.277 HD
ATOM     17  H11 UNL     1      30.225  34.279  26.455  1.00  0.00     0.277 HD
ENDBRANCH   8   9
BRANCH   8  18
HETATM   18  N4  UNL     1      31.572  37.619  23.427  1.00  0.00    -0.387 N 
HETATM   19  C16 UNL     1      31.455  38.697  24.343  1.00  0.00     0.149 C 
HETATM   20  C17 UNL     1      30.367  37.084  22.954  1.00  0.00     0.149 C 
ENDBRANCH   8  18
ENDBRANCH   1   8
BRANCH   4  21
HETATM   21  C10 UNL     1      35.425  37.470  19.847  1.00  0.00     0.242 C 
HETATM   22  C11 UNL     1      36.920  37.339  19.684  1.00  0.00     0.040 C 
HETATM   23  C12 UNL     1      37.278  36.763  18.317  1.00  0.00     0.004 C 
HETATM   24  C13 UNL     1      36.542  35.494  18.025  1.00  0.00     0.027 C 
HETATM   25  C14 UNL     1      35.680  35.152  19.228  1.00  0.00     0.233 C 
HETATM   26  N3  UNL     1      34.729  36.273  19.356  1.00  0.00    -0.065 N 
ATOM     27  H32 UNL     1      33.928  36.029  19.939  1.00  0.00     0.278 HD
ATOM     28  H31 UNL     1      34.230  36.451  18.484  1.00  0.00     0.278 HD
ENDBRANCH   4  21
TORSDOF 4
ENDMDL
MODEL 4
REMARK VINA RESULT: -7.523666751      2.354      2.922
REMARK  4 active torsions:
REMARK  status: ('A' for Active; 'I' for Inactive)
REMARK    1  A    between atoms: C6_9  and  C7_10 
REMARK    2  A    between atoms: C7_10  and  C8_11 
REMARK    3  A    between atoms: C7_10  and  N4_26 
REMARK    4  A    between atoms: C9_14  and  C10_15 
ROOT
HETATM    1  C8  UNL     1      35.038  37.018  21.778  1.00  0.00     0.085 A 
HETATM    2  N2  UNL     1      35.951  36.830  20.813  1.00  0.00    -0.349 N 
ATOM      3  H2  UNL     1      36.735  37.476  20.720  1.00  0.00     0.166 HD
HETATM    4  C9  UNL     1      35.839  35.829  19.999  1.00  0.00     0.083 A 
HETATM    5  S1  UNL     1      34.421  35.041  20.500  1.00  0.00    -0.065 SA
HETATM    6  C15 UNL     1      34.019  36.096  21.809  1.00  0.00     0.082 A 
HETATM    7 BR1  UNL     1      32.472  35.994  22.968  1.00  0.00    -0.041 Br
ENDROOT
BRANCH   1   8
HETATM    8  C7  UNL     1      35.309  38.017  22.857  1.00  0.00     0.067 C 
BRANCH   8   9
HETATM    9  C6  UNL     1      35.224  37.743  24.246  1.00  0.00     0.002 C 
HETATM   10  C2  UNL     1      35.336  36.599  25.070  1.00  0.00    -0.056 C 
HETATM   11  C1  UNL     1      35.782  35.359  24.884  1.00  0.00     0.019 C 
HETATM   12  C3  UNL     1      34.885  36.767  26.518  1.00  0.00     0.066 C 
HETATM   13  C4  UNL     1      34.909  38.132  27.053  1.00  0.00     0.237 C 
HETATM   14  N1  UNL     1      34.615  39.180  26.095  1.00  0.00    -0.071 N 
HETATM   15  C5  UNL     1      35.645  39.016  25.067  1.00  0.00     0.273 C 
ATOM     16  H12 UNL     1      33.659  39.168  25.738  1.00  0.00     0.277 HD
ATOM     17  H11 UNL     1      34.569  40.117  26.498  1.00  0.00     0.277 HD
ENDBRANCH   8   9
BRANCH   8  18
HETATM   18  N4  UNL     1      34.736  39.323  22.454  1.00  0.00    -0.387 N 
HETATM   19  C16 UNL     1      33.318  39.288  22.406  1.00  0.00     0.149 C 
HETATM   20  C17 UNL     1      35.367  39.993  21.398  1.00  0.00     0.149 C 
ENDBRANCH   8  18
ENDBRANCH   1   8
BRANCH   4  21
HETATM   21  C10 UNL     1      36.796  35.467  18.887  1.00  0.00     0.242 C 
HETATM   22  C11 UNL     1      36.210  35.956  17.584  1.00  0.00     0.040 C 
HETATM   23  C12 UNL     1      37.294  36.147  16.527  1.00  0.00     0.004 C 
HETATM   24  C13 UNL     1      38.422  36.997  17.019  1.00  0.00     0.027 C 
HETATM   25  C14 UNL     1      38.105  37.444  18.435  1.00  0.00     0.233 C 
HETATM   26  N3  UNL     1      38.024  36.201  19.226  1.00  0.00    -0.065 N 
ATOM     27  H32 UNL     1      38.098  36.380  20.227  1.00  0.00     0.278 HD
ATOM     28  H31 UNL     1      38.857  35.624  19.115  1.00  0.00     0.278 HD
ENDBRANCH   4  21
TORSDOF 4
ENDMDL
MODEL 5
REMARK VINA RESULT: -7.374001431      1.265      1.508
REMARK  4 active torsions:
REMARK  status: ('A' for Active; 'I' for Inactive)
REMARK    1  A    between atoms: C6_9  and  C7_10 
REMARK    2  A    between atoms: C7_10  and  C8_11 
REMARK    3  A    between atoms: C7_10  and  N4_26 
REMARK    4  A    between atoms: C9_14  and  C10_15 
ROOT
HETATM    1  C8  UNL     1      34.246  37.296  23.356  1.00  0.00     0.085 A 
HETATM    2  N2  UNL     1      34.326  37.032  22.043  1.00  0.00    -0.349 N 
ATOM      3  H2  UNL     1      33.751  36.296  21.635  1.00  0.00     0.166 HD
HETATM    4  C9  UNL     1      35.133  37.712  21.292  1.00  0.00     0.083 A 
HETATM    5  S1  UNL     1      35.880  38.800  22.361  1.00  0.00    -0.065 SA
HETATM    6  C15 UNL     1      35.070  38.301  23.804  1.00  0.00     0.082 A 
HETATM    7 BR1  UNL     1      35.334  38.984  25.596  1.00  0.00    -0.041 Br
ENDROOT
BRANCH   1   8
HETATM    8  C7  UNL     1      33.141  36.686  24.159  1.00  0.00     0.067 C 
BRANCH   8   9
HETATM    9  C6  UNL     1      33.334  35.845  25.284  1.00  0.00     0.002 C 
HETATM   10  C2  UNL     1      34.375  35.024  25.778  1.00  0.00    -0.056 C 
HETATM   11  C1  UNL     1      35.667  34.888  25.493  1.00  0.00     0.019 C 
HETATM   12  C3  UNL     1      34.001  34.078  26.915  1.00  0.00     0.066 C 
HETATM   13  C4  UNL     1      32.843  34.463  27.729  1.00  0.00     0.237 C 
HETATM   14  N1  UNL     1      31.791  35.165  27.019  1.00  0.00    -0.071 N 
HETATM   15  C5  UNL     1      32.460  36.355  26.487  1.00  0.00     0.273 C 
ATOM     16  H12 UNL     1      31.310  34.603  26.316  1.00  0.00     0.277 HD
ATOM     17  H11 UNL     1      30.965  35.365  27.583  1.00  0.00     0.277 HD
ENDBRANCH   8   9
BRANCH   8  18
HETATM   18  N4  UNL     1      32.072  36.239  23.235  1.00  0.00    -0.387 N 
HETATM   19  C16 UNL     1      30.945  37.101  23.269  1.00  0.00     0.149 C 
HETATM   20  C17 UNL     1      31.790  34.867  23.208  1.00  0.00     0.149 C 
ENDBRANCH   8  18
ENDBRANCH   1   8
BRANCH   4  21
HETATM   21  C10 UNL     1      35.315  37.555  19.800  1.00  0.00     0.242 C 
HETATM   22  C11 UNL     1      36.794  37.465  19.513  1.00  0.00     0.040 C 
HETATM   23  C12 UNL     1      37.057  36.768  18.181  1.00  0.00     0.004 C 
HETATM   24  C13 UNL     1      36.358  35.449  18.083  1.00  0.00     0.027 C 
HETATM   25  C14 UNL     1      35.622  35.197  19.388  1.00  0.00     0.233 C 
HETATM   26  N3  UNL     1      34.635  36.289  19.493  1.00  0.00    -0.065 N 
ATOM     27  H32 UNL     1      33.901  36.076  20.169  1.00  0.00     0.278 HD
ATOM     28  H31 UNL     1      34.054  36.359  18.658  1.00  0.00     0.278 HD
ENDBRANCH   4  21
TORSDOF 4
ENDMDL
