MODEL 1
REMARK VINA RESULT: -7.500076335      0.000      0.000
REMARK  8 active torsions:
REMARK  status: ('A' for Active; 'I' for Inactive)
REMARK    1  A    between atoms: O1_2  and  C2_3 
REMARK    2  A    between atoms: C3_4  and  C4_5 
REMARK    3  A    between atoms: C4_5  and  C6_8 
REMARK    4  A    between atoms: C9_12  and  O2_13 
REMARK    5  A    between atoms: C14_19  and  C15_20 
REMARK    6  A    between atoms: C15_20  and  C16_21 
REMARK    7  A    between atoms: C16_21  and  C17_22 
REMARK    8  A    between atoms: C20_27  and  O5_29 
ROOT
HETATM    1  C4  UNL     1      31.533  33.293  23.421  1.00  0.00     0.087 C 
HETATM    2  C5  UNL     1      32.811  33.522  22.187  1.00  0.00     0.103 C 
HETATM    3  N1  UNL     1      33.647  33.635  21.351  1.00  0.00    -0.191 NA
ENDROOT
BRANCH   1   4
HETATM    4  C3  UNL     1      32.005  34.456  24.140  1.00  0.00     0.005 C 
HETATM    5  C2  UNL     1      32.304  34.101  25.433  1.00  0.00     0.088 C 
HETATM    6  C20 UNL     1      32.807  35.076  26.395  1.00  0.00     0.107 C 
HETATM    7  C12 UNL     1      33.233  36.385  25.845  1.00  0.00     0.033 C 
HETATM    8  C21 UNL     1      33.945  34.412  27.188  1.00  0.00     0.053 C 
HETATM    9  C11 UNL     1      32.323  37.545  26.192  1.00  0.00     0.023 C 
HETATM   10  C13 UNL     1      33.524  36.290  24.366  1.00  0.00     0.015 C 
HETATM   11  C10 UNL     1      31.680  38.022  24.898  1.00  0.00     0.085 C 
HETATM   12  C9  UNL     1      31.077  36.756  24.271  1.00  0.00     0.138 C 
HETATM   13  C19 UNL     1      32.783  38.533  24.031  1.00  0.00     0.138 C 
HETATM   14  C8  UNL     1      32.185  35.860  23.739  1.00  0.00     0.057 C 
HETATM   15  C14 UNL     1      33.964  37.670  23.866  1.00  0.00     0.061 C 
HETATM   16  O4  UNL     1      32.689  39.595  23.508  1.00  0.00    -0.297 OA
BRANCH   5  17
HETATM   17  O1  UNL     1      32.121  32.756  25.846  1.00  0.00    -0.356 OA
HETATM   18  C1  UNL     1      30.965  32.366  26.560  1.00  0.00     0.209 C 
ENDBRANCH   5  17
BRANCH   6  19
HETATM   19  O5  UNL     1      31.807  35.285  27.364  1.00  0.00    -0.383 OA
ATOM     20  H5  UNL     1      32.235  35.415  28.202  1.00  0.00     0.211 HD
ENDBRANCH   6  19
BRANCH  12  21
HETATM   21  O2  UNL     1      30.277  37.241  23.236  1.00  0.00    -0.394 OA
ATOM     22  H2  UNL     1      29.364  37.279  23.495  1.00  0.00     0.210 HD
ENDBRANCH  12  21
BRANCH  15  23
HETATM   23  C15 UNL     1      34.494  37.504  22.491  1.00  0.00     0.020 C 
BRANCH  23  24
HETATM   24  C16 UNL     1      35.728  38.276  22.221  1.00  0.00     0.078 C 
BRANCH  24  25
HETATM   25  C17 UNL     1      35.506  39.666  21.828  1.00  0.00     0.123 C 
HETATM   26  C18 UNL     1      34.823  39.911  20.511  1.00  0.00     0.091 C 
HETATM   27  O3  UNL     1      35.827  40.613  22.476  1.00  0.00    -0.298 OA
ENDBRANCH  24  25
ENDBRANCH  23  24
ENDBRANCH  15  23
ENDBRANCH   1   4
BRANCH   1  28
HETATM   28  C6  UNL     1      31.146  32.336  22.828  1.00  0.00     0.111 C 
HETATM   29  C7  UNL     1      31.578  30.926  22.771  1.00  0.00     0.084 C 
HETATM   30  F1  UNL     1      30.004  32.539  21.981  1.00  0.00    -0.210 F 
ENDBRANCH   1  28
TORSDOF 8
ENDMDL
MODEL 2
REMARK VINA RESULT: -7.420380015      3.598      5.494
REMARK  8 active torsions:
REMARK  status: ('A' for Active; 'I' for Inactive)
REMARK    1  A    between atoms: O1_2  and  C2_3 
REMARK    2  A    between atoms: C3_4  and  C4_5 
REMARK    3  A    between atoms: C4_5  and  C6_8 
REMARK    4  A    between atoms: C9_12  and  O2_13 
REMARK    5  A    between atoms: C14_19  and  C15_20 
REMARK    6  A    between atoms: C15_20  and  C16_21 
REMARK    7  A    between atoms: C16_21  and  C17_22 
REMARK    8  A    between atoms: C20_27  and  O5_29 
ROOT
HETATM    1  C4  UNL     1      34.685  38.164  26.014  1.00  0.00     0.087 C 
HETATM    2  C5  UNL     1      35.801  38.883  24.812  1.00  0.00     0.103 C 
HETATM    3  N1  UNL     1      36.557  39.387  24.048  1.00  0.00    -0.191 NA
ENDROOT
BRANCH   1   4
HETATM    4  C3  UNL     1      34.006  37.438  24.963  1.00  0.00     0.005 C 
HETATM    5  C2  UNL     1      32.649  37.613  25.093  1.00  0.00     0.088 C 
HETATM    6  C20 UNL     1      31.708  36.995  24.165  1.00  0.00     0.107 C 
HETATM    7  C12 UNL     1      32.287  36.403  22.936  1.00  0.00     0.033 C 
HETATM    8  C21 UNL     1      30.630  38.037  23.824  1.00  0.00     0.053 C 
HETATM    9  C11 UNL     1      32.260  34.889  22.887  1.00  0.00     0.023 C 
HETATM   10  C13 UNL     1      33.654  36.975  22.644  1.00  0.00     0.015 C 
HETATM   11  C10 UNL     1      33.702  34.407  22.934  1.00  0.00     0.085 C 
HETATM   12  C9  UNL     1      34.309  35.108  24.160  1.00  0.00     0.138 C 
HETATM   13  C19 UNL     1      34.366  34.906  21.693  1.00  0.00     0.138 C 
HETATM   14  C8  UNL     1      34.501  36.588  23.870  1.00  0.00     0.057 C 
HETATM   15  C14 UNL     1      34.189  36.329  21.361  1.00  0.00     0.061 C 
HETATM   16  O4  UNL     1      35.002  34.166  21.017  1.00  0.00    -0.297 OA
BRANCH   5  17
HETATM   17  O1  UNL     1      32.148  38.414  26.152  1.00  0.00    -0.356 OA
HETATM   18  C1  UNL     1      31.835  37.845  27.408  1.00  0.00     0.209 C 
ENDBRANCH   5  17
BRANCH   6  19
HETATM   19  O5  UNL     1      30.998  36.001  24.866  1.00  0.00    -0.383 OA
ATOM     20  H5  UNL     1      31.547  35.227  24.912  1.00  0.00     0.211 HD
ENDBRANCH   6  19
BRANCH  12  21
HETATM   21  O2  UNL     1      35.533  34.464  24.343  1.00  0.00    -0.394 OA
ATOM     22  H2  UNL     1      35.742  34.378  25.266  1.00  0.00     0.210 HD
ENDBRANCH  12  21
BRANCH  15  23
HETATM   23  C15 UNL     1      35.398  37.082  20.946  1.00  0.00     0.020 C 
BRANCH  23  24
HETATM   24  C16 UNL     1      35.557  37.208  19.480  1.00  0.00     0.078 C 
BRANCH  24  25
HETATM   25  C17 UNL     1      36.667  36.443  18.918  1.00  0.00     0.123 C 
HETATM   26  C18 UNL     1      38.052  37.000  19.097  1.00  0.00     0.091 C 
HETATM   27  O3  UNL     1      36.551  35.413  18.330  1.00  0.00    -0.298 OA
ENDBRANCH  24  25
ENDBRANCH  23  24
ENDBRANCH  15  23
ENDBRANCH   1   4
BRANCH   1  28
HETATM   28  C6  UNL     1      35.244  38.763  26.878  1.00  0.00     0.111 C 
HETATM   29  C7  UNL     1      35.493  40.195  27.133  1.00  0.00     0.084 C 
HETATM   30  F1  UNL     1      35.807  37.967  27.933  1.00  0.00    -0.210 F 
ENDBRANCH   1  28
TORSDOF 8
ENDMDL
MODEL 3
REMARK VINA RESULT: -7.391788233      1.196      1.232
REMARK  8 active torsions:
REMARK  status: ('A' for Active; 'I' for Inactive)
REMARK    1  A    between atoms: O1_2  and  C2_3 
REMARK    2  A    between atoms: C3_4  and  C4_5 
REMARK    3  A    between atoms: C4_5  and  C6_8 
REMARK    4  A    between atoms: C9_12  and  O2_13 
REMARK    5  A    between atoms: C14_19  and  C15_20 
REMARK    6  A    between atoms: C15_20  and  C16_21 
REMARK    7  A    between atoms: C16_21  and  C17_22 
REMARK    8  A    between atoms: C20_27  and  O5_29 
ROOT
HETATM    1  C4  UNL     1      31.237  33.223  23.419  1.00  0.00     0.087 C 
HETATM    2  C5  UNL     1      32.503  33.135  22.156  1.00  0.00     0.103 C 
HETATM    3  N1  UNL     1      33.327  33.037  21.305  1.00  0.00    -0.191 NA
ENDROOT
BRANCH   1   4
HETATM    4  C3  UNL     1      31.850  34.415  23.964  1.00  0.00     0.005 C 
HETATM    5  C2  UNL     1      32.209  34.186  25.270  1.00  0.00     0.088 C 
HETATM    6  C20 UNL     1      32.855  35.216  26.075  1.00  0.00     0.107 C 
HETATM    7  C12 UNL     1      33.343  36.412  25.347  1.00  0.00     0.033 C 
HETATM    8  C21 UNL     1      33.989  34.551  26.872  1.00  0.00     0.053 C 
HETATM    9  C11 UNL     1      32.555  37.679  25.608  1.00  0.00     0.023 C 
HETATM   10  C13 UNL     1      33.521  36.123  23.876  1.00  0.00     0.015 C 
HETATM   11  C10 UNL     1      31.863  38.059  24.307  1.00  0.00     0.085 C 
HETATM   12  C9  UNL     1      31.118  36.787  23.875  1.00  0.00     0.138 C 
HETATM   13  C19 UNL     1      32.939  38.369  23.320  1.00  0.00     0.138 C 
HETATM   14  C8  UNL     1      32.111  35.743  23.387  1.00  0.00     0.057 C 
HETATM   15  C14 UNL     1      34.033  37.394  23.188  1.00  0.00     0.061 C 
HETATM   16  O4  UNL     1      32.893  39.368  22.680  1.00  0.00    -0.297 OA
BRANCH   5  17
HETATM   17  O1  UNL     1      31.950  32.917  25.852  1.00  0.00    -0.356 OA
HETATM   18  C1  UNL     1      30.819  32.714  26.675  1.00  0.00     0.209 C 
ENDBRANCH   5  17
BRANCH   6  19
HETATM   19  O5  UNL     1      31.945  35.622  27.071  1.00  0.00    -0.383 OA
ATOM     20  H5  UNL     1      32.398  35.600  27.906  1.00  0.00     0.211 HD
ENDBRANCH   6  19
BRANCH  12  21
HETATM   21  O2  UNL     1      30.289  37.218  22.839  1.00  0.00    -0.394 OA
ATOM     22  H2  UNL     1      29.870  38.043  23.055  1.00  0.00     0.210 HD
ENDBRANCH  12  21
BRANCH  15  23
HETATM   23  C15 UNL     1      34.450  37.026  21.813  1.00  0.00     0.020 C 
BRANCH  23  24
HETATM   24  C16 UNL     1      35.806  37.493  21.448  1.00  0.00     0.078 C 
BRANCH  24  25
HETATM   25  C17 UNL     1      36.053  37.589  20.011  1.00  0.00     0.123 C 
HETATM   26  C18 UNL     1      34.876  37.890  19.125  1.00  0.00     0.091 C 
HETATM   27  O3  UNL     1      37.118  37.446  19.496  1.00  0.00    -0.298 OA
ENDBRANCH  24  25
ENDBRANCH  23  24
ENDBRANCH  15  23
ENDBRANCH   1   4
BRANCH   1  28
HETATM   28  C6  UNL     1      30.734  32.241  22.970  1.00  0.00     0.111 C 
HETATM   29  C7  UNL     1      30.984  30.797  23.140  1.00  0.00     0.084 C 
HETATM   30  F1  UNL     1      29.633  32.452  22.073  1.00  0.00    -0.210 F 
ENDBRANCH   1  28
TORSDOF 8
ENDMDL
MODEL 4
REMARK VINA RESULT: -7.229588186      2.204      2.615
REMARK  8 active torsions:
REMARK  status: ('A' for Active; 'I' for Inactive)
REMARK    1  A    between atoms: O1_2  and  C2_3 
REMARK    2  A    between atoms: C3_4  and  C4_5 
REMARK    3  A    between atoms: C4_5  and  C6_8 
REMARK    4  A    between atoms: C9_12  and  O2_13 
REMARK    5  A    between atoms: C14_19  and  C15_20 
REMARK    6  A    between atoms: C15_20  and  C16_21 
REMARK    7  A    between atoms: C16_21  and  C17_22 
REMARK    8  A    between atoms: C20_27  and  O5_29 
ROOT
HETATM    1  C4  UNL     1      32.013  33.944  23.456  1.00  0.00     0.087 C 
HETATM    2  C5  UNL     1      32.867  33.380  21.986  1.00  0.00     0.103 C 
HETATM    3  N1  UNL     1      33.409  32.967  21.014  1.00  0.00    -0.191 NA
ENDROOT
BRANCH   1   4
HETATM    4  C3  UNL     1      32.896  35.087  23.541  1.00  0.00     0.005 C 
HETATM    5  C2  UNL     1      33.733  34.935  24.620  1.00  0.00     0.088 C 
HETATM    6  C20 UNL     1      34.738  35.939  24.952  1.00  0.00     0.107 C 
HETATM    7  C12 UNL     1      34.991  36.982  23.929  1.00  0.00     0.033 C 
HETATM    8  C21 UNL     1      36.036  35.203  25.325  1.00  0.00     0.053 C 
HETATM    9  C11 UNL     1      34.491  38.364  24.296  1.00  0.00     0.023 C 
HETATM   10  C13 UNL     1      34.529  36.534  22.563  1.00  0.00     0.015 C 
HETATM   11  C10 UNL     1      33.366  38.711  23.331  1.00  0.00     0.085 C 
HETATM   12  C9  UNL     1      32.402  37.517  23.411  1.00  0.00     0.138 C 
HETATM   13  C19 UNL     1      33.970  38.775  21.968  1.00  0.00     0.138 C 
HETATM   14  C8  UNL     1      33.015  36.306  22.726  1.00  0.00     0.057 C 
HETATM   15  C14 UNL     1      34.827  37.651  21.557  1.00  0.00     0.061 C 
HETATM   16  O4  UNL     1      33.756  39.706  21.263  1.00  0.00    -0.297 OA
BRANCH   5  17
HETATM   17  O1  UNL     1      33.623  33.776  25.430  1.00  0.00    -0.356 OA
HETATM   18  C1  UNL     1      32.995  33.830  26.695  1.00  0.00     0.209 C 
ENDBRANCH   5  17
BRANCH   6  19
HETATM   19  O5  UNL     1      34.351  36.558  26.156  1.00  0.00    -0.383 OA
ATOM     20  H5  UNL     1      33.928  37.381  25.939  1.00  0.00     0.211 HD
ENDBRANCH   6  19
BRANCH  12  21
HETATM   21  O2  UNL     1      31.264  37.959  22.734  1.00  0.00    -0.394 OA
ATOM     22  H2  UNL     1      30.480  37.540  23.069  1.00  0.00     0.210 HD
ENDBRANCH  12  21
BRANCH  15  23
HETATM   23  C15 UNL     1      34.615  37.101  20.196  1.00  0.00     0.020 C 
BRANCH  23  24
HETATM   24  C16 UNL     1      35.692  37.431  19.237  1.00  0.00     0.078 C 
BRANCH  24  25
HETATM   25  C17 UNL     1      36.776  36.453  19.174  1.00  0.00     0.123 C 
HETATM   26  C18 UNL     1      38.180  36.983  19.074  1.00  0.00     0.091 C 
HETATM   27  O3  UNL     1      36.625  35.272  19.198  1.00  0.00    -0.298 OA
ENDBRANCH  24  25
ENDBRANCH  23  24
ENDBRANCH  15  23
ENDBRANCH   1   4
BRANCH   1  28
HETATM   28  C6  UNL     1      31.288  33.002  23.385  1.00  0.00     0.111 C 
HETATM   29  C7  UNL     1      31.147  31.760  24.168  1.00  0.00     0.084 C 
HETATM   30  F1  UNL     1      30.310  33.039  22.334  1.00  0.00    -0.210 F 
ENDBRANCH   1  28
TORSDOF 8
ENDMDL
MODEL 5
REMARK VINA RESULT: -7.166569319      3.466      5.105
REMARK  8 active torsions:
REMARK  status: ('A' for Active; 'I' for Inactive)
REMARK    1  A    between atoms: O1_2  and  C2_3 
REMARK    2  A    between atoms: C3_4  and  C4_5 
REMARK    3  A    between atoms: C4_5  and  C6_8 
REMARK    4  A    between atoms: C9_12  and  O2_13 
REMARK    5  A    between atoms: C14_19  and  C15_20 
REMARK    6  A    between atoms: C15_20  and  C16_21 
REMARK    7  A    between atoms: C16_21  and  C17_22 
REMARK    8  A    between atoms: C20_27  and  O5_29 
ROOT
HETATM    1  C4  UNL     1      34.292  38.152  21.771  1.00  0.00     0.087 C 
HETATM    2  C5  UNL     1      35.287  39.418  22.556  1.00  0.00     0.103 C 
HETATM    3  N1  UNL     1      35.958  40.272  23.035  1.00  0.00    -0.191 NA
ENDROOT
BRANCH   1   4
HETATM    4  C3  UNL     1      34.055  37.529  23.055  1.00  0.00     0.005 C 
HETATM    5  C2  UNL     1      34.590  36.264  23.051  1.00  0.00     0.088 C 
HETATM    6  C20 UNL     1      34.504  35.396  24.221  1.00  0.00     0.107 C 
HETATM    7  C12 UNL     1      34.059  36.034  25.483  1.00  0.00     0.033 C 
HETATM    8  C21 UNL     1      35.867  34.707  24.399  1.00  0.00     0.053 C 
HETATM    9  C11 UNL     1      32.673  35.631  25.943  1.00  0.00     0.023 C 
HETATM   10  C13 UNL     1      34.251  37.531  25.438  1.00  0.00     0.015 C 
HETATM   11  C10 UNL     1      31.787  36.865  25.850  1.00  0.00     0.085 C 
HETATM   12  C9  UNL     1      31.983  37.379  24.415  1.00  0.00     0.138 C 
HETATM   13  C19 UNL     1      32.333  37.862  26.817  1.00  0.00     0.138 C 
HETATM   14  C8  UNL     1      33.365  37.995  24.268  1.00  0.00     0.057 C 
HETATM   15  C14 UNL     1      33.780  38.123  26.772  1.00  0.00     0.061 C 
HETATM   16  O4  UNL     1      31.609  38.408  27.584  1.00  0.00    -0.297 OA
BRANCH   5  17
HETATM   17  O1  UNL     1      35.244  35.787  21.886  1.00  0.00    -0.356 OA
HETATM   18  C1  UNL     1      34.589  34.908  20.993  1.00  0.00     0.209 C 
ENDBRANCH   5  17
BRANCH   6  19
HETATM   19  O5  UNL     1      33.634  34.333  23.909  1.00  0.00    -0.383 OA
ATOM     20  H5  UNL     1      33.111  34.148  24.681  1.00  0.00     0.211 HD
ENDBRANCH   6  19
BRANCH  12  21
HETATM   21  O2  UNL     1      30.981  38.338  24.263  1.00  0.00    -0.394 OA
ATOM     22  H2  UNL     1      31.297  39.091  23.777  1.00  0.00     0.210 HD
ENDBRANCH  12  21
BRANCH  15  23
HETATM   23  C15 UNL     1      34.214  39.540  26.814  1.00  0.00     0.020 C 
BRANCH  23  24
HETATM   24  C16 UNL     1      35.682  39.721  26.864  1.00  0.00     0.078 C 
BRANCH  24  25
HETATM   25  C17 UNL     1      36.163  40.511  27.996  1.00  0.00     0.123 C 
HETATM   26  C18 UNL     1      36.885  41.793  27.688  1.00  0.00     0.091 C 
HETATM   27  O3  UNL     1      36.022  40.209  29.140  1.00  0.00    -0.298 OA
ENDBRANCH  24  25
ENDBRANCH  23  24
ENDBRANCH  15  23
ENDBRANCH   1   4
BRANCH   1  28
HETATM   28  C6  UNL     1      34.488  38.666  20.715  1.00  0.00     0.111 C 
HETATM   29  C7  UNL     1      35.347  38.336  19.562  1.00  0.00     0.084 C 
HETATM   30  F1  UNL     1      33.741  39.864  20.449  1.00  0.00    -0.210 F 
ENDBRANCH   1  28
TORSDOF 8
ENDMDL
