MODEL 1
REMARK VINA RESULT: -5.588944968      0.000      0.000
REMARK  4 active torsions:
REMARK  status: ('A' for Active; 'I' for Inactive)
REMARK    1  A    between atoms: C2_2  and  C3_4 
REMARK       I    between atoms: C3_4  and  N1_6 
REMARK    2  A    between atoms: N1_6  and  C4_8 
REMARK    3  A    between atoms: C4_8  and  C5_9 
REMARK    4  A    between atoms: C7_12  and  C8_13 
ROOT
HETATM    1  C5  UNL     1     -35.859 -17.334 -10.939  1.00  0.00     0.034 A 
HETATM    2  C6  UNL     1     -35.810 -16.233 -11.757  1.00  0.00     0.078 A 
HETATM    3  S1  UNL     1     -34.900 -15.135 -10.793  1.00  0.00    -0.086 SA
HETATM    4  C7  UNL     1     -34.652 -16.134  -9.441  1.00  0.00     0.054 A 
HETATM    5  N2  UNL     1     -35.269 -17.248  -9.787  1.00  0.00    -0.355 N 
ATOM      6  H2  UNL     1     -35.281 -18.043  -9.148  1.00  0.00     0.166 HD
ENDROOT
BRANCH   1   7
HETATM    7  C4  UNL     1     -36.583 -18.595 -11.377  1.00  0.00     0.180 C 
BRANCH   7   8
HETATM    8  N1  UNL     1     -37.712 -18.220 -12.204  1.00  0.00    -0.353 N 
HETATM    9  C3  UNL     1     -38.505 -19.152 -12.929  1.00  0.00     0.251 C 
HETATM   10  O1  UNL     1     -38.251 -20.361 -12.874  1.00  0.00    -0.270 OA
ATOM     11  H1  UNL     1     -37.952 -17.231 -12.270  1.00  0.00     0.162 HD
BRANCH   9  12
HETATM   12  C2  UNL     1     -39.637 -18.597 -13.741  1.00  0.00     0.257 C 
HETATM   13  C1  UNL     1     -39.290 -18.785 -15.197  1.00  0.00     0.055 C 
HETATM   14  F1  UNL     1     -40.840 -19.139 -13.396  1.00  0.00    -0.240 F 
ENDBRANCH   9  12
ENDBRANCH   7   8
ENDBRANCH   1   7
BRANCH   4  15
HETATM   15  C8  UNL     1     -33.912 -15.796  -8.183  1.00  0.00     0.035 C 
HETATM   16  C9  UNL     1     -34.028 -14.318  -7.938  1.00  0.00     0.016 C 
HETATM   17  C10 UNL     1     -34.601 -16.615  -7.092  1.00  0.00     0.016 C 
ENDBRANCH   4  15
TORSDOF 4
ENDMDL
MODEL 2
REMARK VINA RESULT: -5.506098147      1.050      1.069
REMARK  4 active torsions:
REMARK  status: ('A' for Active; 'I' for Inactive)
REMARK    1  A    between atoms: C2_2  and  C3_4 
REMARK       I    between atoms: C3_4  and  N1_6 
REMARK    2  A    between atoms: N1_6  and  C4_8 
REMARK    3  A    between atoms: C4_8  and  C5_9 
REMARK    4  A    between atoms: C7_12  and  C8_13 
ROOT
HETATM    1  C5  UNL     1     -35.782 -17.005 -10.436  1.00  0.00     0.034 A 
HETATM    2  C6  UNL     1     -35.573 -15.941 -11.277  1.00  0.00     0.078 A 
HETATM    3  S1  UNL     1     -34.551 -14.945 -10.315  1.00  0.00    -0.086 SA
HETATM    4  C7  UNL     1     -34.463 -15.934  -8.936  1.00  0.00     0.054 A 
HETATM    5  N2  UNL     1     -35.211 -16.968  -9.272  1.00  0.00    -0.355 N 
ATOM      6  H2  UNL     1     -35.339 -17.739  -8.617  1.00  0.00     0.166 HD
ENDROOT
BRANCH   1   7
HETATM    7  C4  UNL     1     -36.653 -18.173 -10.865  1.00  0.00     0.180 C 
BRANCH   7   8
HETATM    8  N1  UNL     1     -37.456 -17.764 -11.999  1.00  0.00    -0.353 N 
HETATM    9  C3  UNL     1     -38.098 -18.674 -12.884  1.00  0.00     0.251 C 
HETATM   10  O1  UNL     1     -37.991 -19.893 -12.707  1.00  0.00    -0.270 OA
ATOM     11  H1  UNL     1     -37.568 -16.765 -12.173  1.00  0.00     0.162 HD
BRANCH   9  12
HETATM   12  C2  UNL     1     -38.890 -18.085 -14.012  1.00  0.00     0.257 C 
HETATM   13  C1  UNL     1     -40.231 -18.776 -14.039  1.00  0.00     0.055 C 
HETATM   14  F1  UNL     1     -38.980 -16.727 -13.931  1.00  0.00    -0.240 F 
ENDBRANCH   9  12
ENDBRANCH   7   8
ENDBRANCH   1   7
BRANCH   4  15
HETATM   15  C8  UNL     1     -33.713 -15.663  -7.668  1.00  0.00     0.035 C 
HETATM   16  C9  UNL     1     -34.024 -14.265  -7.213  1.00  0.00     0.016 C 
HETATM   17  C10 UNL     1     -34.221 -16.714  -6.681  1.00  0.00     0.016 C 
ENDBRANCH   4  15
TORSDOF 4
ENDMDL
MODEL 3
REMARK VINA RESULT: -5.451999652      3.614      6.912
REMARK  4 active torsions:
REMARK  status: ('A' for Active; 'I' for Inactive)
REMARK    1  A    between atoms: C2_2  and  C3_4 
REMARK       I    between atoms: C3_4  and  N1_6 
REMARK    2  A    between atoms: N1_6  and  C4_8 
REMARK    3  A    between atoms: C4_8  and  C5_9 
REMARK    4  A    between atoms: C7_12  and  C8_13 
ROOT
HETATM    1  C5  UNL     1     -36.486 -16.962 -11.936  1.00  0.00     0.034 A 
HETATM    2  C6  UNL     1     -36.300 -18.193 -11.360  1.00  0.00     0.078 A 
HETATM    3  S1  UNL     1     -37.359 -19.171 -12.302  1.00  0.00    -0.086 SA
HETATM    4  C7  UNL     1     -37.953 -17.966 -13.343  1.00  0.00     0.054 A 
HETATM    5  N2  UNL     1     -37.321 -16.885 -12.926  1.00  0.00    -0.355 N 
ATOM      6  H2  UNL     1     -37.488 -15.989 -13.383  1.00  0.00     0.166 HD
ENDROOT
BRANCH   1   7
HETATM    7  C4  UNL     1     -35.739 -15.744 -11.422  1.00  0.00     0.180 C 
BRANCH   7   8
HETATM    8  N1  UNL     1     -35.141 -16.069 -10.143  1.00  0.00    -0.353 N 
HETATM    9  C3  UNL     1     -34.115 -15.299  -9.530  1.00  0.00     0.251 C 
HETATM   10  O1  UNL     1     -33.682 -14.284 -10.088  1.00  0.00    -0.270 OA
ATOM     11  H1  UNL     1     -35.477 -16.900  -9.654  1.00  0.00     0.162 HD
BRANCH   9  12
HETATM   12  C2  UNL     1     -33.603 -15.777  -8.204  1.00  0.00     0.257 C 
HETATM   13  C1  UNL     1     -34.709 -15.595  -7.194  1.00  0.00     0.055 C 
HETATM   14  F1  UNL     1     -33.124 -17.053  -8.260  1.00  0.00    -0.240 F 
ENDBRANCH   9  12
ENDBRANCH   7   8
ENDBRANCH   1   7
BRANCH   4  15
HETATM   15  C8  UNL     1     -38.951 -18.130 -14.448  1.00  0.00     0.035 C 
HETATM   16  C9  UNL     1     -40.157 -18.846 -13.906  1.00  0.00     0.016 C 
HETATM   17  C10 UNL     1     -39.281 -16.704 -14.891  1.00  0.00     0.016 C 
ENDBRANCH   4  15
TORSDOF 4
ENDMDL
MODEL 4
REMARK VINA RESULT: -5.366218763      4.591      7.441
REMARK  4 active torsions:
REMARK  status: ('A' for Active; 'I' for Inactive)
REMARK    1  A    between atoms: C2_2  and  C3_4 
REMARK       I    between atoms: C3_4  and  N1_6 
REMARK    2  A    between atoms: N1_6  and  C4_8 
REMARK    3  A    between atoms: C4_8  and  C5_9 
REMARK    4  A    between atoms: C7_12  and  C8_13 
ROOT
HETATM    1  C5  UNL     1     -34.452 -16.171  -8.809  1.00  0.00     0.034 A 
HETATM    2  C6  UNL     1     -34.060 -15.004  -9.417  1.00  0.00     0.078 A 
HETATM    3  S1  UNL     1     -34.844 -15.137 -10.943  1.00  0.00    -0.086 SA
HETATM    4  C7  UNL     1     -35.601 -16.640 -10.707  1.00  0.00     0.054 A 
HETATM    5  N2  UNL     1     -35.224 -16.966  -9.485  1.00  0.00    -0.355 N 
ATOM      6  H2  UNL     1     -35.539 -17.843  -9.071  1.00  0.00     0.166 HD
ENDROOT
BRANCH   1   7
HETATM    7  C4  UNL     1     -33.991 -16.506  -7.402  1.00  0.00     0.180 C 
BRANCH   7   8
HETATM    8  N1  UNL     1     -33.471 -15.304  -6.783  1.00  0.00    -0.353 N 
HETATM    9  C3  UNL     1     -34.174 -14.550  -5.803  1.00  0.00     0.251 C 
HETATM   10  O1  UNL     1     -35.296 -14.912  -5.428  1.00  0.00    -0.270 OA
ATOM     11  H1  UNL     1     -32.547 -14.979  -7.067  1.00  0.00     0.162 HD
BRANCH   9  12
HETATM   12  C2  UNL     1     -33.494 -13.328  -5.265  1.00  0.00     0.257 C 
HETATM   13  C1  UNL     1     -32.403 -12.947  -6.236  1.00  0.00     0.055 C 
HETATM   14  F1  UNL     1     -34.370 -12.314  -5.010  1.00  0.00    -0.240 F 
ENDBRANCH   9  12
ENDBRANCH   7   8
ENDBRANCH   1   7
BRANCH   4  15
HETATM   15  C8  UNL     1     -36.472 -17.382 -11.673  1.00  0.00     0.035 C 
HETATM   16  C9  UNL     1     -35.850 -17.308 -13.039  1.00  0.00     0.016 C 
HETATM   17  C10 UNL     1     -36.517 -18.814 -11.140  1.00  0.00     0.016 C 
ENDBRANCH   4  15
TORSDOF 4
ENDMDL
MODEL 5
REMARK VINA RESULT: -5.363417057      3.820      6.409
REMARK  4 active torsions:
REMARK  status: ('A' for Active; 'I' for Inactive)
REMARK    1  A    between atoms: C2_2  and  C3_4 
REMARK       I    between atoms: C3_4  and  N1_6 
REMARK    2  A    between atoms: N1_6  and  C4_8 
REMARK    3  A    between atoms: C4_8  and  C5_9 
REMARK    4  A    between atoms: C7_12  and  C8_13 
ROOT
HETATM    1  C5  UNL     1     -34.800 -14.450 -10.670  1.00  0.00     0.034 A 
HETATM    2  C6  UNL     1     -35.390 -13.500 -11.466  1.00  0.00     0.078 A 
HETATM    3  S1  UNL     1     -36.500 -14.457 -12.368  1.00  0.00    -0.086 SA
HETATM    4  C7  UNL     1     -36.143 -15.970 -11.684  1.00  0.00     0.054 A 
HETATM    5  N2  UNL     1     -35.202 -15.676 -10.806  1.00  0.00    -0.355 N 
ATOM      6  H2  UNL     1     -34.790 -16.413 -10.234  1.00  0.00     0.166 HD
ENDROOT
BRANCH   1   7
HETATM    7  C4  UNL     1     -33.719 -14.066  -9.675  1.00  0.00     0.180 C 
BRANCH   7   8
HETATM    8  N1  UNL     1     -34.177 -14.392  -8.340  1.00  0.00    -0.353 N 
HETATM    9  C3  UNL     1     -33.911 -15.630  -7.692  1.00  0.00     0.251 C 
HETATM   10  O1  UNL     1     -33.252 -16.504  -8.268  1.00  0.00    -0.270 OA
ATOM     11  H1  UNL     1     -34.721 -13.693  -7.835  1.00  0.00     0.162 HD
BRANCH   9  12
HETATM   12  C2  UNL     1     -34.462 -15.808  -6.310  1.00  0.00     0.257 C 
HETATM   13  C1  UNL     1     -35.227 -14.557  -5.957  1.00  0.00     0.055 C 
HETATM   14  F1  UNL     1     -35.199 -16.949  -6.186  1.00  0.00    -0.240 F 
ENDBRANCH   9  12
ENDBRANCH   7   8
ENDBRANCH   1   7
BRANCH   4  15
HETATM   15  C8  UNL     1     -36.762 -17.291 -12.022  1.00  0.00     0.035 C 
HETATM   16  C9  UNL     1     -35.981 -17.917 -13.142  1.00  0.00     0.016 C 
HETATM   17  C10 UNL     1     -36.671 -18.107 -10.732  1.00  0.00     0.016 C 
ENDBRANCH   4  15
TORSDOF 4
ENDMDL
