MODEL 1
REMARK VINA RESULT: -9.485242224      0.000      0.000
REMARK  8 active torsions:
REMARK  status: ('A' for Active; 'I' for Inactive)
REMARK    1  A    between atoms: O1_2  and  C2_3 
REMARK    2  A    between atoms: C5_8  and  C6_9 
REMARK    3  A    between atoms: C6_9  and  N2_10 
REMARK    4  A    between atoms: N3_13  and  C9_14 
REMARK    5  A    between atoms: C9_14  and  C10_15 
REMARK    6  A    between atoms: C10_15  and  C11_17 
REMARK    7  A    between atoms: C12_18  and  O3_19 
REMARK    8  A    between atoms: O3_19  and  C13_20 
ROOT
HETATM    1  C2  UNL     1      22.790  -5.155  28.969  1.00  0.00     0.092 A 
HETATM    2  C3  UNL     1      22.978  -3.794  28.923  1.00  0.00     0.070 A 
HETATM    3  C4  UNL     1      21.984  -2.999  29.459  1.00  0.00     0.063 A 
HETATM    4  N1  UNL     1      21.920  -1.661  29.542  1.00  0.00    -0.343 N 
ATOM      5  H1  UNL     1      22.630  -1.011  29.204  1.00  0.00     0.167 HD
HETATM    6  C5  UNL     1      20.748  -1.310  30.152  1.00  0.00     0.102 A 
HETATM    7  N3  UNL     1      20.104  -2.463  30.438  1.00  0.00    -0.326 N 
HETATM    8  C20 UNL     1      20.843  -3.505  30.023  1.00  0.00     0.065 A 
HETATM    9  C21 UNL     1      20.662  -4.861  30.064  1.00  0.00     0.058 A 
HETATM   10  C22 UNL     1      21.647  -5.675  29.533  1.00  0.00     0.069 A 
HETATM   11 CL2  UNL     1      21.443  -7.411  29.573  1.00  0.00    -0.081 Cl
ENDROOT
BRANCH   7  12
HETATM   12  C9  UNL     1      18.817  -2.523  31.085  1.00  0.00     0.214 C 
BRANCH  12  13
HETATM   13  C10 UNL     1      18.921  -2.675  32.549  1.00  0.00     0.182 C 
HETATM   14  O2  UNL     1      19.023  -3.816  33.041  1.00  0.00    -0.290 OA
BRANCH  13  15
HETATM   15  C11 UNL     1      18.907  -1.507  33.393  1.00  0.00     0.067 A 
HETATM   16  C12 UNL     1      17.691  -0.881  33.699  1.00  0.00     0.091 A 
HETATM   17  C14 UNL     1      17.675   0.226  34.499  1.00  0.00     0.045 A 
HETATM   18  C15 UNL     1      18.876   0.728  35.007  1.00  0.00    -0.052 A 
HETATM   19  C16 UNL     1      18.837   1.918  35.865  1.00  0.00     0.049 C 
HETATM   20  C17 UNL     1      20.059   0.137  34.722  1.00  0.00    -0.033 A 
HETATM   21  C18 UNL     1      21.325   0.700  35.283  1.00  0.00     0.050 C 
HETATM   22  C19 UNL     1      20.058  -0.977  33.916  1.00  0.00     0.057 A 
HETATM   23 CL1  UNL     1      21.590  -1.732  33.553  1.00  0.00    -0.083 Cl
BRANCH  16  24
HETATM   24  O3  UNL     1      16.568  -1.425  33.169  1.00  0.00    -0.289 OA
BRANCH  24  25
HETATM   25  C13 UNL     1      15.531  -0.719  32.568  1.00  0.00     0.505 C 
HETATM   26  F1  UNL     1      14.333  -1.451  32.699  1.00  0.00    -0.184 F 
HETATM   27  F2  UNL     1      15.770  -0.544  31.194  1.00  0.00    -0.184 F 
ENDBRANCH  24  25
ENDBRANCH  16  24
ENDBRANCH  13  15
ENDBRANCH  12  13
ENDBRANCH   7  12
BRANCH   6  28
HETATM   28  C6  UNL     1      20.339   0.098  30.407  1.00  0.00     0.192 C 
BRANCH  28  29
HETATM   29  N2  UNL     1      19.796   0.684  29.223  1.00  0.00    -0.414 N 
HETATM   30  C7  UNL     1      20.696   1.451  28.432  1.00  0.00     0.143 C 
HETATM   31  C8  UNL     1      18.486   1.232  29.367  1.00  0.00     0.143 C 
ENDBRANCH  28  29
ENDBRANCH   6  28
BRANCH   1  32
HETATM   32  O1  UNL     1      23.768  -6.009  28.438  1.00  0.00    -0.354 OA
HETATM   33  C1  UNL     1      24.069  -6.046  27.075  1.00  0.00     0.210 C 
ENDBRANCH   1  32
TORSDOF 8
ENDMDL
MODEL 2
REMARK VINA RESULT: -9.146006513      2.412      3.037
REMARK  8 active torsions:
REMARK  status: ('A' for Active; 'I' for Inactive)
REMARK    1  A    between atoms: O1_2  and  C2_3 
REMARK    2  A    between atoms: C5_8  and  C6_9 
REMARK    3  A    between atoms: C6_9  and  N2_10 
REMARK    4  A    between atoms: N3_13  and  C9_14 
REMARK    5  A    between atoms: C9_14  and  C10_15 
REMARK    6  A    between atoms: C10_15  and  C11_17 
REMARK    7  A    between atoms: C12_18  and  O3_19 
REMARK    8  A    between atoms: O3_19  and  C13_20 
ROOT
HETATM    1  C2  UNL     1      22.772  -5.163  29.078  1.00  0.00     0.092 A 
HETATM    2  C3  UNL     1      22.978  -3.806  28.995  1.00  0.00     0.070 A 
HETATM    3  C4  UNL     1      21.997  -2.983  29.513  1.00  0.00     0.063 A 
HETATM    4  N1  UNL     1      21.951  -1.643  29.560  1.00  0.00    -0.343 N 
ATOM      5  H1  UNL     1      22.668  -1.012  29.202  1.00  0.00     0.167 HD
HETATM    6  C5  UNL     1      20.786  -1.260  30.165  1.00  0.00     0.102 A 
HETATM    7  N3  UNL     1      20.128  -2.396  30.484  1.00  0.00    -0.326 N 
HETATM    8  C20 UNL     1      20.852  -3.459  30.095  1.00  0.00     0.065 A 
HETATM    9  C21 UNL     1      20.653  -4.811  30.173  1.00  0.00     0.058 A 
HETATM   10  C22 UNL     1      21.625  -5.652  29.660  1.00  0.00     0.069 A 
HETATM   11 CL2  UNL     1      21.397  -7.383  29.748  1.00  0.00    -0.081 Cl
ENDROOT
BRANCH   7  12
HETATM   12  C9  UNL     1      18.844  -2.422  31.138  1.00  0.00     0.214 C 
BRANCH  12  13
HETATM   13  C10 UNL     1      18.951  -2.556  32.603  1.00  0.00     0.182 C 
HETATM   14  O2  UNL     1      19.037  -3.693  33.109  1.00  0.00    -0.290 OA
BRANCH  13  15
HETATM   15  C11 UNL     1      18.959  -1.378  33.432  1.00  0.00     0.067 A 
HETATM   16  C12 UNL     1      20.166  -0.906  33.964  1.00  0.00     0.091 A 
HETATM   17  C14 UNL     1      20.176   0.211  34.750  1.00  0.00     0.045 A 
HETATM   18  C15 UNL     1      18.977   0.876  35.020  1.00  0.00    -0.052 A 
HETATM   19  C16 UNL     1      19.009   2.074  35.867  1.00  0.00     0.049 C 
HETATM   20  C17 UNL     1      17.802   0.435  34.516  1.00  0.00    -0.033 A 
HETATM   21  C18 UNL     1      16.537   1.170  34.823  1.00  0.00     0.050 C 
HETATM   22  C19 UNL     1      17.810  -0.691  33.726  1.00  0.00     0.057 A 
HETATM   23 CL1  UNL     1      16.288  -1.254  33.080  1.00  0.00    -0.083 Cl
BRANCH  16  24
HETATM   24  O3  UNL     1      21.288  -1.603  33.659  1.00  0.00    -0.289 OA
BRANCH  24  25
HETATM   25  C13 UNL     1      22.537  -1.052  33.388  1.00  0.00     0.505 C 
HETATM   26  F1  UNL     1      23.202  -1.855  32.439  1.00  0.00    -0.184 F 
HETATM   27  F2  UNL     1      23.334  -1.018  34.544  1.00  0.00    -0.184 F 
ENDBRANCH  24  25
ENDBRANCH  16  24
ENDBRANCH  13  15
ENDBRANCH  12  13
ENDBRANCH   7  12
BRANCH   6  28
HETATM   28  C6  UNL     1      20.398   0.160  30.383  1.00  0.00     0.192 C 
BRANCH  28  29
HETATM   29  N2  UNL     1      19.903   0.736  29.174  1.00  0.00    -0.414 N 
HETATM   30  C7  UNL     1      20.835   1.493  28.411  1.00  0.00     0.143 C 
HETATM   31  C8  UNL     1      18.589   1.287  29.260  1.00  0.00     0.143 C 
ENDBRANCH  28  29
ENDBRANCH   6  28
BRANCH   1  32
HETATM   32  O1  UNL     1      23.736  -6.044  28.567  1.00  0.00    -0.354 OA
HETATM   33  C1  UNL     1      23.925  -6.233  27.196  1.00  0.00     0.210 C 
ENDBRANCH   1  32
TORSDOF 8
ENDMDL
MODEL 3
REMARK VINA RESULT: -9.143690180      1.462      1.704
REMARK  8 active torsions:
REMARK  status: ('A' for Active; 'I' for Inactive)
REMARK    1  A    between atoms: O1_2  and  C2_3 
REMARK    2  A    between atoms: C5_8  and  C6_9 
REMARK    3  A    between atoms: C6_9  and  N2_10 
REMARK    4  A    between atoms: N3_13  and  C9_14 
REMARK    5  A    between atoms: C9_14  and  C10_15 
REMARK    6  A    between atoms: C10_15  and  C11_17 
REMARK    7  A    between atoms: C12_18  and  O3_19 
REMARK    8  A    between atoms: O3_19  and  C13_20 
ROOT
HETATM    1  C2  UNL     1      22.029  -4.188  29.852  1.00  0.00     0.092 A 
HETATM    2  C3  UNL     1      22.012  -2.845  29.563  1.00  0.00     0.070 A 
HETATM    3  C4  UNL     1      20.950  -2.105  30.048  1.00  0.00     0.063 A 
HETATM    4  N1  UNL     1      20.697  -0.795  29.911  1.00  0.00    -0.343 N 
ATOM      5  H1  UNL     1      21.280  -0.128  29.406  1.00  0.00     0.167 HD
HETATM    6  C5  UNL     1      19.530  -0.499  30.560  1.00  0.00     0.102 A 
HETATM    7  N3  UNL     1      19.083  -1.658  31.092  1.00  0.00    -0.326 N 
HETATM    8  C20 UNL     1      19.937  -2.650  30.790  1.00  0.00     0.065 A 
HETATM    9  C21 UNL     1      19.960  -3.988  31.074  1.00  0.00     0.058 A 
HETATM   10  C22 UNL     1      21.015  -4.746  30.597  1.00  0.00     0.069 A 
HETATM   11 CL2  UNL     1      21.070  -6.459  30.945  1.00  0.00    -0.081 Cl
ENDROOT
BRANCH   7  12
HETATM   12  C9  UNL     1      17.865  -1.771  31.855  1.00  0.00     0.214 C 
BRANCH  12  13
HETATM   13  C10 UNL     1      18.111  -1.896  33.305  1.00  0.00     0.182 C 
HETATM   14  O2  UNL     1      17.958  -3.002  33.859  1.00  0.00    -0.290 OA
BRANCH  13  15
HETATM   15  C11 UNL     1      18.525  -0.743  34.063  1.00  0.00     0.067 A 
HETATM   16  C12 UNL     1      17.577   0.209  34.462  1.00  0.00     0.091 A 
HETATM   17  C14 UNL     1      17.967   1.302  35.181  1.00  0.00     0.045 A 
HETATM   18  C15 UNL     1      19.314   1.465  35.513  1.00  0.00    -0.052 A 
HETATM   19  C16 UNL     1      19.713   2.648  36.286  1.00  0.00     0.049 C 
HETATM   20  C17 UNL     1      20.244   0.558  35.136  1.00  0.00    -0.033 A 
HETATM   21  C18 UNL     1      21.677   0.762  35.509  1.00  0.00     0.050 C 
HETATM   22  C19 UNL     1      19.834  -0.538  34.413  1.00  0.00     0.057 A 
HETATM   23 CL1  UNL     1      21.041  -1.704  33.931  1.00  0.00    -0.083 Cl
BRANCH  16  24
HETATM   24  O3  UNL     1      16.289  -0.017  34.103  1.00  0.00    -0.289 OA
BRANCH  24  25
HETATM   25  C13 UNL     1      15.283   0.943  34.047  1.00  0.00     0.505 C 
HETATM   26  F1  UNL     1      15.183   1.584  35.298  1.00  0.00    -0.184 F 
HETATM   27  F2  UNL     1      14.038   0.352  33.775  1.00  0.00    -0.184 F 
ENDBRANCH  24  25
ENDBRANCH  16  24
ENDBRANCH  13  15
ENDBRANCH  12  13
ENDBRANCH   7  12
BRANCH   6  28
HETATM   28  C6  UNL     1      18.938   0.865  30.612  1.00  0.00     0.192 C 
BRANCH  28  29
HETATM   29  N2  UNL     1      17.993   1.042  29.556  1.00  0.00    -0.414 N 
HETATM   30  C7  UNL     1      18.450   1.765  28.419  1.00  0.00     0.143 C 
HETATM   31  C8  UNL     1      16.664   1.342  29.979  1.00  0.00     0.143 C 
ENDBRANCH  28  29
ENDBRANCH   6  28
BRANCH   1  32
HETATM   32  O1  UNL     1      23.083  -4.986  29.384  1.00  0.00    -0.354 OA
HETATM   33  C1  UNL     1      23.156  -5.428  28.061  1.00  0.00     0.210 C 
ENDBRANCH   1  32
TORSDOF 8
ENDMDL
MODEL 4
REMARK VINA RESULT: -9.059171072      3.643      5.419
REMARK  8 active torsions:
REMARK  status: ('A' for Active; 'I' for Inactive)
REMARK    1  A    between atoms: O1_2  and  C2_3 
REMARK    2  A    between atoms: C5_8  and  C6_9 
REMARK    3  A    between atoms: C6_9  and  N2_10 
REMARK    4  A    between atoms: N3_13  and  C9_14 
REMARK    5  A    between atoms: C9_14  and  C10_15 
REMARK    6  A    between atoms: C10_15  and  C11_17 
REMARK    7  A    between atoms: C12_18  and  O3_19 
REMARK    8  A    between atoms: O3_19  and  C13_20 
ROOT
HETATM    1  C2  UNL     1      18.899  -6.342  34.023  1.00  0.00     0.092 A 
HETATM    2  C3  UNL     1      20.047  -5.668  33.683  1.00  0.00     0.070 A 
HETATM    3  C4  UNL     1      19.984  -4.288  33.647  1.00  0.00     0.063 A 
HETATM    4  N1  UNL     1      20.948  -3.403  33.350  1.00  0.00    -0.343 N 
ATOM      5  H1  UNL     1      21.909  -3.634  33.097  1.00  0.00     0.167 HD
HETATM    6  C5  UNL     1      20.433  -2.140  33.441  1.00  0.00     0.102 A 
HETATM    7  N3  UNL     1      19.138  -2.278  33.800  1.00  0.00    -0.326 N 
HETATM    8  C20 UNL     1      18.846  -3.583  33.931  1.00  0.00     0.065 A 
HETATM    9  C21 UNL     1      17.706  -4.261  34.268  1.00  0.00     0.058 A 
HETATM   10  C22 UNL     1      17.748  -5.644  34.311  1.00  0.00     0.069 A 
HETATM   11 CL2  UNL     1      16.306  -6.535  34.739  1.00  0.00    -0.081 Cl
ENDROOT
BRANCH   7  12
HETATM   12  C9  UNL     1      18.238  -1.170  33.997  1.00  0.00     0.214 C 
BRANCH  12  13
HETATM   13  C10 UNL     1      17.226  -1.060  32.929  1.00  0.00     0.182 C 
HETATM   14  O2  UNL     1      16.135  -1.650  33.057  1.00  0.00    -0.290 OA
BRANCH  13  15
HETATM   15  C11 UNL     1      17.505  -0.274  31.755  1.00  0.00     0.067 A 
HETATM   16  C12 UNL     1      18.168  -0.855  30.666  1.00  0.00     0.091 A 
HETATM   17  C14 UNL     1      18.434  -0.112  29.552  1.00  0.00     0.045 A 
HETATM   18  C15 UNL     1      18.042   1.228  29.506  1.00  0.00    -0.052 A 
HETATM   19  C16 UNL     1      18.337   2.010  28.299  1.00  0.00     0.049 C 
HETATM   20  C17 UNL     1      17.401   1.807  30.547  1.00  0.00    -0.033 A 
HETATM   21  C18 UNL     1      16.995   3.243  30.465  1.00  0.00     0.050 C 
HETATM   22  C19 UNL     1      17.141   1.044  31.662  1.00  0.00     0.057 A 
HETATM   23 CL1  UNL     1      16.314   1.800  33.001  1.00  0.00    -0.083 Cl
BRANCH  16  24
HETATM   24  O3  UNL     1      18.518  -2.160  30.783  1.00  0.00    -0.289 OA
BRANCH  24  25
HETATM   25  C13 UNL     1      19.465  -2.819  30.005  1.00  0.00     0.505 C 
HETATM   26  F1  UNL     1      19.614  -4.139  30.476  1.00  0.00    -0.184 F 
HETATM   27  F2  UNL     1      20.719  -2.193  30.099  1.00  0.00    -0.184 F 
ENDBRANCH  24  25
ENDBRANCH  16  24
ENDBRANCH  13  15
ENDBRANCH  12  13
ENDBRANCH   7  12
BRANCH   6  28
HETATM   28  C6  UNL     1      21.221  -0.906  33.173  1.00  0.00     0.192 C 
BRANCH  28  29
HETATM   29  N2  UNL     1      22.114  -0.637  34.254  1.00  0.00    -0.414 N 
HETATM   30  C7  UNL     1      21.710   0.379  35.165  1.00  0.00     0.143 C 
HETATM   31  C8  UNL     1      23.499  -0.635  33.908  1.00  0.00     0.143 C 
ENDBRANCH  28  29
ENDBRANCH   6  28
BRANCH   1  32
HETATM   32  O1  UNL     1      18.906  -7.743  34.075  1.00  0.00    -0.354 OA
HETATM   33  C1  UNL     1      19.925  -8.508  33.502  1.00  0.00     0.210 C 
ENDBRANCH   1  32
TORSDOF 8
ENDMDL
MODEL 5
REMARK VINA RESULT: -8.986977013      3.544      6.786
REMARK  8 active torsions:
REMARK  status: ('A' for Active; 'I' for Inactive)
REMARK    1  A    between atoms: O1_2  and  C2_3 
REMARK    2  A    between atoms: C5_8  and  C6_9 
REMARK    3  A    between atoms: C6_9  and  N2_10 
REMARK    4  A    between atoms: N3_13  and  C9_14 
REMARK    5  A    between atoms: C9_14  and  C10_15 
REMARK    6  A    between atoms: C10_15  and  C11_17 
REMARK    7  A    between atoms: C12_18  and  O3_19 
REMARK    8  A    between atoms: O3_19  and  C13_20 
ROOT
HETATM    1  C2  UNL     1      17.736   1.574  30.059  1.00  0.00     0.092 A 
HETATM    2  C3  UNL     1      18.891   1.662  29.318  1.00  0.00     0.070 A 
HETATM    3  C4  UNL     1      19.850   0.689  29.522  1.00  0.00     0.063 A 
HETATM    4  N1  UNL     1      21.048   0.544  28.936  1.00  0.00    -0.343 N 
ATOM      5  H1  UNL     1      21.439   1.161  28.224  1.00  0.00     0.167 HD
HETATM    6  C5  UNL     1      21.661  -0.566  29.449  1.00  0.00     0.102 A 
HETATM    7  N3  UNL     1      20.808  -1.090  30.356  1.00  0.00    -0.326 N 
HETATM    8  C20 UNL     1      19.696  -0.337  30.414  1.00  0.00     0.065 A 
HETATM    9  C21 UNL     1      18.544  -0.418  31.149  1.00  0.00     0.058 A 
HETATM   10  C22 UNL     1      17.571   0.547  30.959  1.00  0.00     0.069 A 
HETATM   11 CL2  UNL     1      16.090   0.468  31.885  1.00  0.00    -0.081 Cl
ENDROOT
BRANCH   7  12
HETATM   12  C9  UNL     1      21.088  -2.274  31.129  1.00  0.00     0.214 C 
BRANCH  12  13
HETATM   13  C10 UNL     1      20.301  -3.442  30.690  1.00  0.00     0.182 C 
HETATM   14  O2  UNL     1      19.593  -3.353  29.666  1.00  0.00    -0.290 OA
BRANCH  13  15
HETATM   15  C11 UNL     1      20.357  -4.668  31.443  1.00  0.00     0.067 A 
HETATM   16  C12 UNL     1      21.092  -5.756  30.952  1.00  0.00     0.091 A 
HETATM   17  C14 UNL     1      21.148  -6.920  31.664  1.00  0.00     0.045 A 
HETATM   18  C15 UNL     1      20.468  -7.018  32.882  1.00  0.00    -0.052 A 
HETATM   19  C16 UNL     1      20.541  -8.278  33.631  1.00  0.00     0.049 C 
HETATM   20  C17 UNL     1      19.754  -5.979  33.371  1.00  0.00    -0.033 A 
HETATM   21  C18 UNL     1      19.039  -6.117  34.677  1.00  0.00     0.050 C 
HETATM   22  C19 UNL     1      19.708  -4.814  32.641  1.00  0.00     0.057 A 
HETATM   23 CL1  UNL     1      18.783  -3.478  33.281  1.00  0.00    -0.083 Cl
BRANCH  16  24
HETATM   24  O3  UNL     1      21.724  -5.587  29.765  1.00  0.00    -0.289 OA
BRANCH  24  25
HETATM   25  C13 UNL     1      21.421  -6.254  28.582  1.00  0.00     0.505 C 
HETATM   26  F1  UNL     1      20.021  -6.305  28.424  1.00  0.00    -0.184 F 
HETATM   27  F2  UNL     1      21.890  -7.578  28.615  1.00  0.00    -0.184 F 
ENDBRANCH  24  25
ENDBRANCH  16  24
ENDBRANCH  13  15
ENDBRANCH  12  13
ENDBRANCH   7  12
BRANCH   6  28
HETATM   28  C6  UNL     1      23.012  -1.029  29.032  1.00  0.00     0.192 C 
BRANCH  28  29
HETATM   29  N2  UNL     1      24.025  -0.367  29.789  1.00  0.00    -0.414 N 
HETATM   30  C7  UNL     1      24.763   0.639  29.106  1.00  0.00     0.143 C 
HETATM   31  C8  UNL     1      24.790  -1.214  30.646  1.00  0.00     0.143 C 
ENDBRANCH  28  29
ENDBRANCH   6  28
BRANCH   1  32
HETATM   32  O1  UNL     1      16.730   2.536  29.892  1.00  0.00    -0.354 OA
HETATM   33  C1  UNL     1      16.789   3.793  30.498  1.00  0.00     0.210 C 
ENDBRANCH   1  32
TORSDOF 8
ENDMDL
