MODEL 1
REMARK VINA RESULT: -6.624991610      0.000      0.000
REMARK  4 active torsions:
REMARK  status: ('A' for Active; 'I' for Inactive)
REMARK    1  A    between atoms: C3_5  and  C4_6 
REMARK    2  A    between atoms: C4_6  and  O2_7 
REMARK    3  A    between atoms: C9_16  and  C10_17 
REMARK    4  A    between atoms: C10_17  and  O3_18 
ROOT
HETATM    1  N1  UNL     1      -4.386   0.086   9.941  1.00  0.00    -0.195 NA
HETATM    2  C1  UNL     1      -4.569   0.777  10.873  1.00  0.00     0.091 C 
HETATM    3  C2  UNL     1      -4.803   1.664  12.024  1.00  0.00     0.236 C 
HETATM    4  O1  UNL     1      -4.751   0.878  13.111  1.00  0.00    -0.356 OA
HETATM    5  C3  UNL     1      -4.284   1.368  14.288  1.00  0.00     0.214 C 
HETATM    6  C5  UNL     1      -5.072   2.591  14.590  1.00  0.00     0.115 A 
HETATM    7  N2  UNL     1      -5.955   2.771  15.578  1.00  0.00    -0.352 N 
ATOM      8  H2  UNL     1      -6.205   2.064  16.271  1.00  0.00     0.166 HD
HETATM    9  C6  UNL     1      -6.467   4.013  15.531  1.00  0.00     0.106 A 
HETATM   10  C7  UNL     1      -5.857   4.611  14.454  1.00  0.00     0.109 A 
HETATM   11  N3  UNL     1      -5.011   3.729  13.895  1.00  0.00    -0.343 N 
HETATM   12  C8  UNL     1      -4.193   4.022  12.730  1.00  0.00     0.140 C 
HETATM   13  C9  UNL     1      -3.910   2.823  11.887  1.00  0.00     0.070 C 
ENDROOT
BRANCH  13  14
HETATM   14  C10 UNL     1      -3.991   3.303  10.427  1.00  0.00     0.174 C 
BRANCH  14  15
HETATM   15  O3  UNL     1      -4.950   4.300  10.282  1.00  0.00    -0.400 OA
ATOM     16  H3  UNL     1      -5.027   4.569   9.374  1.00  0.00     0.209 HD
ENDBRANCH  14  15
ENDBRANCH  13  14
BRANCH   5  17
HETATM   17  C4  UNL     1      -4.496   0.341  15.370  1.00  0.00     0.204 C 
BRANCH  17  18
HETATM   18  O2  UNL     1      -3.692   0.647  16.473  1.00  0.00    -0.398 OA
ATOM     19  H2  UNL     1      -4.221   0.656  17.262  1.00  0.00     0.209 HD
ENDBRANCH  17  18
ENDBRANCH   5  17
TORSDOF 4
ENDMDL
MODEL 2
REMARK VINA RESULT: -6.308589560      1.299      1.314
REMARK  4 active torsions:
REMARK  status: ('A' for Active; 'I' for Inactive)
REMARK    1  A    between atoms: C3_5  and  C4_6 
REMARK    2  A    between atoms: C4_6  and  O2_7 
REMARK    3  A    between atoms: C9_16  and  C10_17 
REMARK    4  A    between atoms: C10_17  and  O3_18 
ROOT
HETATM    1  N1  UNL     1      -3.870  -1.330  11.525  1.00  0.00    -0.195 NA
HETATM    2  C1  UNL     1      -4.145  -0.352  12.117  1.00  0.00     0.091 C 
HETATM    3  C2  UNL     1      -4.488   0.886  12.835  1.00  0.00     0.236 C 
HETATM    4  O1  UNL     1      -4.669   0.530  14.116  1.00  0.00    -0.356 OA
HETATM    5  C3  UNL     1      -4.356   1.394  15.116  1.00  0.00     0.214 C 
HETATM    6  C5  UNL     1      -5.086   2.658  14.839  1.00  0.00     0.115 A 
HETATM    7  N2  UNL     1      -6.097   3.188  15.536  1.00  0.00    -0.352 N 
ATOM      8  H2  UNL     1      -6.507   2.774  16.373  1.00  0.00     0.166 HD
HETATM    9  C6  UNL     1      -6.497   4.344  14.977  1.00  0.00     0.106 A 
HETATM   10  C7  UNL     1      -5.681   4.516  13.885  1.00  0.00     0.109 A 
HETATM   11  N3  UNL     1      -4.828   3.478  13.818  1.00  0.00    -0.343 N 
HETATM   12  C8  UNL     1      -3.816   3.331  12.785  1.00  0.00     0.140 C 
HETATM   13  C9  UNL     1      -3.497   1.908  12.467  1.00  0.00     0.070 C 
ENDROOT
BRANCH  13  14
HETATM   14  C10 UNL     1      -3.310   1.847  10.941  1.00  0.00     0.174 C 
BRANCH  14  15
HETATM   15  O3  UNL     1      -4.298   2.576  10.287  1.00  0.00    -0.400 OA
ATOM     16  H3  UNL     1      -5.160   2.360  10.624  1.00  0.00     0.209 HD
ENDBRANCH  14  15
ENDBRANCH  13  14
BRANCH   5  17
HETATM   17  C4  UNL     1      -4.815   0.815  16.430  1.00  0.00     0.204 C 
BRANCH  17  18
HETATM   18  O2  UNL     1      -6.058   0.193  16.263  1.00  0.00    -0.398 OA
ATOM     19  H2  UNL     1      -6.171  -0.479  16.924  1.00  0.00     0.209 HD
ENDBRANCH  17  18
ENDBRANCH   5  17
TORSDOF 4
ENDMDL
MODEL 3
REMARK VINA RESULT: -6.201753307      2.012      4.484
REMARK  4 active torsions:
REMARK  status: ('A' for Active; 'I' for Inactive)
REMARK    1  A    between atoms: C3_5  and  C4_6 
REMARK    2  A    between atoms: C4_6  and  O2_7 
REMARK    3  A    between atoms: C9_16  and  C10_17 
REMARK    4  A    between atoms: C10_17  and  O3_18 
ROOT
HETATM    1  N1  UNL     1      -5.374  -0.167  16.368  1.00  0.00    -0.195 NA
HETATM    2  C1  UNL     1      -4.947   0.434  15.452  1.00  0.00     0.091 C 
HETATM    3  C2  UNL     1      -4.407   1.207  14.322  1.00  0.00     0.236 C 
HETATM    4  O1  UNL     1      -4.405   0.371  13.273  1.00  0.00    -0.356 OA
HETATM    5  C3  UNL     1      -4.606   0.849  12.017  1.00  0.00     0.214 C 
HETATM    6  C5  UNL     1      -3.608   1.928  11.802  1.00  0.00     0.115 A 
HETATM    7  N2  UNL     1      -2.565   1.921  10.964  1.00  0.00    -0.352 N 
ATOM      8  H2  UNL     1      -2.317   1.146  10.349  1.00  0.00     0.166 HD
HETATM    9  C6  UNL     1      -1.889   3.081  11.047  1.00  0.00     0.106 A 
HETATM   10  C7  UNL     1      -2.564   3.823  11.986  1.00  0.00     0.109 A 
HETATM   11  N3  UNL     1      -3.608   3.104  12.434  1.00  0.00    -0.343 N 
HETATM   12  C8  UNL     1      -4.545   3.579  13.437  1.00  0.00     0.140 C 
HETATM   13  C9  UNL     1      -5.130   2.486  14.268  1.00  0.00     0.070 C 
ENDROOT
BRANCH  13  14
HETATM   14  C10 UNL     1      -5.208   3.038  15.702  1.00  0.00     0.174 C 
BRANCH  14  15
HETATM   15  O3  UNL     1      -6.476   3.540  15.975  1.00  0.00    -0.400 OA
ATOM     16  H3  UNL     1      -6.583   3.709  16.904  1.00  0.00     0.209 HD
ENDBRANCH  14  15
ENDBRANCH  13  14
BRANCH   5  17
HETATM   17  C4  UNL     1      -4.382  -0.262  11.024  1.00  0.00     0.204 C 
BRANCH  17  18
HETATM   18  O2  UNL     1      -4.769   0.161   9.748  1.00  0.00    -0.398 OA
ATOM     19  H2  UNL     1      -5.022   1.076   9.777  1.00  0.00     0.209 HD
ENDBRANCH  17  18
ENDBRANCH   5  17
TORSDOF 4
ENDMDL
MODEL 4
REMARK VINA RESULT: -6.161410813      2.346      4.376
REMARK  4 active torsions:
REMARK  status: ('A' for Active; 'I' for Inactive)
REMARK    1  A    between atoms: C3_5  and  C4_6 
REMARK    2  A    between atoms: C4_6  and  O2_7 
REMARK    3  A    between atoms: C9_16  and  C10_17 
REMARK    4  A    between atoms: C10_17  and  O3_18 
ROOT
HETATM    1  N1  UNL     1      -5.930  -0.358  17.344  1.00  0.00    -0.195 NA
HETATM    2  C1  UNL     1      -5.561   0.474  16.601  1.00  0.00     0.091 C 
HETATM    3  C2  UNL     1      -5.104   1.536  15.690  1.00  0.00     0.236 C 
HETATM    4  O1  UNL     1      -4.612   0.908  14.611  1.00  0.00    -0.356 OA
HETATM    5  C3  UNL     1      -4.711   1.479  13.383  1.00  0.00     0.214 C 
HETATM    6  C5  UNL     1      -4.117   2.837  13.488  1.00  0.00     0.115 A 
HETATM    7  N2  UNL     1      -2.990   3.281  12.921  1.00  0.00    -0.352 N 
ATOM      8  H2  UNL     1      -2.378   2.723  12.325  1.00  0.00     0.166 HD
HETATM    9  C6  UNL     1      -2.778   4.569  13.246  1.00  0.00     0.106 A 
HETATM   10  C7  UNL     1      -3.835   4.914  14.053  1.00  0.00     0.109 A 
HETATM   11  N3  UNL     1      -4.640   3.845  14.188  1.00  0.00    -0.343 N 
HETATM   12  C8  UNL     1      -5.861   3.849  14.976  1.00  0.00     0.140 C 
HETATM   13  C9  UNL     1      -6.192   2.517  15.563  1.00  0.00     0.070 C 
ENDROOT
BRANCH  13  14
HETATM   14  C10 UNL     1      -6.733   2.798  16.975  1.00  0.00     0.174 C 
BRANCH  14  15
HETATM   15  O3  UNL     1      -7.160   4.117  17.092  1.00  0.00    -0.400 OA
ATOM     16  H3  UNL     1      -7.146   4.556  16.249  1.00  0.00     0.209 HD
ENDBRANCH  14  15
ENDBRANCH  13  14
BRANCH   5  17
HETATM   17  C4  UNL     1      -3.933   0.654  12.390  1.00  0.00     0.204 C 
BRANCH  17  18
HETATM   18  O2  UNL     1      -4.357  -0.678  12.450  1.00  0.00    -0.398 OA
ATOM     19  H2  UNL     1      -3.785  -1.170  13.027  1.00  0.00     0.209 HD
ENDBRANCH  17  18
ENDBRANCH   5  17
TORSDOF 4
ENDMDL
MODEL 5
REMARK VINA RESULT: -6.070198899      2.238      3.455
REMARK  4 active torsions:
REMARK  status: ('A' for Active; 'I' for Inactive)
REMARK    1  A    between atoms: C3_5  and  C4_6 
REMARK    2  A    between atoms: C4_6  and  O2_7 
REMARK    3  A    between atoms: C9_16  and  C10_17 
REMARK    4  A    between atoms: C10_17  and  O3_18 
ROOT
HETATM    1  N1  UNL     1      -1.693   3.044   9.749  1.00  0.00    -0.195 NA
HETATM    2  C1  UNL     1      -2.298   2.707  10.699  1.00  0.00     0.091 C 
HETATM    3  C2  UNL     1      -3.044   2.260  11.886  1.00  0.00     0.236 C 
HETATM    4  O1  UNL     1      -3.707   3.339  12.331  1.00  0.00    -0.356 OA
HETATM    5  C3  UNL     1      -4.916   3.198  12.934  1.00  0.00     0.214 C 
HETATM    6  C5  UNL     1      -4.735   2.227  14.043  1.00  0.00     0.115 A 
HETATM    7  N2  UNL     1      -4.802   2.466  15.358  1.00  0.00    -0.352 N 
ATOM      8  H2  UNL     1      -4.991   3.377  15.775  1.00  0.00     0.166 HD
HETATM    9  C6  UNL     1      -4.584   1.335  16.052  1.00  0.00     0.106 A 
HETATM   10  C7  UNL     1      -4.376   0.365  15.101  1.00  0.00     0.109 A 
HETATM   11  N3  UNL     1      -4.472   0.928  13.884  1.00  0.00    -0.343 N 
HETATM   12  C8  UNL     1      -4.308   0.195  12.640  1.00  0.00     0.140 C 
HETATM   13  C9  UNL     1      -3.761   1.027  11.529  1.00  0.00     0.070 C 
ENDROOT
BRANCH  13  14
HETATM   14  C10 UNL     1      -2.779   0.123  10.765  1.00  0.00     0.174 C 
BRANCH  14  15
HETATM   15  O3  UNL     1      -3.360  -0.375   9.603  1.00  0.00    -0.400 OA
ATOM     16  H3  UNL     1      -3.153  -1.295   9.486  1.00  0.00     0.209 HD
ENDBRANCH  14  15
ENDBRANCH  13  14
BRANCH   5  17
HETATM   17  C4  UNL     1      -5.351   4.531  13.486  1.00  0.00     0.204 C 
BRANCH  17  18
HETATM   18  O2  UNL     1      -6.714   4.489  13.800  1.00  0.00    -0.398 OA
ATOM     19  H2  UNL     1      -7.192   5.079  13.230  1.00  0.00     0.209 HD
ENDBRANCH  17  18
ENDBRANCH   5  17
TORSDOF 4
ENDMDL
