MODEL 1
REMARK VINA RESULT: -10.355566443      0.000      0.000
REMARK  5 active torsions:
REMARK  status: ('A' for Active; 'I' for Inactive)
REMARK       I    between atoms: N1_2  and  C2_3 
REMARK    1  A    between atoms: N1_2  and  C19_32 
REMARK    2  A    between atoms: C2_3  and  C3_5 
REMARK    3  A    between atoms: N2_8  and  S1_9 
REMARK    4  A    between atoms: S1_9  and  N3_12 
REMARK    5  A    between atoms: C9_15  and  C10_16 
REMARK       I    between atoms: C10_16  and  N4_18 
ROOT
HETATM    1  S1  UNL     1      19.269   2.249 -24.296  1.00  0.00     0.090 S 
HETATM    2  C6  UNL     1      17.436   2.394 -23.910  1.00  0.00     0.155 C 
HETATM    3  O2  UNL     1      19.969   1.883 -25.752  1.00  0.00    -0.234 OA
ENDROOT
BRANCH   1   4
HETATM    4  N2  UNL     1      19.470   0.548 -23.770  1.00  0.00    -0.163 NA
HETATM    5  C5  UNL     1      18.588  -0.031 -22.769  1.00  0.00     0.113 C 
HETATM    6  C4  UNL     1      18.609  -1.542 -22.808  1.00  0.00     0.030 C 
HETATM    7  C3  UNL     1      19.977  -1.973 -22.324  1.00  0.00     0.086 C 
HETATM    8  C18 UNL     1      20.803  -0.733 -22.152  1.00  0.00     0.112 C 
HETATM    9  C17 UNL     1      20.830   0.165 -23.331  1.00  0.00     0.315 C 
HETATM   10  F1  UNL     1      21.535   1.299 -22.940  1.00  0.00    -0.187 F 
HETATM   11  F2  UNL     1      21.448  -0.497 -24.374  1.00  0.00    -0.187 F 
BRANCH   7  12
HETATM   12  C2  UNL     1      19.901  -2.647 -20.987  1.00  0.00     0.224 C 
HETATM   13  N1  UNL     1      20.902  -3.444 -20.406  1.00  0.00    -0.351 N 
HETATM   14  C1  UNL     1      20.550  -4.063 -19.102  1.00  0.00     0.153 C 
HETATM   15  O1  UNL     1      18.818  -2.492 -20.297  1.00  0.00    -0.273 OA
BRANCH  13  16
HETATM   16  C19 UNL     1      22.213  -3.705 -20.868  1.00  0.00     0.086 C 
HETATM   17  C20 UNL     1      22.597  -5.173 -20.920  1.00  0.00     0.025 C 
HETATM   18  C21 UNL     1      24.087  -5.358 -20.747  1.00  0.00     0.002 C 
HETATM   19  C22 UNL     1      24.830  -4.354 -21.605  1.00  0.00     0.000 C 
HETATM   20  C23 UNL     1      24.561  -2.939 -21.136  1.00  0.00     0.002 C 
HETATM   21  C24 UNL     1      23.341  -2.987 -20.188  1.00  0.00     0.025 C 
ENDBRANCH  13  16
ENDBRANCH   7  12
ENDBRANCH   1   4
BRANCH   1  22
HETATM   22  N3  UNL     1      19.689   3.903 -24.445  1.00  0.00    -0.331 N 
HETATM   23  C7  UNL     1      18.679   4.893 -24.635  1.00  0.00     0.134 C 
HETATM   24  C8  UNL     1      18.873   6.074 -23.722  1.00  0.00     0.034 C 
HETATM   25  C9  UNL     1      20.126   6.811 -24.086  1.00  0.00     0.081 C 
HETATM   26  C15 UNL     1      21.226   5.788 -24.338  1.00  0.00     0.034 C 
HETATM   27  C16 UNL     1      20.804   4.515 -23.700  1.00  0.00     0.134 C 
BRANCH  25  28
HETATM   28  C10 UNL     1      19.897   7.700 -25.235  1.00  0.00     0.227 C 
HETATM   29  O3  UNL     1      18.843   8.389 -25.263  1.00  0.00    -0.273 OA
HETATM   30  N4  UNL     1      20.774   7.848 -26.330  1.00  0.00    -0.317 N 
HETATM   31  C11 UNL     1      21.778   8.638 -26.347  1.00  0.00     0.079 C 
ATOM     32  H4  UNL     1      20.595   7.288 -27.163  1.00  0.00     0.170 HD
HETATM   33  C12 UNL     1      22.763   8.881 -27.422  1.00  0.00     0.078 C 
HETATM   34  N5  UNL     1      22.157   9.481 -25.266  1.00  0.00    -0.380 N 
HETATM   35  C13 UNL     1      23.549  10.110 -26.996  1.00  0.00     0.027 C 
HETATM   36  C14 UNL     1      23.500   9.980 -25.480  1.00  0.00     0.121 C 
ATOM     37  H5  UNL     1      21.571   9.700 -24.460  1.00  0.00     0.160 HD
ENDBRANCH  25  28
ENDBRANCH   1  22
TORSDOF 5
ENDMDL
MODEL 2
REMARK VINA RESULT: -10.266909260      1.617      1.814
REMARK  5 active torsions:
REMARK  status: ('A' for Active; 'I' for Inactive)
REMARK       I    between atoms: N1_2  and  C2_3 
REMARK    1  A    between atoms: N1_2  and  C19_32 
REMARK    2  A    between atoms: C2_3  and  C3_5 
REMARK    3  A    between atoms: N2_8  and  S1_9 
REMARK    4  A    between atoms: S1_9  and  N3_12 
REMARK    5  A    between atoms: C9_15  and  C10_16 
REMARK       I    between atoms: C10_16  and  N4_18 
ROOT
HETATM    1  S1  UNL     1      19.419   3.695 -23.881  1.00  0.00     0.090 S 
HETATM    2  C6  UNL     1      17.586   3.592 -23.478  1.00  0.00     0.155 C 
HETATM    3  O2  UNL     1      20.165   3.286 -25.302  1.00  0.00    -0.234 OA
ENDROOT
BRANCH   1   4
HETATM    4  N2  UNL     1      19.887   2.116 -23.178  1.00  0.00    -0.163 NA
HETATM    5  C5  UNL     1      19.069   1.483 -22.156  1.00  0.00     0.113 C 
HETATM    6  C4  UNL     1      19.358   0.004 -22.040  1.00  0.00     0.030 C 
HETATM    7  C3  UNL     1      20.752  -0.125 -21.463  1.00  0.00     0.086 C 
HETATM    8  C18 UNL     1      21.336   1.255 -21.389  1.00  0.00     0.112 C 
HETATM    9  C17 UNL     1      21.268   2.028 -22.651  1.00  0.00     0.315 C 
HETATM   10  F1  UNL     1      21.739   3.303 -22.352  1.00  0.00    -0.187 F 
HETATM   11  F2  UNL     1      22.050   1.395 -23.597  1.00  0.00    -0.187 F 
BRANCH   7  12
HETATM   12  C2  UNL     1      20.723  -0.673 -20.069  1.00  0.00     0.224 C 
HETATM   13  N1  UNL     1      21.476  -1.761 -19.594  1.00  0.00    -0.351 N 
HETATM   14  C1  UNL     1      21.207  -2.157 -18.187  1.00  0.00     0.153 C 
HETATM   15  O1  UNL     1      19.934  -0.105 -19.216  1.00  0.00    -0.273 OA
BRANCH  13  16
HETATM   16  C19 UNL     1      22.482  -2.503 -20.253  1.00  0.00     0.086 C 
HETATM   17  C20 UNL     1      22.765  -3.872 -19.659  1.00  0.00     0.025 C 
HETATM   18  C21 UNL     1      24.194  -4.297 -19.915  1.00  0.00     0.002 C 
HETATM   19  C22 UNL     1      24.563  -4.010 -21.356  1.00  0.00     0.000 C 
HETATM   20  C23 UNL     1      24.551  -2.519 -21.629  1.00  0.00     0.002 C 
HETATM   21  C24 UNL     1      23.811  -1.837 -20.456  1.00  0.00     0.025 C 
ENDBRANCH  13  16
ENDBRANCH   7  12
ENDBRANCH   1   4
BRANCH   1  22
HETATM   22  N3  UNL     1      19.571   5.368 -24.217  1.00  0.00    -0.331 N 
HETATM   23  C7  UNL     1      18.421   6.214 -24.219  1.00  0.00     0.134 C 
HETATM   24  C8  UNL     1      18.659   7.484 -23.445  1.00  0.00     0.034 C 
HETATM   25  C9  UNL     1      19.687   8.328 -24.134  1.00  0.00     0.081 C 
HETATM   26  C15 UNL     1      20.829   7.421 -24.580  1.00  0.00     0.034 C 
HETATM   27  C16 UNL     1      20.734   6.167 -23.791  1.00  0.00     0.134 C 
BRANCH  25  28
HETATM   28  C10 UNL     1      19.089   9.083 -25.246  1.00  0.00     0.227 C 
HETATM   29  O3  UNL     1      18.181   9.917 -24.987  1.00  0.00    -0.273 OA
HETATM   30  N4  UNL     1      19.452   8.949 -26.602  1.00  0.00    -0.317 N 
HETATM   31  C11 UNL     1      20.426   9.565 -27.152  1.00  0.00     0.079 C 
ATOM     32  H4  UNL     1      18.899   8.318 -27.183  1.00  0.00     0.170 HD
HETATM   33  C12 UNL     1      20.903   9.509 -28.550  1.00  0.00     0.078 C 
HETATM   34  N5  UNL     1      21.287  10.473 -26.476  1.00  0.00    -0.380 N 
HETATM   35  C13 UNL     1      21.900  10.648 -28.694  1.00  0.00     0.027 C 
HETATM   36  C14 UNL     1      22.464  10.726 -27.282  1.00  0.00     0.121 C 
ATOM     37  H5  UNL     1      21.104  10.884 -25.561  1.00  0.00     0.160 HD
ENDBRANCH  25  28
ENDBRANCH   1  22
TORSDOF 5
ENDMDL
MODEL 3
REMARK VINA RESULT: -10.131759020      1.796      2.483
REMARK  5 active torsions:
REMARK  status: ('A' for Active; 'I' for Inactive)
REMARK       I    between atoms: N1_2  and  C2_3 
REMARK    1  A    between atoms: N1_2  and  C19_32 
REMARK    2  A    between atoms: C2_3  and  C3_5 
REMARK    3  A    between atoms: N2_8  and  S1_9 
REMARK    4  A    between atoms: S1_9  and  N3_12 
REMARK    5  A    between atoms: C9_15  and  C10_16 
REMARK       I    between atoms: C10_16  and  N4_18 
ROOT
HETATM    1  S1  UNL     1      19.376   2.528 -24.521  1.00  0.00     0.090 S 
HETATM    2  C6  UNL     1      17.550   2.695 -24.110  1.00  0.00     0.155 C 
HETATM    3  O2  UNL     1      20.051   2.146 -25.984  1.00  0.00    -0.234 OA
ENDROOT
BRANCH   1   4
HETATM    4  N2  UNL     1      19.567   0.830 -23.986  1.00  0.00    -0.163 NA
HETATM    5  C5  UNL     1      18.663   0.252 -23.005  1.00  0.00     0.113 C 
HETATM    6  C4  UNL     1      18.687  -1.260 -23.039  1.00  0.00     0.030 C 
HETATM    7  C3  UNL     1      20.044  -1.687 -22.521  1.00  0.00     0.086 C 
HETATM    8  C18 UNL     1      20.864  -0.445 -22.333  1.00  0.00     0.112 C 
HETATM    9  C17 UNL     1      20.917   0.449 -23.513  1.00  0.00     0.315 C 
HETATM   10  F1  UNL     1      21.611   1.586 -23.109  1.00  0.00    -0.187 F 
HETATM   11  F2  UNL     1      21.561  -0.214 -24.539  1.00  0.00    -0.187 F 
BRANCH   7  12
HETATM   12  C2  UNL     1      19.937  -2.357 -21.185  1.00  0.00     0.224 C 
HETATM   13  N1  UNL     1      20.950  -3.093 -20.547  1.00  0.00    -0.351 N 
HETATM   14  C1  UNL     1      20.566  -3.725 -19.258  1.00  0.00     0.153 C 
HETATM   15  O1  UNL     1      18.813  -2.262 -20.553  1.00  0.00    -0.273 OA
BRANCH  13  16
HETATM   16  C19 UNL     1      22.296  -3.281 -20.939  1.00  0.00     0.086 C 
HETATM   17  C20 UNL     1      22.881  -4.641 -20.599  1.00  0.00     0.025 C 
HETATM   18  C21 UNL     1      24.378  -4.561 -20.402  1.00  0.00     0.002 C 
HETATM   19  C22 UNL     1      24.996  -3.729 -21.508  1.00  0.00     0.000 C 
HETATM   20  C23 UNL     1      24.521  -2.292 -21.433  1.00  0.00     0.002 C 
HETATM   21  C24 UNL     1      23.295  -2.256 -20.491  1.00  0.00     0.025 C 
ENDBRANCH  13  16
ENDBRANCH   7  12
ENDBRANCH   1   4
BRANCH   1  22
HETATM   22  N3  UNL     1      19.811   4.177 -24.687  1.00  0.00    -0.331 N 
HETATM   23  C7  UNL     1      19.284   5.159 -23.796  1.00  0.00     0.134 C 
HETATM   24  C8  UNL     1      20.358   6.080 -23.279  1.00  0.00     0.034 C 
HETATM   25  C9  UNL     1      20.907   6.914 -24.397  1.00  0.00     0.081 C 
HETATM   26  C15 UNL     1      21.122   6.012 -25.606  1.00  0.00     0.034 C 
HETATM   27  C16 UNL     1      21.154   4.611 -25.115  1.00  0.00     0.134 C 
BRANCH  25  28
HETATM   28  C10 UNL     1      20.025   8.055 -24.684  1.00  0.00     0.227 C 
HETATM   29  O3  UNL     1      19.164   7.936 -25.596  1.00  0.00    -0.273 OA
HETATM   30  N4  UNL     1      20.062   9.296 -24.013  1.00  0.00    -0.317 N 
HETATM   31  C11 UNL     1      19.460   9.539 -22.913  1.00  0.00     0.079 C 
ATOM     32  H4  UNL     1      20.606  10.048 -24.434  1.00  0.00     0.170 HD
HETATM   33  C12 UNL     1      19.423  10.784 -22.118  1.00  0.00     0.078 C 
HETATM   34  N5  UNL     1      18.667   8.594 -22.205  1.00  0.00    -0.380 N 
HETATM   35  C13 UNL     1      18.338  10.579 -21.074  1.00  0.00     0.027 C 
HETATM   36  C14 UNL     1      18.415   9.073 -20.861  1.00  0.00     0.121 C 
ATOM     37  H5  UNL     1      18.326   7.711 -22.586  1.00  0.00     0.160 HD
ENDBRANCH  25  28
ENDBRANCH   1  22
TORSDOF 5
ENDMDL
MODEL 4
REMARK VINA RESULT: -10.039990924      2.464      3.099
REMARK  5 active torsions:
REMARK  status: ('A' for Active; 'I' for Inactive)
REMARK       I    between atoms: N1_2  and  C2_3 
REMARK    1  A    between atoms: N1_2  and  C19_32 
REMARK    2  A    between atoms: C2_3  and  C3_5 
REMARK    3  A    between atoms: N2_8  and  S1_9 
REMARK    4  A    between atoms: S1_9  and  N3_12 
REMARK    5  A    between atoms: C9_15  and  C10_16 
REMARK       I    between atoms: C10_16  and  N4_18 
ROOT
HETATM    1  S1  UNL     1      19.318   3.525 -23.577  1.00  0.00     0.090 S 
HETATM    2  C6  UNL     1      17.466   3.245 -23.425  1.00  0.00     0.155 C 
HETATM    3  O2  UNL     1      20.270   3.283 -24.910  1.00  0.00    -0.234 OA
ENDROOT
BRANCH   1   4
HETATM    4  N2  UNL     1      19.834   1.942 -22.918  1.00  0.00    -0.163 NA
HETATM    5  C5  UNL     1      19.030   1.251 -21.923  1.00  0.00     0.113 C 
HETATM    6  C4  UNL     1      19.368  -0.220 -21.849  1.00  0.00     0.030 C 
HETATM    7  C3  UNL     1      20.762  -0.319 -21.265  1.00  0.00     0.086 C 
HETATM    8  C18 UNL     1      21.298   1.076 -21.144  1.00  0.00     0.112 C 
HETATM    9  C17 UNL     1      21.214   1.885 -22.382  1.00  0.00     0.315 C 
HETATM   10  F1  UNL     1      21.639   3.165 -22.041  1.00  0.00    -0.187 F 
HETATM   11  F2  UNL     1      22.023   1.307 -23.340  1.00  0.00    -0.187 F 
BRANCH   7  12
HETATM   12  C2  UNL     1      20.741  -0.911 -19.888  1.00  0.00     0.224 C 
HETATM   13  N1  UNL     1      21.472  -2.032 -19.460  1.00  0.00    -0.351 N 
HETATM   14  C1  UNL     1      21.216  -2.466 -18.062  1.00  0.00     0.153 C 
HETATM   15  O1  UNL     1      19.980  -0.350 -19.005  1.00  0.00    -0.273 OA
BRANCH  13  16
HETATM   16  C19 UNL     1      22.448  -2.778 -20.158  1.00  0.00     0.086 C 
HETATM   17  C20 UNL     1      22.699  -4.175 -19.618  1.00  0.00     0.025 C 
HETATM   18  C21 UNL     1      24.111  -4.632 -19.908  1.00  0.00     0.002 C 
HETATM   19  C22 UNL     1      24.471  -4.303 -21.342  1.00  0.00     0.000 C 
HETATM   20  C23 UNL     1      24.498  -2.803 -21.562  1.00  0.00     0.002 C 
HETATM   21  C24 UNL     1      23.794  -2.143 -20.355  1.00  0.00     0.025 C 
ENDBRANCH  13  16
ENDBRANCH   7  12
ENDBRANCH   1   4
BRANCH   1  22
HETATM   22  N3  UNL     1      19.360   5.226 -23.785  1.00  0.00    -0.331 N 
HETATM   23  C7  UNL     1      20.608   5.914 -23.869  1.00  0.00     0.134 C 
HETATM   24  C8  UNL     1      20.632   6.891 -25.015  1.00  0.00     0.034 C 
HETATM   25  C9  UNL     1      19.660   8.004 -24.769  1.00  0.00     0.081 C 
HETATM   26  C15 UNL     1      18.364   7.399 -24.243  1.00  0.00     0.034 C 
HETATM   27  C16 UNL     1      18.371   5.957 -24.597  1.00  0.00     0.134 C 
BRANCH  25  28
HETATM   28  C10 UNL     1      20.232   9.010 -23.861  1.00  0.00     0.227 C 
HETATM   29  O3  UNL     1      21.429   9.364 -24.032  1.00  0.00    -0.273 OA
HETATM   30  N4  UNL     1      19.541   9.623 -22.795  1.00  0.00    -0.317 N 
HETATM   31  C11 UNL     1      18.790  10.649 -22.917  1.00  0.00     0.079 C 
ATOM     32  H4  UNL     1      19.647   9.219 -21.864  1.00  0.00     0.170 HD
HETATM   33  C12 UNL     1      18.019  11.376 -21.887  1.00  0.00     0.078 C 
HETATM   34  N5  UNL     1      18.542  11.322 -24.145  1.00  0.00    -0.380 N 
HETATM   35  C13 UNL     1      17.550  12.661 -22.549  1.00  0.00     0.027 C 
HETATM   36  C14 UNL     1      17.409  12.212 -23.997  1.00  0.00     0.121 C 
ATOM     37  H5  UNL     1      19.081  11.195 -25.003  1.00  0.00     0.160 HD
ENDBRANCH  25  28
ENDBRANCH   1  22
TORSDOF 5
ENDMDL
MODEL 5
REMARK VINA RESULT: -9.983028583      2.550      3.220
REMARK  5 active torsions:
REMARK  status: ('A' for Active; 'I' for Inactive)
REMARK       I    between atoms: N1_2  and  C2_3 
REMARK    1  A    between atoms: N1_2  and  C19_32 
REMARK    2  A    between atoms: C2_3  and  C3_5 
REMARK    3  A    between atoms: N2_8  and  S1_9 
REMARK    4  A    between atoms: S1_9  and  N3_12 
REMARK    5  A    between atoms: C9_15  and  C10_16 
REMARK       I    between atoms: C10_16  and  N4_18 
ROOT
HETATM    1  S1  UNL     1      19.380   3.775 -24.057  1.00  0.00     0.090 S 
HETATM    2  C6  UNL     1      17.547   3.670 -23.660  1.00  0.00     0.155 C 
HETATM    3  O2  UNL     1      20.135   3.342 -25.466  1.00  0.00    -0.234 OA
ENDROOT
BRANCH   1   4
HETATM    4  N2  UNL     1      19.855   2.214 -23.320  1.00  0.00    -0.163 NA
HETATM    5  C5  UNL     1      19.050   1.610 -22.270  1.00  0.00     0.113 C 
HETATM    6  C4  UNL     1      19.337   0.134 -22.120  1.00  0.00     0.030 C 
HETATM    7  C3  UNL     1      20.739   0.016 -21.560  1.00  0.00     0.086 C 
HETATM    8  C18 UNL     1      21.327   1.396 -21.530  1.00  0.00     0.112 C 
HETATM    9  C17 UNL     1      21.243   2.136 -22.810  1.00  0.00     0.315 C 
HETATM   10  F1  UNL     1      21.722   3.417 -22.552  1.00  0.00    -0.187 F 
HETATM   11  F2  UNL     1      22.009   1.476 -23.751  1.00  0.00    -0.187 F 
BRANCH   7  12
HETATM   12  C2  UNL     1      20.729  -0.496 -20.152  1.00  0.00     0.224 C 
HETATM   13  N1  UNL     1      21.493  -1.565 -19.656  1.00  0.00    -0.351 N 
HETATM   14  C1  UNL     1      21.243  -1.927 -18.237  1.00  0.00     0.153 C 
HETATM   15  O1  UNL     1      19.944   0.089 -19.306  1.00  0.00    -0.273 OA
BRANCH  13  16
HETATM   16  C19 UNL     1      22.498  -2.318 -20.306  1.00  0.00     0.086 C 
HETATM   17  C20 UNL     1      22.732  -3.707 -19.738  1.00  0.00     0.025 C 
HETATM   18  C21 UNL     1      24.156  -4.162 -19.967  1.00  0.00     0.002 C 
HETATM   19  C22 UNL     1      24.570  -3.851 -21.391  1.00  0.00     0.000 C 
HETATM   20  C23 UNL     1      24.601  -2.355 -21.630  1.00  0.00     0.002 C 
HETATM   21  C24 UNL     1      23.848  -1.681 -20.460  1.00  0.00     0.025 C 
ENDBRANCH  13  16
ENDBRANCH   7  12
ENDBRANCH   1   4
BRANCH   1  22
HETATM   22  N3  UNL     1      19.524   5.443 -24.427  1.00  0.00    -0.331 N 
HETATM   23  C7  UNL     1      18.707   6.405 -23.762  1.00  0.00     0.134 C 
HETATM   24  C8  UNL     1      19.510   7.583 -23.277  1.00  0.00     0.034 C 
HETATM   25  C9  UNL     1      20.048   8.359 -24.441  1.00  0.00     0.081 C 
HETATM   26  C15 UNL     1      20.592   7.369 -25.465  1.00  0.00     0.034 C 
HETATM   27  C16 UNL     1      20.811   6.079 -24.763  1.00  0.00     0.134 C 
BRANCH  25  28
HETATM   28  C10 UNL     1      19.020   9.251 -24.998  1.00  0.00     0.227 C 
HETATM   29  O3  UNL     1      18.294   8.823 -25.935  1.00  0.00    -0.273 OA
HETATM   30  N4  UNL     1      18.775  10.571 -24.565  1.00  0.00    -0.317 N 
HETATM   31  C11 UNL     1      18.026  10.878 -23.577  1.00  0.00     0.079 C 
ATOM     32  H4  UNL     1      19.224  11.331 -25.075  1.00  0.00     0.170 HD
HETATM   33  C12 UNL     1      17.693  12.210 -23.029  1.00  0.00     0.078 C 
HETATM   34  N5  UNL     1      17.333   9.934 -22.769  1.00  0.00    -0.380 N 
HETATM   35  C13 UNL     1      16.553  11.983 -22.049  1.00  0.00     0.027 C 
HETATM   36  C14 UNL     1      16.862  10.575 -21.559  1.00  0.00     0.121 C 
ATOM     37  H5  UNL     1      17.191   8.952 -23.007  1.00  0.00     0.160 HD
ENDBRANCH  25  28
ENDBRANCH   1  22
TORSDOF 5
ENDMDL
