MODEL 1
REMARK VINA RESULT: -9.919245998      0.000      0.000
REMARK  5 active torsions:
REMARK  status: ('A' for Active; 'I' for Inactive)
REMARK    1  A    between atoms: C2_2  and  C3_3 
REMARK       I    between atoms: C3_3  and  N1_5 
REMARK    2  A    between atoms: C7_10  and  C8_11 
REMARK       I    between atoms: C8_11  and  N2_13 
REMARK    3  A    between atoms: N2_13  and  N3_15 
REMARK       I    between atoms: N4_23  and  C15_24 
REMARK    4  A    between atoms: C15_24  and  C16_26 
REMARK    5  A    between atoms: C16_26  and  C17_27 
ROOT
HETATM    1  C1  UNL     1      18.056   1.954 -25.510  1.00  0.00     0.049 C 
HETATM    2  C2  UNL     1      17.952   2.141 -24.013  1.00  0.00     0.114 C 
HETATM    3  C13 UNL     1      16.574   2.246 -23.448  1.00  0.00     0.061 C 
HETATM    4  C14 UNL     1      17.246   1.562 -22.250  1.00  0.00     0.130 C 
HETATM    5  N4  UNL     1      18.166   0.964 -23.231  1.00  0.00    -0.334 N 
HETATM    6  C15 UNL     1      18.873  -0.242 -23.256  1.00  0.00     0.221 C 
HETATM    7  O4  UNL     1      19.631  -0.551 -24.226  1.00  0.00    -0.273 OA
ENDROOT
BRANCH   2   8
HETATM    8  C3  UNL     1      18.772   3.335 -23.624  1.00  0.00     0.249 C 
HETATM    9  O1  UNL     1      18.128   4.382 -23.377  1.00  0.00    -0.271 OA
HETATM   10  N1  UNL     1      20.169   3.269 -23.547  1.00  0.00    -0.334 N 
HETATM   11  C4  UNL     1      21.071   2.179 -23.833  1.00  0.00     0.164 C 
HETATM   12  C7  UNL     1      21.014   4.388 -23.120  1.00  0.00     0.183 C 
HETATM   13  C5  UNL     1      22.150   2.345 -22.790  1.00  0.00     0.190 C 
HETATM   14  F1  UNL     1      21.745   1.949 -21.537  1.00  0.00    -0.248 F 
HETATM   15  C6  UNL     1      22.356   3.842 -22.785  1.00  0.00     0.074 C 
BRANCH  12  16
HETATM   16  C8  UNL     1      21.022   5.480 -24.120  1.00  0.00     0.255 C 
HETATM   17  O2  UNL     1      21.679   5.334 -25.164  1.00  0.00    -0.270 OA
HETATM   18  N2  UNL     1      20.301   6.664 -23.894  1.00  0.00    -0.287 N 
ATOM     19  H2  UNL     1      19.768   6.764 -23.029  1.00  0.00     0.184 HD
BRANCH  18  20
HETATM   20  N3  UNL     1      20.295   7.691 -24.805  1.00  0.00    -0.225 NA
HETATM   21  C9  UNL     1      21.214   8.766 -24.546  1.00  0.00     0.140 C 
HETATM   22  C10 UNL     1      21.089   9.739 -25.726  1.00  0.00     0.183 C 
HETATM   23  O3  UNL     1      19.852  10.367 -25.711  1.00  0.00    -0.389 OA
HETATM   24  C11 UNL     1      18.956   9.732 -24.855  1.00  0.00     0.183 C 
HETATM   25  C12 UNL     1      18.959   8.239 -25.008  1.00  0.00     0.140 C 
ENDBRANCH  18  20
ENDBRANCH  12  16
ENDBRANCH   2   8
BRANCH   6  26
HETATM   26  C16 UNL     1      18.801  -1.253 -22.164  1.00  0.00     0.112 C 
BRANCH  26  27
HETATM   27  C17 UNL     1      20.085  -1.397 -21.394  1.00  0.00    -0.029 C 
HETATM   28  C18 UNL     1      20.146  -2.821 -20.892  1.00  0.00     0.014 C 
HETATM   29  C19 UNL     1      21.377  -3.118 -20.096  1.00  0.00    -0.010 C 
HETATM   30  C20 UNL     1      22.592  -2.833 -20.963  1.00  0.00     0.009 C 
HETATM   31  C24 UNL     1      21.370  -2.217 -18.880  1.00  0.00     0.048 C 
HETATM   32  C21 UNL     1      22.546  -1.412 -21.422  1.00  0.00    -0.010 C 
HETATM   33  C22 UNL     1      22.601  -0.516 -20.201  1.00  0.00     0.048 C 
HETATM   34  C26 UNL     1      21.313  -1.134 -22.237  1.00  0.00     0.014 C 
HETATM   35  C23 UNL     1      21.361  -0.794 -19.371  1.00  0.00     0.105 C 
HETATM   36  F2  UNL     1      21.382   0.118 -18.328  1.00  0.00    -0.243 F 
HETATM   37  C25 UNL     1      20.136  -0.483 -20.194  1.00  0.00     0.053 C 
ENDBRANCH  26  27
ENDBRANCH   6  26
TORSDOF 5
ENDMDL
MODEL 2
REMARK VINA RESULT: -9.596440615      0.650      1.462
REMARK  5 active torsions:
REMARK  status: ('A' for Active; 'I' for Inactive)
REMARK    1  A    between atoms: C2_2  and  C3_3 
REMARK       I    between atoms: C3_3  and  N1_5 
REMARK    2  A    between atoms: C7_10  and  C8_11 
REMARK       I    between atoms: C8_11  and  N2_13 
REMARK    3  A    between atoms: N2_13  and  N3_15 
REMARK       I    between atoms: N4_23  and  C15_24 
REMARK    4  A    between atoms: C15_24  and  C16_26 
REMARK    5  A    between atoms: C16_26  and  C17_27 
ROOT
HETATM    1  C1  UNL     1      18.277   1.736 -25.444  1.00  0.00     0.049 C 
HETATM    2  C2  UNL     1      18.084   2.006 -23.968  1.00  0.00     0.114 C 
HETATM    3  C13 UNL     1      16.674   2.121 -23.491  1.00  0.00     0.061 C 
HETATM    4  C14 UNL     1      17.282   1.517 -22.219  1.00  0.00     0.130 C 
HETATM    5  N4  UNL     1      18.265   0.878 -23.109  1.00  0.00    -0.334 N 
HETATM    6  C15 UNL     1      18.987  -0.317 -23.023  1.00  0.00     0.221 C 
HETATM    7  O4  UNL     1      19.804  -0.668 -23.929  1.00  0.00    -0.273 OA
ENDROOT
BRANCH   2   8
HETATM    8  C3  UNL     1      18.865   3.232 -23.602  1.00  0.00     0.249 C 
HETATM    9  O1  UNL     1      18.189   4.267 -23.393  1.00  0.00    -0.271 OA
HETATM   10  N1  UNL     1      20.261   3.207 -23.504  1.00  0.00    -0.334 N 
HETATM   11  C4  UNL     1      21.197   2.135 -23.746  1.00  0.00     0.164 C 
HETATM   12  C7  UNL     1      21.070   4.361 -23.098  1.00  0.00     0.183 C 
HETATM   13  C5  UNL     1      22.256   2.359 -22.694  1.00  0.00     0.190 C 
HETATM   14  F1  UNL     1      21.845   1.988 -21.436  1.00  0.00    -0.248 F 
HETATM   15  C6  UNL     1      22.421   3.861 -22.728  1.00  0.00     0.074 C 
BRANCH  12  16
HETATM   16  C8  UNL     1      21.062   5.425 -24.127  1.00  0.00     0.255 C 
HETATM   17  O2  UNL     1      21.681   5.237 -25.188  1.00  0.00    -0.270 OA
HETATM   18  N2  UNL     1      20.369   6.627 -23.910  1.00  0.00    -0.287 N 
ATOM     19  H2  UNL     1      19.867   6.760 -23.032  1.00  0.00     0.184 HD
BRANCH  18  20
HETATM   20  N3  UNL     1      20.349   7.628 -24.850  1.00  0.00    -0.225 NA
HETATM   21  C9  UNL     1      21.310   8.682 -24.664  1.00  0.00     0.140 C 
HETATM   22  C10 UNL     1      21.157   9.625 -25.865  1.00  0.00     0.183 C 
HETATM   23  O3  UNL     1      19.941  10.290 -25.810  1.00  0.00    -0.389 OA
HETATM   24  C11 UNL     1      19.068   9.705 -24.896  1.00  0.00     0.183 C 
HETATM   25  C12 UNL     1      19.022   8.210 -25.006  1.00  0.00     0.140 C 
ENDBRANCH  18  20
ENDBRANCH  12  16
ENDBRANCH   2   8
BRANCH   6  26
HETATM   26  C16 UNL     1      18.863  -1.265 -21.880  1.00  0.00     0.112 C 
BRANCH  26  27
HETATM   27  C17 UNL     1      20.153  -1.480 -21.138  1.00  0.00    -0.029 C 
HETATM   28  C18 UNL     1      20.176  -0.496 -19.991  1.00  0.00     0.014 C 
HETATM   29  C19 UNL     1      21.413  -0.588 -19.155  1.00  0.00    -0.010 C 
HETATM   30  C20 UNL     1      21.526  -2.003 -18.613  1.00  0.00     0.009 C 
HETATM   31  C24 UNL     1      22.596  -0.263 -20.042  1.00  0.00     0.048 C 
HETATM   32  C21 UNL     1      21.544  -2.966 -19.755  1.00  0.00    -0.010 C 
HETATM   33  C22 UNL     1      22.765  -2.674 -20.605  1.00  0.00     0.048 C 
HETATM   34  C26 UNL     1      20.286  -2.877 -20.573  1.00  0.00     0.014 C 
HETATM   35  C23 UNL     1      22.611  -1.270 -21.161  1.00  0.00     0.105 C 
HETATM   36  F2  UNL     1      23.680  -1.077 -22.022  1.00  0.00    -0.243 F 
HETATM   37  C25 UNL     1      21.361  -1.206 -22.002  1.00  0.00     0.053 C 
ENDBRANCH  26  27
ENDBRANCH   6  26
TORSDOF 5
ENDMDL
MODEL 3
REMARK VINA RESULT: -9.512949393      0.753      1.406
REMARK  5 active torsions:
REMARK  status: ('A' for Active; 'I' for Inactive)
REMARK    1  A    between atoms: C2_2  and  C3_3 
REMARK       I    between atoms: C3_3  and  N1_5 
REMARK    2  A    between atoms: C7_10  and  C8_11 
REMARK       I    between atoms: C8_11  and  N2_13 
REMARK    3  A    between atoms: N2_13  and  N3_15 
REMARK       I    between atoms: N4_23  and  C15_24 
REMARK    4  A    between atoms: C15_24  and  C16_26 
REMARK    5  A    between atoms: C16_26  and  C17_27 
ROOT
HETATM    1  C1  UNL     1      18.238   1.831 -25.479  1.00  0.00     0.049 C 
HETATM    2  C2  UNL     1      18.051   2.092 -24.001  1.00  0.00     0.114 C 
HETATM    3  C13 UNL     1      16.643   2.197 -23.516  1.00  0.00     0.061 C 
HETATM    4  C14 UNL     1      17.262   1.589 -22.251  1.00  0.00     0.130 C 
HETATM    5  N4  UNL     1      18.244   0.961 -23.149  1.00  0.00    -0.334 N 
HETATM    6  C15 UNL     1      18.973  -0.231 -23.074  1.00  0.00     0.221 C 
HETATM    7  O4  UNL     1      19.787  -0.572 -23.986  1.00  0.00    -0.273 OA
ENDROOT
BRANCH   2   8
HETATM    8  C3  UNL     1      18.828   3.320 -23.632  1.00  0.00     0.249 C 
HETATM    9  O1  UNL     1      18.146   4.349 -23.405  1.00  0.00    -0.271 OA
HETATM   10  N1  UNL     1      20.225   3.305 -23.551  1.00  0.00    -0.334 N 
HETATM   11  C4  UNL     1      21.166   2.242 -23.814  1.00  0.00     0.164 C 
HETATM   12  C7  UNL     1      21.030   4.460 -23.143  1.00  0.00     0.183 C 
HETATM   13  C5  UNL     1      22.236   2.464 -22.772  1.00  0.00     0.190 C 
HETATM   14  F1  UNL     1      21.841   2.077 -21.513  1.00  0.00    -0.248 F 
HETATM   15  C6  UNL     1      22.389   3.968 -22.794  1.00  0.00     0.074 C 
BRANCH  12  16
HETATM   16  C8  UNL     1      21.002   5.534 -24.162  1.00  0.00     0.255 C 
HETATM   17  O2  UNL     1      21.629   5.371 -25.222  1.00  0.00    -0.270 OA
HETATM   18  N2  UNL     1      20.282   6.719 -23.936  1.00  0.00    -0.287 N 
ATOM     19  H2  UNL     1      19.774   6.832 -23.058  1.00  0.00     0.184 HD
BRANCH  18  20
HETATM   20  N3  UNL     1      20.243   7.728 -24.866  1.00  0.00    -0.225 NA
HETATM   21  C9  UNL     1      21.195   8.790 -24.679  1.00  0.00     0.140 C 
HETATM   22  C10 UNL     1      21.022   9.742 -25.869  1.00  0.00     0.183 C 
HETATM   23  O3  UNL     1      19.800  10.395 -25.797  1.00  0.00    -0.389 OA
HETATM   24  C11 UNL     1      18.942   9.793 -24.880  1.00  0.00     0.183 C 
HETATM   25  C12 UNL     1      18.909   8.299 -25.004  1.00  0.00     0.140 C 
ENDBRANCH  18  20
ENDBRANCH  12  16
ENDBRANCH   2   8
BRANCH   6  26
HETATM   26  C16 UNL     1      18.860  -1.186 -21.936  1.00  0.00     0.112 C 
BRANCH  26  27
HETATM   27  C17 UNL     1      20.135  -1.337 -21.153  1.00  0.00    -0.029 C 
HETATM   28  C18 UNL     1      21.278  -1.170 -22.128  1.00  0.00     0.014 C 
HETATM   29  C19 UNL     1      22.625  -1.300 -21.490  1.00  0.00    -0.010 C 
HETATM   30  C20 UNL     1      22.740  -0.259 -20.389  1.00  0.00     0.009 C 
HETATM   31  C24 UNL     1      22.732  -2.696 -20.914  1.00  0.00     0.048 C 
HETATM   32  C21 UNL     1      21.631  -0.456 -19.409  1.00  0.00    -0.010 C 
HETATM   33  C22 UNL     1      21.780  -1.833 -18.792  1.00  0.00     0.048 C 
HETATM   34  C26 UNL     1      20.284  -0.303 -20.059  1.00  0.00     0.014 C 
HETATM   35  C23 UNL     1      21.627  -2.854 -19.904  1.00  0.00     0.105 C 
HETATM   36  F2  UNL     1      21.652  -4.097 -19.293  1.00  0.00    -0.243 F 
HETATM   37  C25 UNL     1      20.261  -2.704 -20.526  1.00  0.00     0.053 C 
ENDBRANCH  26  27
ENDBRANCH   6  26
TORSDOF 5
ENDMDL
MODEL 4
REMARK VINA RESULT: -9.510243799      4.142      9.877
REMARK  5 active torsions:
REMARK  status: ('A' for Active; 'I' for Inactive)
REMARK    1  A    between atoms: C2_2  and  C3_3 
REMARK       I    between atoms: C3_3  and  N1_5 
REMARK    2  A    between atoms: C7_10  and  C8_11 
REMARK       I    between atoms: C8_11  and  N2_13 
REMARK    3  A    between atoms: N2_13  and  N3_15 
REMARK       I    between atoms: N4_23  and  C15_24 
REMARK    4  A    between atoms: C15_24  and  C16_26 
REMARK    5  A    between atoms: C16_26  and  C17_27 
ROOT
HETATM    1  C1  UNL     1      24.140  -1.176 -21.154  1.00  0.00     0.049 C 
HETATM    2  C2  UNL     1      22.790  -0.885 -20.536  1.00  0.00     0.114 C 
HETATM    3  C13 UNL     1      22.794  -0.410 -19.121  1.00  0.00     0.061 C 
HETATM    4  C14 UNL     1      21.556   0.358 -19.603  1.00  0.00     0.130 C 
HETATM    5  N4  UNL     1      22.187   0.348 -20.932  1.00  0.00    -0.334 N 
HETATM    6  C15 UNL     1      22.129   1.230 -22.016  1.00  0.00     0.221 C 
HETATM    7  O4  UNL     1      22.767   1.007 -23.091  1.00  0.00    -0.273 OA
ENDROOT
BRANCH   2   8
HETATM    8  C3  UNL     1      21.929  -2.104 -20.680  1.00  0.00     0.249 C 
HETATM    9  O1  UNL     1      20.767  -1.903 -21.106  1.00  0.00    -0.271 OA
HETATM   10  N1  UNL     1      22.405  -3.379 -20.352  1.00  0.00    -0.334 N 
HETATM   11  C4  UNL     1      23.680  -3.792 -19.815  1.00  0.00     0.164 C 
HETATM   12  C7  UNL     1      21.625  -4.608 -20.524  1.00  0.00     0.183 C 
HETATM   13  C5  UNL     1      23.932  -5.111 -20.506  1.00  0.00     0.190 C 
HETATM   14  F1  UNL     1      24.306  -4.961 -21.820  1.00  0.00    -0.248 F 
HETATM   15  C6  UNL     1      22.567  -5.758 -20.459  1.00  0.00     0.074 C 
BRANCH  12  16
HETATM   16  C8  UNL     1      20.495  -4.678 -19.570  1.00  0.00     0.255 C 
HETATM   17  O2  UNL     1      19.374  -4.290 -19.938  1.00  0.00    -0.270 OA
HETATM   18  N2  UNL     1      20.685  -5.172 -18.269  1.00  0.00    -0.287 N 
ATOM     19  H2  UNL     1      21.615  -5.486 -17.987  1.00  0.00     0.184 HD
BRANCH  18  20
HETATM   20  N3  UNL     1      19.653  -5.245 -17.366  1.00  0.00    -0.225 NA
HETATM   21  C9  UNL     1      20.033  -5.267 -15.979  1.00  0.00     0.140 C 
HETATM   22  C10 UNL     1      18.729  -5.263 -15.172  1.00  0.00     0.183 C 
HETATM   23  O3  UNL     1      18.051  -6.462 -15.335  1.00  0.00    -0.389 OA
HETATM   24  C11 UNL     1      18.546  -7.198 -16.408  1.00  0.00     0.183 C 
HETATM   25  C12 UNL     1      18.761  -6.365 -17.638  1.00  0.00     0.140 C 
ENDBRANCH  18  20
ENDBRANCH  12  16
ENDBRANCH   2   8
BRANCH   6  26
HETATM   26  C16 UNL     1      21.327   2.486 -22.005  1.00  0.00     0.112 C 
BRANCH  26  27
HETATM   27  C17 UNL     1      20.044   2.384 -22.782  1.00  0.00    -0.029 C 
HETATM   28  C18 UNL     1      19.035   1.701 -21.888  1.00  0.00     0.014 C 
HETATM   29  C19 UNL     1      17.697   1.522 -22.531  1.00  0.00    -0.010 C 
HETATM   30  C20 UNL     1      17.171   2.888 -22.938  1.00  0.00     0.009 C 
HETATM   31  C24 UNL     1      17.882   0.640 -23.747  1.00  0.00     0.048 C 
HETATM   32  C21 UNL     1      18.155   3.540 -23.855  1.00  0.00    -0.010 C 
HETATM   33  C22 UNL     1      18.288   2.681 -25.097  1.00  0.00     0.048 C 
HETATM   34  C26 UNL     1      19.489   3.731 -23.188  1.00  0.00     0.014 C 
HETATM   35  C23 UNL     1      18.847   1.337 -24.668  1.00  0.00     0.105 C 
HETATM   36  F2  UNL     1      19.066   0.620 -25.834  1.00  0.00    -0.243 F 
HETATM   37  C25 UNL     1      20.197   1.545 -24.028  1.00  0.00     0.053 C 
ENDBRANCH  26  27
ENDBRANCH   6  26
TORSDOF 5
ENDMDL
MODEL 5
REMARK VINA RESULT: -9.440311370      2.021      3.222
REMARK  5 active torsions:
REMARK  status: ('A' for Active; 'I' for Inactive)
REMARK    1  A    between atoms: C2_2  and  C3_3 
REMARK       I    between atoms: C3_3  and  N1_5 
REMARK    2  A    between atoms: C7_10  and  C8_11 
REMARK       I    between atoms: C8_11  and  N2_13 
REMARK    3  A    between atoms: N2_13  and  N3_15 
REMARK       I    between atoms: N4_23  and  C15_24 
REMARK    4  A    between atoms: C15_24  and  C16_26 
REMARK    5  A    between atoms: C16_26  and  C17_27 
ROOT
HETATM    1  C1  UNL     1      22.288   2.443 -23.501  1.00  0.00     0.049 C 
HETATM    2  C2  UNL     1      21.061   1.837 -24.147  1.00  0.00     0.114 C 
HETATM    3  C13 UNL     1      21.301   0.889 -25.275  1.00  0.00     0.061 C 
HETATM    4  C14 UNL     1      20.026   0.243 -24.718  1.00  0.00     0.130 C 
HETATM    5  N4  UNL     1      20.439   0.781 -23.412  1.00  0.00    -0.334 N 
HETATM    6  C15 UNL     1      20.238   0.344 -22.099  1.00  0.00     0.221 C 
HETATM    7  O4  UNL     1      20.691   0.990 -21.105  1.00  0.00    -0.273 OA
ENDROOT
BRANCH   2   8
HETATM    8  C3  UNL     1      20.152   2.949 -24.579  1.00  0.00     0.249 C 
HETATM    9  O1  UNL     1      20.475   3.537 -25.638  1.00  0.00    -0.271 OA
HETATM   10  N1  UNL     1      19.019   3.297 -23.834  1.00  0.00    -0.334 N 
HETATM   11  C4  UNL     1      18.520   2.769 -22.587  1.00  0.00     0.164 C 
HETATM   12  C7  UNL     1      18.068   4.337 -24.238  1.00  0.00     0.183 C 
HETATM   13  C5  UNL     1      17.022   2.811 -22.771  1.00  0.00     0.190 C 
HETATM   14  F1  UNL     1      16.560   1.823 -23.608  1.00  0.00    -0.248 F 
HETATM   15  C6  UNL     1      16.824   4.150 -23.444  1.00  0.00     0.074 C 
BRANCH  12  16
HETATM   16  C8  UNL     1      18.664   5.690 -24.147  1.00  0.00     0.255 C 
HETATM   17  O2  UNL     1      18.445   6.375 -23.135  1.00  0.00    -0.270 OA
HETATM   18  N2  UNL     1      19.463   6.192 -25.188  1.00  0.00    -0.287 N 
ATOM     19  H2  UNL     1      19.631   5.612 -26.010  1.00  0.00     0.184 HD
BRANCH  18  20
HETATM   20  N3  UNL     1      20.026   7.443 -25.126  1.00  0.00    -0.225 NA
HETATM   21  C9  UNL     1      19.223   8.517 -25.646  1.00  0.00     0.140 C 
HETATM   22  C10 UNL     1      20.013   9.809 -25.394  1.00  0.00     0.183 C 
HETATM   23  O3  UNL     1      21.149   9.848 -26.188  1.00  0.00    -0.389 OA
HETATM   24  C11 UNL     1      21.441   8.603 -26.740  1.00  0.00     0.183 C 
HETATM   25  C12 UNL     1      21.345   7.485 -25.745  1.00  0.00     0.140 C 
ENDBRANCH  18  20
ENDBRANCH  12  16
ENDBRANCH   2   8
BRANCH   6  26
HETATM   26  C16 UNL     1      19.485  -0.896 -21.758  1.00  0.00     0.112 C 
BRANCH  26  27
HETATM   27  C17 UNL     1      20.193  -1.772 -20.762  1.00  0.00    -0.029 C 
HETATM   28  C18 UNL     1      21.582  -2.026 -21.301  1.00  0.00     0.014 C 
HETATM   29  C19 UNL     1      22.414  -2.895 -20.413  1.00  0.00    -0.010 C 
HETATM   30  C20 UNL     1      22.512  -2.236 -19.047  1.00  0.00     0.009 C 
HETATM   31  C24 UNL     1      21.726  -4.239 -20.305  1.00  0.00     0.048 C 
HETATM   32  C21 UNL     1      21.137  -2.025 -18.503  1.00  0.00    -0.010 C 
HETATM   33  C22 UNL     1      20.477  -3.381 -18.341  1.00  0.00     0.048 C 
HETATM   34  C26 UNL     1      20.319  -1.134 -19.397  1.00  0.00     0.014 C 
HETATM   35  C23 UNL     1      20.359  -4.002 -19.721  1.00  0.00     0.105 C 
HETATM   36  F2  UNL     1      19.651  -5.181 -19.554  1.00  0.00    -0.243 F 
HETATM   37  C25 UNL     1      19.513  -3.109 -20.594  1.00  0.00     0.053 C 
ENDBRANCH  26  27
ENDBRANCH   6  26
TORSDOF 5
ENDMDL
