MODEL 1
REMARK VINA RESULT: -7.308568705      0.000      0.000
REMARK  13 active torsions:
REMARK  status: ('A' for Active; 'I' for Inactive)
REMARK    1  A    between atoms: N1_4  and  N2_6 
REMARK    2  A    between atoms: C4_8  and  C5_9 
REMARK    3  A    between atoms: C4_8  and  O3_46 
REMARK    4  A    between atoms: C5_9  and  C6_10 
REMARK       I    between atoms: N3_11  and  C7_13 
REMARK    5  A    between atoms: C7_13  and  C8_15 
REMARK    6  A    between atoms: N5_18  and  N6_19 
REMARK    7  A    between atoms: C9_21  and  C10_22 
REMARK    8  A    between atoms: C13_29  and  N9_30 
REMARK    9  A    between atoms: C14_33  and  N10_34 
REMARK       I    between atoms: N10_34  and  C15_35 
REMARK   10  A    between atoms: C15_35  and  C16_37 
REMARK   11  A    between atoms: C18_40  and  N11_41 
REMARK   12  A    between atoms: O3_46  and  C19_47 
REMARK   13  A    between atoms: C19_47  and  C21_49 
ROOT
HETATM    1  C8  UNL     1     -11.518  12.954 -33.376  1.00  0.00     0.163 A 
HETATM    2  N4  UNL     1     -12.808  13.326 -33.205  1.00  0.00    -0.270 N 
ATOM      3  H4  UNL     1     -13.175  14.254 -33.415  1.00  0.00     0.189 HD
HETATM    4  N5  UNL     1     -13.535  12.316 -32.723  1.00  0.00    -0.176 N 
HETATM    5  C13 UNL     1     -12.710  11.280 -32.578  1.00  0.00     0.182 A 
HETATM    6  C14 UNL     1     -11.414  11.648 -32.983  1.00  0.00     0.191 A 
ENDROOT
BRANCH   1   7
HETATM    7  C7  UNL     1     -10.429  13.820 -33.922  1.00  0.00     0.276 C 
HETATM    8  N3  UNL     1     -10.649  14.469 -35.104  1.00  0.00    -0.335 N 
HETATM    9  C6  UNL     1     -10.076  15.374 -35.730  1.00  0.00     0.072 C 
ATOM     10  H3  UNL     1     -11.481  14.129 -35.587  1.00  0.00     0.168 HD
HETATM   11  O1  UNL     1      -9.385  13.888 -33.254  1.00  0.00    -0.266 OA
BRANCH   9  12
HETATM   12  C5  UNL     1      -8.868  16.087 -35.341  1.00  0.00     0.130 C 
BRANCH  12  13
HETATM   13  C4  UNL     1      -9.281  17.246 -34.493  1.00  0.00     0.137 C 
HETATM   14  N2  UNL     1      -8.558  18.051 -33.928  1.00  0.00    -0.283 N 
ATOM     15  H2  UNL     1      -9.200  18.684 -33.453  1.00  0.00     0.188 HD
BRANCH  14  16
HETATM   16  N1  UNL     1      -7.413  18.487 -33.642  1.00  0.00    -0.308 N 
HETATM   17  C2  UNL     1      -6.718  18.819 -32.673  1.00  0.00    -0.004 C 
HETATM   18  C1  UNL     1      -7.209  18.759 -31.276  1.00  0.00     0.064 C 
HETATM   19  C3  UNL     1      -5.319  19.307 -32.972  1.00  0.00     0.064 C 
ATOM     20  H1  UNL     1      -6.875  18.608 -34.500  1.00  0.00     0.186 HD
ENDBRANCH  14  16
BRANCH  13  21
HETATM   21  O3  UNL     1     -10.699  17.393 -34.352  1.00  0.00    -0.332 OA
BRANCH  21  22
HETATM   22  C19 UNL     1     -11.231  18.715 -34.225  1.00  0.00     0.140 C 
HETATM   23  C20 UNL     1     -12.307  18.898 -35.290  1.00  0.00     0.041 C 
BRANCH  22  24
HETATM   24  C21 UNL     1     -11.888  18.907 -32.886  1.00  0.00     0.146 C 
HETATM   25 CL1  UNL     1     -10.765  19.652 -31.714  1.00  0.00    -0.128 Cl
ENDBRANCH  22  24
ENDBRANCH  21  22
ENDBRANCH  13  21
ENDBRANCH  12  13
ENDBRANCH   9  12
ENDBRANCH   1   7
BRANCH   6  26
HETATM   26  N10 UNL     1     -10.260  10.875 -32.930  1.00  0.00    -0.359 NA
HETATM   27  C15 UNL     1      -9.169  10.142 -32.878  1.00  0.00     0.344 C 
HETATM   28  O2  UNL     1      -8.957   9.063 -32.216  1.00  0.00    -0.249 OA
BRANCH  27  29
HETATM   29  C16 UNL     1      -7.925  10.536 -33.676  1.00  0.00     0.124 A 
HETATM   30  C17 UNL     1      -6.745   9.901 -33.491  1.00  0.00     0.089 A 
HETATM   31  S1  UNL     1      -5.710  10.778 -34.569  1.00  0.00    -0.064 SA
HETATM   32  C18 UNL     1      -6.877  11.886 -35.172  1.00  0.00     0.142 A 
HETATM   33  N12 UNL     1      -7.987  11.530 -34.520  1.00  0.00    -0.331 N 
ATOM     34  H12 UNL     1      -8.865  12.024 -34.679  1.00  0.00     0.168 HD
BRANCH  32  35
HETATM   35  N11 UNL     1      -6.732  12.868 -36.048  1.00  0.00    -0.380 N 
ATOM     36 2H11 UNL     1      -6.069  12.922 -36.820  1.00  0.00     0.158 HD
ATOM     37 1H11 UNL     1      -7.252  13.741 -36.135  1.00  0.00     0.158 HD
ENDBRANCH  32  35
ENDBRANCH  27  29
ENDBRANCH   6  26
BRANCH   4  38
HETATM   38  N6  UNL     1     -14.917  12.356 -32.426  1.00  0.00    -0.285 N 
HETATM   39  C9  UNL     1     -15.680  13.195 -33.042  1.00  0.00     0.157 C 
ATOM     40  H6  UNL     1     -15.309  11.724 -31.729  1.00  0.00     0.188 HD
BRANCH  39  41
HETATM   41  C10 UNL     1     -17.099  13.263 -32.763  1.00  0.00     0.122 A 
HETATM   42  N7  UNL     1     -18.019  12.287 -32.695  1.00  0.00    -0.350 N 
HETATM   43  C11 UNL     1     -19.233  12.822 -32.400  1.00  0.00     0.106 A 
ATOM     44  H7  UNL     1     -17.835  11.295 -32.842  1.00  0.00     0.166 HD
HETATM   45  C12 UNL     1     -19.043  14.180 -32.283  1.00  0.00     0.106 A 
HETATM   46  N8  UNL     1     -17.756  14.418 -32.506  1.00  0.00    -0.350 N 
ATOM     47  H8  UNL     1     -17.322  15.342 -32.487  1.00  0.00     0.166 HD
ENDBRANCH  39  41
ENDBRANCH   4  38
BRANCH   5  48
HETATM   48  N9  UNL     1     -12.992  10.122 -32.145  1.00  0.00    -0.380 N 
ATOM     49  H92 UNL     1     -13.865   9.645 -32.370  1.00  0.00     0.158 HD
ATOM     50  H91 UNL     1     -12.421   9.527 -31.544  1.00  0.00     0.158 HD
ENDBRANCH   5  48
TORSDOF 13
ENDMDL
MODEL 2
REMARK VINA RESULT: -7.110608354      1.247      2.751
REMARK  13 active torsions:
REMARK  status: ('A' for Active; 'I' for Inactive)
REMARK    1  A    between atoms: N1_4  and  N2_6 
REMARK    2  A    between atoms: C4_8  and  C5_9 
REMARK    3  A    between atoms: C4_8  and  O3_46 
REMARK    4  A    between atoms: C5_9  and  C6_10 
REMARK       I    between atoms: N3_11  and  C7_13 
REMARK    5  A    between atoms: C7_13  and  C8_15 
REMARK    6  A    between atoms: N5_18  and  N6_19 
REMARK    7  A    between atoms: C9_21  and  C10_22 
REMARK    8  A    between atoms: C13_29  and  N9_30 
REMARK    9  A    between atoms: C14_33  and  N10_34 
REMARK       I    between atoms: N10_34  and  C15_35 
REMARK   10  A    between atoms: C15_35  and  C16_37 
REMARK   11  A    between atoms: C18_40  and  N11_41 
REMARK   12  A    between atoms: O3_46  and  C19_47 
REMARK   13  A    between atoms: C19_47  and  C21_49 
ROOT
HETATM    1  C8  UNL     1     -11.328  12.988 -33.442  1.00  0.00     0.163 A 
HETATM    2  N4  UNL     1     -12.607  13.382 -33.245  1.00  0.00    -0.270 N 
ATOM      3  H4  UNL     1     -12.969  14.307 -33.476  1.00  0.00     0.189 HD
HETATM    4  N5  UNL     1     -13.331  12.398 -32.706  1.00  0.00    -0.176 N 
HETATM    5  C13 UNL     1     -12.514  11.357 -32.551  1.00  0.00     0.182 A 
HETATM    6  C14 UNL     1     -11.226  11.695 -33.008  1.00  0.00     0.191 A 
ENDROOT
BRANCH   1   7
HETATM    7  C7  UNL     1     -10.246  13.820 -34.051  1.00  0.00     0.276 C 
HETATM    8  N3  UNL     1     -10.395  14.230 -35.346  1.00  0.00    -0.335 N 
HETATM    9  C6  UNL     1      -9.821  15.049 -36.081  1.00  0.00     0.072 C 
ATOM     10  H3  UNL     1     -11.158  13.749 -35.822  1.00  0.00     0.168 HD
HETATM   11  O1  UNL     1      -9.273  14.084 -33.326  1.00  0.00    -0.266 OA
BRANCH   9  12
HETATM   12  C5  UNL     1      -8.698  15.907 -35.735  1.00  0.00     0.130 C 
BRANCH  12  13
HETATM   13  C4  UNL     1      -9.238  17.274 -35.472  1.00  0.00     0.137 C 
HETATM   14  N2  UNL     1     -10.220  17.798 -35.975  1.00  0.00    -0.283 N 
ATOM     15  H2  UNL     1     -10.264  18.723 -35.550  1.00  0.00     0.188 HD
BRANCH  14  16
HETATM   16  N1  UNL     1     -11.203  17.761 -36.758  1.00  0.00    -0.308 N 
HETATM   17  C2  UNL     1     -12.373  18.153 -36.862  1.00  0.00    -0.004 C 
HETATM   18  C1  UNL     1     -13.044  18.961 -35.817  1.00  0.00     0.064 C 
HETATM   19  C3  UNL     1     -13.114  17.762 -38.121  1.00  0.00     0.064 C 
ATOM     20  H1  UNL     1     -10.951  17.227 -37.590  1.00  0.00     0.186 HD
ENDBRANCH  14  16
BRANCH  13  21
HETATM   21  O3  UNL     1      -8.487  18.026 -34.511  1.00  0.00    -0.332 OA
BRANCH  21  22
HETATM   22  C19 UNL     1      -8.632  17.690 -33.128  1.00  0.00     0.140 C 
HETATM   23  C20 UNL     1      -7.526  18.394 -32.350  1.00  0.00     0.041 C 
BRANCH  22  24
HETATM   24  C21 UNL     1      -9.945  18.181 -32.586  1.00  0.00     0.146 C 
HETATM   25 CL1  UNL     1     -11.193  16.904 -32.654  1.00  0.00    -0.128 Cl
ENDBRANCH  22  24
ENDBRANCH  21  22
ENDBRANCH  13  21
ENDBRANCH  12  13
ENDBRANCH   9  12
ENDBRANCH   1   7
BRANCH   6  26
HETATM   26  N10 UNL     1     -10.081  10.909 -32.963  1.00  0.00    -0.359 NA
HETATM   27  C15 UNL     1      -8.997  10.165 -32.920  1.00  0.00     0.344 C 
HETATM   28  O2  UNL     1      -8.793   9.080 -32.263  1.00  0.00    -0.249 OA
BRANCH  27  29
HETATM   29  C16 UNL     1      -7.753  10.548 -33.721  1.00  0.00     0.124 A 
HETATM   30  C17 UNL     1      -6.584   9.887 -33.560  1.00  0.00     0.089 A 
HETATM   31  S1  UNL     1      -5.541  10.764 -34.630  1.00  0.00    -0.064 SA
HETATM   32  C18 UNL     1      -6.691  11.907 -35.201  1.00  0.00     0.142 A 
HETATM   33  N12 UNL     1      -7.802  11.560 -34.546  1.00  0.00    -0.331 N 
ATOM     34  H12 UNL     1      -8.671  12.074 -34.687  1.00  0.00     0.168 HD
BRANCH  32  35
HETATM   35  N11 UNL     1      -6.534  12.902 -36.059  1.00  0.00    -0.380 N 
ATOM     36 2H11 UNL     1      -6.880  13.857 -35.976  1.00  0.00     0.158 HD
ATOM     37 1H11 UNL     1      -6.033  12.919 -36.947  1.00  0.00     0.158 HD
ENDBRANCH  32  35
ENDBRANCH  27  29
ENDBRANCH   6  26
BRANCH   4  38
HETATM   38  N6  UNL     1     -14.702  12.466 -32.370  1.00  0.00    -0.285 N 
HETATM   39  C9  UNL     1     -15.513  13.134 -33.118  1.00  0.00     0.157 C 
ATOM     40  H6  UNL     1     -15.049  11.988 -31.538  1.00  0.00     0.188 HD
BRANCH  39  41
HETATM   41  C10 UNL     1     -16.924  13.225 -32.802  1.00  0.00     0.122 A 
HETATM   42  N7  UNL     1     -17.851  12.261 -32.683  1.00  0.00    -0.350 N 
HETATM   43  C11 UNL     1     -19.050  12.817 -32.370  1.00  0.00     0.106 A 
ATOM     44  H7  UNL     1     -17.680  11.264 -32.807  1.00  0.00     0.166 HD
HETATM   45  C12 UNL     1     -18.844  14.175 -32.295  1.00  0.00     0.106 A 
HETATM   46  N8  UNL     1     -17.561  14.394 -32.559  1.00  0.00    -0.350 N 
ATOM     47  H8  UNL     1     -17.119  15.313 -32.577  1.00  0.00     0.166 HD
ENDBRANCH  39  41
ENDBRANCH   4  38
BRANCH   5  48
HETATM   48  N9  UNL     1     -12.795  10.218 -32.070  1.00  0.00    -0.380 N 
ATOM     49  H92 UNL     1     -13.212  10.096 -31.147  1.00  0.00     0.158 HD
ATOM     50  H91 UNL     1     -12.659   9.308 -32.508  1.00  0.00     0.158 HD
ENDBRANCH   5  48
TORSDOF 13
ENDMDL
MODEL 3
REMARK VINA RESULT: -7.054529528      0.950      1.179
REMARK  13 active torsions:
REMARK  status: ('A' for Active; 'I' for Inactive)
REMARK    1  A    between atoms: N1_4  and  N2_6 
REMARK    2  A    between atoms: C4_8  and  C5_9 
REMARK    3  A    between atoms: C4_8  and  O3_46 
REMARK    4  A    between atoms: C5_9  and  C6_10 
REMARK       I    between atoms: N3_11  and  C7_13 
REMARK    5  A    between atoms: C7_13  and  C8_15 
REMARK    6  A    between atoms: N5_18  and  N6_19 
REMARK    7  A    between atoms: C9_21  and  C10_22 
REMARK    8  A    between atoms: C13_29  and  N9_30 
REMARK    9  A    between atoms: C14_33  and  N10_34 
REMARK       I    between atoms: N10_34  and  C15_35 
REMARK   10  A    between atoms: C15_35  and  C16_37 
REMARK   11  A    between atoms: C18_40  and  N11_41 
REMARK   12  A    between atoms: O3_46  and  C19_47 
REMARK   13  A    between atoms: C19_47  and  C21_49 
ROOT
HETATM    1  C8  UNL     1     -11.498  12.959 -33.412  1.00  0.00     0.163 A 
HETATM    2  N4  UNL     1     -12.787  13.330 -33.234  1.00  0.00    -0.270 N 
ATOM      3  H4  UNL     1     -13.160  14.252 -33.457  1.00  0.00     0.189 HD
HETATM    4  N5  UNL     1     -13.506  12.325 -32.726  1.00  0.00    -0.176 N 
HETATM    5  C13 UNL     1     -12.675  11.295 -32.571  1.00  0.00     0.182 A 
HETATM    6  C14 UNL     1     -11.385  11.660 -32.996  1.00  0.00     0.191 A 
ENDROOT
BRANCH   1   7
HETATM    7  C7  UNL     1     -10.418  13.818 -33.984  1.00  0.00     0.276 C 
HETATM    8  N3  UNL     1     -10.427  14.060 -35.329  1.00  0.00    -0.335 N 
HETATM    9  C6  UNL     1      -9.830  14.841 -36.087  1.00  0.00     0.072 C 
ATOM     10  H3  UNL     1     -11.077  13.454 -35.830  1.00  0.00     0.168 HD
HETATM   11  O1  UNL     1      -9.575  14.258 -33.186  1.00  0.00    -0.266 OA
BRANCH   9  12
HETATM   12  C5  UNL     1      -8.838  15.840 -35.718  1.00  0.00     0.130 C 
BRANCH  12  13
HETATM   13  C4  UNL     1      -9.571  17.057 -35.258  1.00  0.00     0.137 C 
HETATM   14  N2  UNL     1      -9.301  17.776 -34.309  1.00  0.00    -0.283 N 
ATOM     15  H2  UNL     1     -10.025  18.494 -34.316  1.00  0.00     0.188 HD
BRANCH  14  16
HETATM   16  N1  UNL     1      -8.572  18.069 -33.327  1.00  0.00    -0.308 N 
HETATM   17  C2  UNL     1      -8.601  18.676 -32.248  1.00  0.00    -0.004 C 
HETATM   18  C1  UNL     1      -9.811  19.368 -31.748  1.00  0.00     0.064 C 
HETATM   19  C3  UNL     1      -7.321  18.694 -31.442  1.00  0.00     0.064 C 
ATOM     20  H1  UNL     1      -7.643  17.672 -33.466  1.00  0.00     0.186 HD
ENDBRANCH  14  16
BRANCH  13  21
HETATM   21  O3  UNL     1     -10.719  17.384 -36.051  1.00  0.00    -0.332 OA
BRANCH  21  22
HETATM   22  C19 UNL     1     -11.157  18.746 -36.075  1.00  0.00     0.140 C 
HETATM   23  C20 UNL     1     -11.037  19.258 -37.506  1.00  0.00     0.041 C 
BRANCH  22  24
HETATM   24  C21 UNL     1     -12.602  18.857 -35.678  1.00  0.00     0.146 C 
HETATM   25 CL1  UNL     1     -12.772  19.478 -34.012  1.00  0.00    -0.128 Cl
ENDBRANCH  22  24
ENDBRANCH  21  22
ENDBRANCH  13  21
ENDBRANCH  12  13
ENDBRANCH   9  12
ENDBRANCH   1   7
BRANCH   6  26
HETATM   26  N10 UNL     1     -10.228  10.892 -32.941  1.00  0.00    -0.359 NA
HETATM   27  C15 UNL     1      -9.133  10.164 -32.888  1.00  0.00     0.344 C 
HETATM   28  O2  UNL     1      -8.918   9.086 -32.225  1.00  0.00    -0.249 OA
BRANCH  27  29
HETATM   29  C16 UNL     1      -7.890  10.563 -33.683  1.00  0.00     0.124 A 
HETATM   30  C17 UNL     1      -6.733   9.873 -33.566  1.00  0.00     0.089 A 
HETATM   31  S1  UNL     1      -5.683  10.781 -34.604  1.00  0.00    -0.064 SA
HETATM   32  C18 UNL     1      -6.817  11.972 -35.106  1.00  0.00     0.142 A 
HETATM   33  N12 UNL     1      -7.928  11.615 -34.457  1.00  0.00    -0.331 N 
ATOM     34  H12 UNL     1      -8.788  12.151 -34.564  1.00  0.00     0.168 HD
BRANCH  32  35
HETATM   35  N11 UNL     1      -6.649  13.005 -35.917  1.00  0.00    -0.380 N 
ATOM     36 2H11 UNL     1      -6.385  13.958 -35.667  1.00  0.00     0.158 HD
ATOM     37 1H11 UNL     1      -6.732  13.053 -36.932  1.00  0.00     0.158 HD
ENDBRANCH  32  35
ENDBRANCH  27  29
ENDBRANCH   6  26
BRANCH   4  38
HETATM   38  N6  UNL     1     -14.885  12.366 -32.416  1.00  0.00    -0.285 N 
HETATM   39  C9  UNL     1     -15.666  13.156 -33.073  1.00  0.00     0.157 C 
ATOM     40  H6  UNL     1     -15.261  11.773 -31.677  1.00  0.00     0.188 HD
BRANCH  39  41
HETATM   41  C10 UNL     1     -17.082  13.224 -32.781  1.00  0.00     0.122 A 
HETATM   42  N7  UNL     1     -18.008  12.252 -32.742  1.00  0.00    -0.350 N 
HETATM   43  C11 UNL     1     -19.216  12.784 -32.420  1.00  0.00     0.106 A 
ATOM     44  H7  UNL     1     -17.832  11.265 -32.927  1.00  0.00     0.166 HD
HETATM   45  C12 UNL     1     -19.016  14.135 -32.254  1.00  0.00     0.106 A 
HETATM   46  N8  UNL     1     -17.729  14.373 -32.477  1.00  0.00    -0.350 N 
ATOM     47  H8  UNL     1     -17.289  15.292 -32.427  1.00  0.00     0.166 HD
ENDBRANCH  39  41
ENDBRANCH   4  38
BRANCH   5  48
HETATM   48  N9  UNL     1     -12.948  10.144 -32.115  1.00  0.00    -0.380 N 
ATOM     49  H92 UNL     1     -13.643   9.990 -31.384  1.00  0.00     0.158 HD
ATOM     50  H91 UNL     1     -12.541   9.252 -32.394  1.00  0.00     0.158 HD
ENDBRANCH   5  48
TORSDOF 13
ENDMDL
MODEL 4
REMARK VINA RESULT: -7.010649335      1.153      2.620
REMARK  13 active torsions:
REMARK  status: ('A' for Active; 'I' for Inactive)
REMARK    1  A    between atoms: N1_4  and  N2_6 
REMARK    2  A    between atoms: C4_8  and  C5_9 
REMARK    3  A    between atoms: C4_8  and  O3_46 
REMARK    4  A    between atoms: C5_9  and  C6_10 
REMARK       I    between atoms: N3_11  and  C7_13 
REMARK    5  A    between atoms: C7_13  and  C8_15 
REMARK    6  A    between atoms: N5_18  and  N6_19 
REMARK    7  A    between atoms: C9_21  and  C10_22 
REMARK    8  A    between atoms: C13_29  and  N9_30 
REMARK    9  A    between atoms: C14_33  and  N10_34 
REMARK       I    between atoms: N10_34  and  C15_35 
REMARK   10  A    between atoms: C15_35  and  C16_37 
REMARK   11  A    between atoms: C18_40  and  N11_41 
REMARK   12  A    between atoms: O3_46  and  C19_47 
REMARK   13  A    between atoms: C19_47  and  C21_49 
ROOT
HETATM    1  C8  UNL     1     -11.455  12.943 -33.401  1.00  0.00     0.163 A 
HETATM    2  N4  UNL     1     -12.743  13.316 -33.225  1.00  0.00    -0.270 N 
ATOM      3  H4  UNL     1     -13.111  14.243 -33.440  1.00  0.00     0.189 HD
HETATM    4  N5  UNL     1     -13.468  12.310 -32.731  1.00  0.00    -0.176 N 
HETATM    5  C13 UNL     1     -12.642  11.275 -32.584  1.00  0.00     0.182 A 
HETATM    6  C14 UNL     1     -11.348  11.639 -33.000  1.00  0.00     0.191 A 
ENDROOT
BRANCH   1   7
HETATM    7  C7  UNL     1     -10.369  13.804 -33.960  1.00  0.00     0.276 C 
HETATM    8  N3  UNL     1     -10.511  14.282 -35.232  1.00  0.00    -0.335 N 
HETATM    9  C6  UNL     1      -9.932  15.137 -35.920  1.00  0.00     0.072 C 
ATOM     10  H3  UNL     1     -11.273  13.828 -35.736  1.00  0.00     0.168 HD
HETATM   11  O1  UNL     1      -9.398  14.026 -33.218  1.00  0.00    -0.266 OA
BRANCH   9  12
HETATM   12  C5  UNL     1      -8.809  15.974 -35.525  1.00  0.00     0.130 C 
BRANCH  12  13
HETATM   13  C4  UNL     1      -9.348  17.093 -34.697  1.00  0.00     0.137 C 
HETATM   14  N2  UNL     1     -10.338  17.774 -34.917  1.00  0.00    -0.283 N 
ATOM     15  H2  UNL     1     -10.378  18.428 -34.136  1.00  0.00     0.188 HD
BRANCH  14  16
HETATM   16  N1  UNL     1     -11.331  18.068 -35.630  1.00  0.00    -0.308 N 
HETATM   17  C2  UNL     1     -12.375  18.734 -35.608  1.00  0.00    -0.004 C 
HETATM   18  C1  UNL     1     -12.788  19.539 -34.435  1.00  0.00     0.064 C 
HETATM   19  C3  UNL     1     -13.238  18.689 -36.849  1.00  0.00     0.064 C 
ATOM     20  H1  UNL     1     -11.249  17.598 -36.531  1.00  0.00     0.186 HD
ENDBRANCH  14  16
BRANCH  13  21
HETATM   21  O3  UNL     1      -8.586  17.368 -33.515  1.00  0.00    -0.332 OA
BRANCH  21  22
HETATM   22  C19 UNL     1      -8.379  18.735 -33.147  1.00  0.00     0.140 C 
HETATM   23  C20 UNL     1      -9.293  19.053 -31.969  1.00  0.00     0.041 C 
BRANCH  22  24
HETATM   24  C21 UNL     1      -6.965  18.966 -32.693  1.00  0.00     0.146 C 
HETATM   25 CL1  UNL     1      -6.794  18.692 -30.936  1.00  0.00    -0.128 Cl
ENDBRANCH  22  24
ENDBRANCH  21  22
ENDBRANCH  13  21
ENDBRANCH  12  13
ENDBRANCH   9  12
ENDBRANCH   1   7
BRANCH   6  26
HETATM   26  N10 UNL     1     -10.195  10.866 -32.948  1.00  0.00    -0.359 NA
HETATM   27  C15 UNL     1      -9.103  10.133 -32.897  1.00  0.00     0.344 C 
HETATM   28  O2  UNL     1      -8.892   9.051 -32.239  1.00  0.00    -0.249 OA
BRANCH  27  29
HETATM   29  C16 UNL     1      -7.858  10.531 -33.690  1.00  0.00     0.124 A 
HETATM   30  C17 UNL     1      -6.679   9.894 -33.508  1.00  0.00     0.089 A 
HETATM   31  S1  UNL     1      -5.641  10.777 -34.578  1.00  0.00    -0.064 SA
HETATM   32  C18 UNL     1      -6.807  11.890 -35.177  1.00  0.00     0.142 A 
HETATM   33  N12 UNL     1      -7.918  11.530 -34.529  1.00  0.00    -0.331 N 
ATOM     34  H12 UNL     1      -8.795  12.025 -34.686  1.00  0.00     0.168 HD
BRANCH  32  35
HETATM   35  N11 UNL     1      -6.659  12.877 -36.046  1.00  0.00    -0.380 N 
ATOM     36 2H11 UNL     1      -6.266  12.827 -36.985  1.00  0.00     0.158 HD
ATOM     37 1H11 UNL     1      -6.918  13.859 -35.961  1.00  0.00     0.158 HD
ENDBRANCH  32  35
ENDBRANCH  27  29
ENDBRANCH   6  26
BRANCH   4  38
HETATM   38  N6  UNL     1     -14.848  12.353 -32.427  1.00  0.00    -0.285 N 
HETATM   39  C9  UNL     1     -15.615  13.187 -33.045  1.00  0.00     0.157 C 
ATOM     40  H6  UNL     1     -15.236  11.726 -31.722  1.00  0.00     0.188 HD
BRANCH  39  41
HETATM   41  C10 UNL     1     -17.032  13.258 -32.758  1.00  0.00     0.122 A 
HETATM   42  N7  UNL     1     -17.948  12.281 -32.660  1.00  0.00    -0.350 N 
HETATM   43  C11 UNL     1     -19.161  12.820 -32.370  1.00  0.00     0.106 A 
ATOM     44  H7  UNL     1     -17.762  11.287 -32.785  1.00  0.00     0.166 HD
HETATM   45  C12 UNL     1     -18.975  14.181 -32.286  1.00  0.00     0.106 A 
HETATM   46  N8  UNL     1     -17.690  14.417 -32.524  1.00  0.00    -0.350 N 
ATOM     47  H8  UNL     1     -17.259  15.342 -32.530  1.00  0.00     0.166 HD
ENDBRANCH  39  41
ENDBRANCH   4  38
BRANCH   5  48
HETATM   48  N9  UNL     1     -12.922  10.120 -32.141  1.00  0.00    -0.380 N 
ATOM     49  H92 UNL     1     -13.520   9.969 -31.328  1.00  0.00     0.158 HD
ATOM     50  H91 UNL     1     -12.612   9.221 -32.510  1.00  0.00     0.158 HD
ENDBRANCH   5  48
TORSDOF 13
ENDMDL
MODEL 5
REMARK VINA RESULT: -6.943382584      1.131      1.235
REMARK  13 active torsions:
REMARK  status: ('A' for Active; 'I' for Inactive)
REMARK    1  A    between atoms: N1_4  and  N2_6 
REMARK    2  A    between atoms: C4_8  and  C5_9 
REMARK    3  A    between atoms: C4_8  and  O3_46 
REMARK    4  A    between atoms: C5_9  and  C6_10 
REMARK       I    between atoms: N3_11  and  C7_13 
REMARK    5  A    between atoms: C7_13  and  C8_15 
REMARK    6  A    between atoms: N5_18  and  N6_19 
REMARK    7  A    between atoms: C9_21  and  C10_22 
REMARK    8  A    between atoms: C13_29  and  N9_30 
REMARK    9  A    between atoms: C14_33  and  N10_34 
REMARK       I    between atoms: N10_34  and  C15_35 
REMARK   10  A    between atoms: C15_35  and  C16_37 
REMARK   11  A    between atoms: C18_40  and  N11_41 
REMARK   12  A    between atoms: O3_46  and  C19_47 
REMARK   13  A    between atoms: C19_47  and  C21_49 
ROOT
HETATM    1  C8  UNL     1     -11.394  12.999 -33.460  1.00  0.00     0.163 A 
HETATM    2  N4  UNL     1     -12.669  13.402 -33.258  1.00  0.00    -0.270 N 
ATOM      3  H4  UNL     1     -13.028  14.326 -33.497  1.00  0.00     0.189 HD
HETATM    4  N5  UNL     1     -13.395  12.428 -32.704  1.00  0.00    -0.176 N 
HETATM    5  C13 UNL     1     -12.582  11.385 -32.543  1.00  0.00     0.182 A 
HETATM    6  C14 UNL     1     -11.296  11.710 -33.012  1.00  0.00     0.191 A 
ENDROOT
BRANCH   1   7
HETATM    7  C7  UNL     1     -10.312  13.819 -34.085  1.00  0.00     0.276 C 
HETATM    8  N3  UNL     1     -10.456  14.196 -35.391  1.00  0.00    -0.335 N 
HETATM    9  C6  UNL     1      -9.882  14.997 -36.144  1.00  0.00     0.072 C 
ATOM     10  H3  UNL     1     -11.216  13.700 -35.857  1.00  0.00     0.168 HD
HETATM   11  O1  UNL     1      -9.342  14.103 -33.364  1.00  0.00    -0.266 OA
BRANCH   9  12
HETATM   12  C5  UNL     1      -8.762  15.867 -35.816  1.00  0.00     0.130 C 
BRANCH  12  13
HETATM   13  C4  UNL     1      -9.299  17.250 -35.644  1.00  0.00     0.137 C 
HETATM   14  N2  UNL     1      -8.693  18.304 -35.750  1.00  0.00    -0.283 N 
ATOM     15  H2  UNL     1      -9.391  19.023 -35.561  1.00  0.00     0.188 HD
BRANCH  14  16
HETATM   16  N1  UNL     1      -7.633  18.943 -35.977  1.00  0.00    -0.308 N 
HETATM   17  C2  UNL     1      -6.427  18.945 -35.700  1.00  0.00    -0.004 C 
HETATM   18  C1  UNL     1      -5.805  17.935 -34.812  1.00  0.00     0.064 C 
HETATM   19  C3  UNL     1      -5.589  20.048 -36.309  1.00  0.00     0.064 C 
ATOM     20  H1  UNL     1      -7.838  19.723 -36.600  1.00  0.00     0.186 HD
ENDBRANCH  14  16
BRANCH  13  21
HETATM   21  O3  UNL     1     -10.694  17.300 -35.317  1.00  0.00    -0.332 OA
BRANCH  21  22
HETATM   22  C19 UNL     1     -11.252  18.560 -34.931  1.00  0.00     0.140 C 
HETATM   23  C20 UNL     1     -12.562  18.750 -35.686  1.00  0.00     0.041 C 
BRANCH  22  24
HETATM   24  C21 UNL     1     -11.572  18.582 -33.462  1.00  0.00     0.146 C 
HETATM   25 CL1  UNL     1     -11.068  17.065 -32.664  1.00  0.00    -0.128 Cl
ENDBRANCH  22  24
ENDBRANCH  21  22
ENDBRANCH  13  21
ENDBRANCH  12  13
ENDBRANCH   9  12
ENDBRANCH   1   7
BRANCH   6  26
HETATM   26  N10 UNL     1     -10.154  10.919 -32.967  1.00  0.00    -0.359 NA
HETATM   27  C15 UNL     1      -9.074  10.169 -32.922  1.00  0.00     0.344 C 
HETATM   28  O2  UNL     1      -8.879   9.080 -32.271  1.00  0.00    -0.249 OA
BRANCH  27  29
HETATM   29  C16 UNL     1      -7.824  10.552 -33.715  1.00  0.00     0.124 A 
HETATM   30  C17 UNL     1      -6.655   9.897 -33.538  1.00  0.00     0.089 A 
HETATM   31  S1  UNL     1      -5.605  10.770 -34.605  1.00  0.00    -0.064 SA
HETATM   32  C18 UNL     1      -6.754  11.904 -35.195  1.00  0.00     0.142 A 
HETATM   33  N12 UNL     1      -7.869  11.558 -34.547  1.00  0.00    -0.331 N 
ATOM     34  H12 UNL     1      -8.739  12.068 -34.700  1.00  0.00     0.168 HD
BRANCH  32  35
HETATM   35  N11 UNL     1      -6.593  12.894 -36.058  1.00  0.00    -0.380 N 
ATOM     36 2H11 UNL     1      -6.267  13.841 -35.868  1.00  0.00     0.158 HD
ATOM     37 1H11 UNL     1      -6.743  12.906 -37.067  1.00  0.00     0.158 HD
ENDBRANCH  32  35
ENDBRANCH  27  29
ENDBRANCH   6  26
BRANCH   4  38
HETATM   38  N6  UNL     1     -14.763  12.507 -32.358  1.00  0.00    -0.285 N 
HETATM   39  C9  UNL     1     -15.579  13.156 -33.119  1.00  0.00     0.157 C 
ATOM     40  H6  UNL     1     -15.104  12.053 -31.512  1.00  0.00     0.188 HD
BRANCH  39  41
HETATM   41  C10 UNL     1     -16.987  13.257 -32.795  1.00  0.00     0.122 A 
HETATM   42  N7  UNL     1     -17.927  12.304 -32.701  1.00  0.00    -0.350 N 
HETATM   43  C11 UNL     1     -19.118  12.867 -32.366  1.00  0.00     0.106 A 
ATOM     44  H7  UNL     1     -17.772  11.308 -32.857  1.00  0.00     0.166 HD
HETATM   45  C12 UNL     1     -18.892  14.220 -32.250  1.00  0.00     0.106 A 
HETATM   46  N8  UNL     1     -17.607  14.427 -32.513  1.00  0.00    -0.350 N 
ATOM     47  H8  UNL     1     -17.151  15.340 -32.505  1.00  0.00     0.166 HD
ENDBRANCH  39  41
ENDBRANCH   4  38
BRANCH   5  48
HETATM   48  N9  UNL     1     -12.866  10.253 -32.047  1.00  0.00    -0.380 N 
ATOM     49  H92 UNL     1     -13.120   9.447 -32.618  1.00  0.00     0.158 HD
ATOM     50  H91 UNL     1     -12.881   9.992 -31.061  1.00  0.00     0.158 HD
ENDBRANCH   5  48
TORSDOF 13
ENDMDL
