MODEL 1
REMARK VINA RESULT: -10.700406904      0.000      0.000
REMARK  15 active torsions:
REMARK  status: ('A' for Active; 'I' for Inactive)
REMARK    1  A    between atoms: S1_2  and  C2_3 
REMARK    2  A    between atoms: C2_3  and  C3_4 
REMARK    3  A    between atoms: C3_4  and  C4_5 
REMARK    4  A    between atoms: C4_5  and  N1_6 
REMARK    5  A    between atoms: C4_5  and  N7_28 
REMARK    6  A    between atoms: N1_6  and  N2_8 
REMARK    7  A    between atoms: N2_8  and  C5_10 
REMARK    8  A    between atoms: C8_13  and  O1_14 
REMARK    9  A    between atoms: O1_14  and  N3_15 
REMARK   10  A    between atoms: N3_15  and  N4_17 
REMARK   11  A    between atoms: N4_17  and  N5_18 
REMARK   12  A    between atoms: N4_17  and  O2_21 
REMARK   13  A    between atoms: C9_23  and  N6_24 
REMARK       I    between atoms: N7_28  and  C11_30 
REMARK       I    between atoms: C11_30  and  N8_32 
REMARK   14  A    between atoms: N8_32  and  N9_34 
REMARK       I    between atoms: N9_34  and  C12_36 
REMARK   15  A    between atoms: C12_36  and  C13_38 
ROOT
HETATM    1  C4  UNL     1     -17.245  11.742 -33.715  1.00  0.00     0.100 C 
ENDROOT
BRANCH   1   2
HETATM    2  C3  UNL     1     -17.937  11.710 -35.017  1.00  0.00     0.088 C 
BRANCH   2   3
HETATM    3  C2  UNL     1     -17.632  12.937 -35.801  1.00  0.00     0.081 C 
BRANCH   3   4
HETATM    4  S1  UNL     1     -19.120  13.933 -36.114  1.00  0.00    -0.173 SA
HETATM    5  C1  UNL     1     -19.007  14.784 -37.715  1.00  0.00     0.089 C 
ENDBRANCH   3   4
ENDBRANCH   2   3
ENDBRANCH   1   2
BRANCH   1   6
HETATM    6  N1  UNL     1     -18.054  11.847 -32.672  1.00  0.00    -0.288 N 
ATOM      7  H1  UNL     1     -17.838  11.373 -31.795  1.00  0.00     0.188 HD
BRANCH   6   8
HETATM    8  N2  UNL     1     -19.189  12.609 -32.796  1.00  0.00    -0.299 N 
ATOM      9  H2  UNL     1     -19.874  12.393 -33.521  1.00  0.00     0.187 HD
BRANCH   8  10
HETATM   10  C5  UNL     1     -19.406  13.695 -31.916  1.00  0.00     0.050 A 
HETATM   11  C6  UNL     1     -18.766  14.919 -32.080  1.00  0.00     0.034 A 
HETATM   12  C7  UNL     1     -19.045  15.891 -31.193  1.00  0.00     0.044 A 
HETATM   13  C8  UNL     1     -19.948  15.770 -30.093  1.00  0.00     0.133 A 
HETATM   14  C9  UNL     1     -20.558  14.540 -29.977  1.00  0.00     0.141 A 
HETATM   15  C10 UNL     1     -20.291  13.496 -30.886  1.00  0.00     0.070 A 
BRANCH  13  16
HETATM   16  O1  UNL     1     -20.104  16.845 -29.296  1.00  0.00    -0.217 OA
BRANCH  16  17
HETATM   17  N3  UNL     1     -20.469  18.069 -29.459  1.00  0.00    -0.160 N 
ATOM     18  H3  UNL     1     -21.277  18.253 -30.055  1.00  0.00     0.220 HD
BRANCH  17  19
HETATM   19  N4  UNL     1     -19.887  19.055 -28.927  1.00  0.00    -0.081 N 
BRANCH  19  20
HETATM   20  N5  UNL     1     -19.619  20.204 -29.660  1.00  0.00    -0.302 N 
ATOM     21  H52 UNL     1     -19.628  20.158 -30.679  1.00  0.00     0.181 HD
ATOM     22  H51 UNL     1     -19.414  21.087 -29.192  1.00  0.00     0.181 HD
ENDBRANCH  19  20
BRANCH  19  23
HETATM   23  O2  UNL     1     -19.515  18.999 -27.613  1.00  0.00    -0.252 OA
ATOM     24  H2  UNL     1     -19.201  18.183 -27.244  1.00  0.00     0.248 HD
ENDBRANCH  19  23
ENDBRANCH  17  19
ENDBRANCH  16  17
ENDBRANCH  13  16
BRANCH  14  25
HETATM   25  N6  UNL     1     -21.485  14.192 -28.967  1.00  0.00    -0.113 N 
HETATM   26  O3  UNL     1     -21.003  13.624 -27.918  1.00  0.00    -0.532 OA
HETATM   27  O4  UNL     1     -22.817  14.376 -28.914  1.00  0.00    -0.532 OA
ENDBRANCH  14  25
ENDBRANCH   8  10
ENDBRANCH   6   8
ENDBRANCH   1   6
BRANCH   1  28
HETATM   28  N7  UNL     1     -15.874  11.658 -33.462  1.00  0.00    -0.296 N 
HETATM   29  C11 UNL     1     -15.150  12.644 -32.787  1.00  0.00     0.340 C 
HETATM   30  O5  UNL     1     -15.773  13.692 -32.375  1.00  0.00    -0.245 OA
HETATM   31  N8  UNL     1     -13.773  12.536 -32.536  1.00  0.00    -0.248 N 
ATOM     32  H8  UNL     1     -13.500  12.440 -31.558  1.00  0.00     0.192 HD
ATOM     33  H7  UNL     1     -15.374  10.831 -33.789  1.00  0.00     0.172 HD
BRANCH  31  34
HETATM   34  N9  UNL     1     -12.866  12.545 -33.349  1.00  0.00    -0.262 N 
HETATM   35  C12 UNL     1     -11.555  13.012 -33.311  1.00  0.00     0.275 C 
HETATM   36  O6  UNL     1     -11.268  14.252 -33.222  1.00  0.00    -0.266 OA
ATOM     37  H9  UNL     1     -13.120  12.124 -34.242  1.00  0.00     0.190 HD
BRANCH  35  38
HETATM   38  C13 UNL     1     -10.422  12.076 -33.374  1.00  0.00     0.097 A 
HETATM   39  C14 UNL     1     -10.516  10.898 -32.669  1.00  0.00     0.135 A 
HETATM   40  N10 UNL     1     -11.678  10.606 -31.896  1.00  0.00    -0.082 NA
HETATM   41  N11 UNL     1      -9.498  10.016 -32.702  1.00  0.00    -0.330 N 
HETATM   42  C15 UNL     1      -8.410  10.281 -33.412  1.00  0.00     0.107 A 
ATOM     43  H11 UNL     1      -9.564   9.142 -32.179  1.00  0.00     0.168 HD
HETATM   44  N12 UNL     1      -7.433   9.449 -33.453  1.00  0.00    -0.385 N 
HETATM   45  C16 UNL     1      -8.259  11.448 -34.139  1.00  0.00     0.004 A 
ATOM     46 2H12 UNL     1      -7.544   8.588 -32.916  1.00  0.00     0.157 HD
ATOM     47 1H12 UNL     1      -6.596   9.653 -34.000  1.00  0.00     0.157 HD
HETATM   48  C17 UNL     1      -7.039  11.724 -34.924  1.00  0.00     0.054 C 
HETATM   49  C18 UNL     1      -9.298  12.373 -34.116  1.00  0.00     0.062 A 
HETATM   50 CL1  UNL     1      -9.129  13.845 -34.988  1.00  0.00    -0.082 Cl
ENDBRANCH  35  38
ENDBRANCH  31  34
ENDBRANCH   1  28
TORSDOF 15
ENDMDL
MODEL 2
REMARK VINA RESULT: -9.433721765      1.773      2.132
REMARK  15 active torsions:
REMARK  status: ('A' for Active; 'I' for Inactive)
REMARK    1  A    between atoms: S1_2  and  C2_3 
REMARK    2  A    between atoms: C2_3  and  C3_4 
REMARK    3  A    between atoms: C3_4  and  C4_5 
REMARK    4  A    between atoms: C4_5  and  N1_6 
REMARK    5  A    between atoms: C4_5  and  N7_28 
REMARK    6  A    between atoms: N1_6  and  N2_8 
REMARK    7  A    between atoms: N2_8  and  C5_10 
REMARK    8  A    between atoms: C8_13  and  O1_14 
REMARK    9  A    between atoms: O1_14  and  N3_15 
REMARK   10  A    between atoms: N3_15  and  N4_17 
REMARK   11  A    between atoms: N4_17  and  N5_18 
REMARK   12  A    between atoms: N4_17  and  O2_21 
REMARK   13  A    between atoms: C9_23  and  N6_24 
REMARK       I    between atoms: N7_28  and  C11_30 
REMARK       I    between atoms: C11_30  and  N8_32 
REMARK   14  A    between atoms: N8_32  and  N9_34 
REMARK       I    between atoms: N9_34  and  C12_36 
REMARK   15  A    between atoms: C12_36  and  C13_38 
ROOT
HETATM    1  C4  UNL     1     -17.002  11.616 -33.554  1.00  0.00     0.100 C 
ENDROOT
BRANCH   1   2
HETATM    2  C3  UNL     1     -17.913  11.540 -34.710  1.00  0.00     0.088 C 
BRANCH   2   3
HETATM    3  C2  UNL     1     -17.618  12.627 -35.682  1.00  0.00     0.081 C 
BRANCH   3   4
HETATM    4  S1  UNL     1     -18.977  13.829 -35.796  1.00  0.00    -0.173 SA
HETATM    5  C1  UNL     1     -19.031  14.594 -37.442  1.00  0.00     0.089 C 
ENDBRANCH   3   4
ENDBRANCH   2   3
ENDBRANCH   1   2
BRANCH   1   6
HETATM    6  N1  UNL     1     -17.562  12.092 -32.452  1.00  0.00    -0.288 N 
ATOM      7  H1  UNL     1     -17.059  12.079 -31.565  1.00  0.00     0.188 HD
BRANCH   6   8
HETATM    8  N2  UNL     1     -18.833  12.604 -32.530  1.00  0.00    -0.299 N 
ATOM      9  H2  UNL     1     -19.520  12.176 -33.150  1.00  0.00     0.187 HD
BRANCH   8  10
HETATM   10  C5  UNL     1     -19.187  13.728 -31.746  1.00  0.00     0.050 A 
HETATM   11  C6  UNL     1     -18.633  14.985 -31.964  1.00  0.00     0.034 A 
HETATM   12  C7  UNL     1     -19.041  15.990 -31.169  1.00  0.00     0.044 A 
HETATM   13  C8  UNL     1     -19.998  15.874 -30.116  1.00  0.00     0.133 A 
HETATM   14  C9  UNL     1     -20.518  14.609 -29.943  1.00  0.00     0.141 A 
HETATM   15  C10 UNL     1     -20.116  13.530 -30.756  1.00  0.00     0.070 A 
BRANCH  13  16
HETATM   16  O1  UNL     1     -20.285  16.985 -29.410  1.00  0.00    -0.217 OA
BRANCH  16  17
HETATM   17  N3  UNL     1     -20.407  18.239 -29.675  1.00  0.00    -0.160 N 
ATOM     18  H3  UNL     1     -20.968  18.507 -30.484  1.00  0.00     0.220 HD
BRANCH  17  19
HETATM   19  N4  UNL     1     -19.872  19.158 -28.994  1.00  0.00    -0.081 N 
BRANCH  19  20
HETATM   20  N5  UNL     1     -19.634  20.409 -29.549  1.00  0.00    -0.302 N 
ATOM     21  H52 UNL     1     -20.119  20.675 -30.406  1.00  0.00     0.181 HD
ATOM     22  H51 UNL     1     -18.982  21.060 -29.111  1.00  0.00     0.181 HD
ENDBRANCH  19  20
BRANCH  19  23
HETATM   23  O2  UNL     1     -19.522  18.927 -27.692  1.00  0.00    -0.252 OA
ATOM     24  H2  UNL     1     -19.149  18.090 -27.444  1.00  0.00     0.248 HD
ENDBRANCH  19  23
ENDBRANCH  17  19
ENDBRANCH  16  17
ENDBRANCH  13  16
BRANCH  14  25
HETATM   25  N6  UNL     1     -21.476  14.258 -28.963  1.00  0.00    -0.113 N 
HETATM   26  O3  UNL     1     -21.028  13.685 -27.902  1.00  0.00    -0.532 OA
HETATM   27  O4  UNL     1     -22.809  14.444 -28.952  1.00  0.00    -0.532 OA
ENDBRANCH  14  25
ENDBRANCH   8  10
ENDBRANCH   6   8
ENDBRANCH   1   6
BRANCH   1  28
HETATM   28  N7  UNL     1     -15.660  11.239 -33.484  1.00  0.00    -0.296 N 
HETATM   29  C11 UNL     1     -15.184  10.217 -32.659  1.00  0.00     0.340 C 
HETATM   30  O5  UNL     1     -16.024   9.585 -31.916  1.00  0.00    -0.245 OA
HETATM   31  N8  UNL     1     -13.831   9.847 -32.609  1.00  0.00    -0.248 N 
ATOM     32  H8  UNL     1     -13.605   8.919 -32.964  1.00  0.00     0.192 HD
ATOM     33  H7  UNL     1     -14.988  11.737 -34.068  1.00  0.00     0.172 HD
BRANCH  31  34
HETATM   34  N9  UNL     1     -12.895  10.506 -32.191  1.00  0.00    -0.262 N 
HETATM   35  C12 UNL     1     -11.535  10.524 -32.483  1.00  0.00     0.275 C 
HETATM   36  O6  UNL     1     -10.759   9.548 -32.209  1.00  0.00    -0.266 OA
ATOM     37  H9  UNL     1     -13.165  11.184 -31.478  1.00  0.00     0.190 HD
BRANCH  35  38
HETATM   38  C13 UNL     1     -10.921  11.691 -33.134  1.00  0.00     0.097 A 
HETATM   39  C14 UNL     1     -11.641  12.863 -33.170  1.00  0.00     0.135 A 
HETATM   40  N10 UNL     1     -12.945  12.933 -32.599  1.00  0.00    -0.082 NA
HETATM   41  N11 UNL     1     -11.112  13.955 -33.758  1.00  0.00    -0.330 N 
HETATM   42  C15 UNL     1      -9.902  13.899 -34.299  1.00  0.00     0.107 A 
ATOM     43  H11 UNL     1     -11.643  14.825 -33.788  1.00  0.00     0.168 HD
HETATM   44  N12 UNL     1      -9.386  14.931 -34.861  1.00  0.00    -0.385 N 
HETATM   45  C16 UNL     1      -9.134  12.749 -34.293  1.00  0.00     0.004 A 
ATOM     46 2H12 UNL     1      -9.953  15.780 -34.866  1.00  0.00     0.157 HD
ATOM     47 1H12 UNL     1      -8.455  14.889 -35.277  1.00  0.00     0.157 HD
HETATM   48  C17 UNL     1      -7.788  12.709 -34.900  1.00  0.00     0.054 C 
HETATM   49  C18 UNL     1      -9.663  11.610 -33.693  1.00  0.00     0.062 A 
HETATM   50 CL1  UNL     1      -8.744  10.158 -33.694  1.00  0.00    -0.082 Cl
ENDBRANCH  35  38
ENDBRANCH  31  34
ENDBRANCH   1  28
TORSDOF 15
ENDMDL
MODEL 3
REMARK VINA RESULT: -8.238733024      6.295      9.396
REMARK  15 active torsions:
REMARK  status: ('A' for Active; 'I' for Inactive)
REMARK    1  A    between atoms: S1_2  and  C2_3 
REMARK    2  A    between atoms: C2_3  and  C3_4 
REMARK    3  A    between atoms: C3_4  and  C4_5 
REMARK    4  A    between atoms: C4_5  and  N1_6 
REMARK    5  A    between atoms: C4_5  and  N7_28 
REMARK    6  A    between atoms: N1_6  and  N2_8 
REMARK    7  A    between atoms: N2_8  and  C5_10 
REMARK    8  A    between atoms: C8_13  and  O1_14 
REMARK    9  A    between atoms: O1_14  and  N3_15 
REMARK   10  A    between atoms: N3_15  and  N4_17 
REMARK   11  A    between atoms: N4_17  and  N5_18 
REMARK   12  A    between atoms: N4_17  and  O2_21 
REMARK   13  A    between atoms: C9_23  and  N6_24 
REMARK       I    between atoms: N7_28  and  C11_30 
REMARK       I    between atoms: C11_30  and  N8_32 
REMARK   14  A    between atoms: N8_32  and  N9_34 
REMARK       I    between atoms: N9_34  and  C12_36 
REMARK   15  A    between atoms: C12_36  and  C13_38 
ROOT
HETATM    1  C4  UNL     1     -10.288  14.070 -33.966  1.00  0.00     0.100 C 
ENDROOT
BRANCH   1   2
HETATM    2  C3  UNL     1      -9.415  13.211 -34.786  1.00  0.00     0.088 C 
BRANCH   2   3
HETATM    3  C2  UNL     1      -9.010  11.998 -34.025  1.00  0.00     0.081 C 
BRANCH   3   4
HETATM    4  S1  UNL     1      -7.450  11.296 -34.640  1.00  0.00    -0.173 SA
HETATM    5  C1  UNL     1      -6.804  10.044 -33.493  1.00  0.00     0.089 C 
ENDBRANCH   3   4
ENDBRANCH   2   3
ENDBRANCH   1   2
BRANCH   1   6
HETATM    6  N1  UNL     1     -11.567  13.728 -33.993  1.00  0.00    -0.288 N 
ATOM      7  H1  UNL     1     -12.084  13.715 -34.871  1.00  0.00     0.188 HD
BRANCH   6   8
HETATM    8  N2  UNL     1     -12.181  13.391 -32.812  1.00  0.00    -0.299 N 
ATOM      9  H2  UNL     1     -12.125  14.017 -32.009  1.00  0.00     0.187 HD
BRANCH   8  10
HETATM   10  C5  UNL     1     -12.893  12.172 -32.714  1.00  0.00     0.050 A 
HETATM   11  C6  UNL     1     -12.255  10.961 -32.465  1.00  0.00     0.034 A 
HETATM   12  C7  UNL     1     -13.021   9.860 -32.383  1.00  0.00     0.044 A 
HETATM   13  C8  UNL     1     -14.441   9.828 -32.531  1.00  0.00     0.133 A 
HETATM   14  C9  UNL     1     -15.025  11.054 -32.772  1.00  0.00     0.141 A 
HETATM   15  C10 UNL     1     -14.255  12.231 -32.866  1.00  0.00     0.070 A 
BRANCH  13  16
HETATM   16  O1  UNL     1     -15.052   8.633 -32.426  1.00  0.00    -0.217 OA
BRANCH  16  17
HETATM   17  N3  UNL     1     -15.615   7.965 -31.481  1.00  0.00    -0.160 N 
ATOM     18  H3  UNL     1     -16.260   8.459 -30.863  1.00  0.00     0.220 HD
BRANCH  17  19
HETATM   19  N4  UNL     1     -15.418   6.735 -31.271  1.00  0.00    -0.081 N 
BRANCH  19  20
HETATM   20  N5  UNL     1     -16.177   6.041 -30.337  1.00  0.00    -0.302 N 
ATOM     21  H52 UNL     1     -16.800   6.560 -29.717  1.00  0.00     0.181 HD
ATOM     22  H51 UNL     1     -16.117   5.025 -30.265  1.00  0.00     0.181 HD
ENDBRANCH  19  20
BRANCH  19  23
HETATM   23  O2  UNL     1     -14.449   6.071 -31.971  1.00  0.00    -0.252 OA
ATOM     24  H2  UNL     1     -14.559   5.150 -32.173  1.00  0.00     0.248 HD
ENDBRANCH  19  23
ENDBRANCH  17  19
ENDBRANCH  16  17
ENDBRANCH  13  16
BRANCH  14  25
HETATM   25  N6  UNL     1     -16.412  11.264 -32.954  1.00  0.00    -0.113 N 
HETATM   26  O3  UNL     1     -16.774  12.455 -33.280  1.00  0.00    -0.532 OA
HETATM   27  O4  UNL     1     -17.438  10.399 -32.854  1.00  0.00    -0.532 OA
ENDBRANCH  14  25
ENDBRANCH   8  10
ENDBRANCH   6   8
ENDBRANCH   1   6
BRANCH   1  28
HETATM   28  N7  UNL     1      -9.929  15.162 -33.172  1.00  0.00    -0.296 N 
HETATM   29  C11 UNL     1     -10.101  16.492 -33.562  1.00  0.00     0.340 C 
HETATM   30  O5  UNL     1     -10.615  16.734 -34.717  1.00  0.00    -0.245 OA
HETATM   31  N8  UNL     1      -9.740  17.576 -32.746  1.00  0.00    -0.248 N 
ATOM     32  H8  UNL     1     -10.506  18.152 -32.399  1.00  0.00     0.192 HD
ATOM     33  H7  UNL     1      -9.518  14.977 -32.257  1.00  0.00     0.172 HD
BRANCH  31  34
HETATM   34  N9  UNL     1      -8.619  17.908 -32.404  1.00  0.00    -0.262 N 
HETATM   35  C12 UNL     1      -7.959  19.133 -32.356  1.00  0.00     0.275 C 
HETATM   36  O6  UNL     1      -7.658  19.794 -33.406  1.00  0.00    -0.266 OA
ATOM     37  H9  UNL     1      -8.044  17.127 -32.087  1.00  0.00     0.190 HD
BRANCH  35  38
HETATM   38  C13 UNL     1      -7.574  19.730 -31.069  1.00  0.00     0.097 A 
HETATM   39  C14 UNL     1      -8.566  20.279 -30.288  1.00  0.00     0.135 A 
HETATM   40  N10 UNL     1      -9.922  20.271 -30.726  1.00  0.00    -0.082 NA
HETATM   41  N11 UNL     1      -8.252  20.836 -29.101  1.00  0.00    -0.330 N 
HETATM   42  C15 UNL     1      -6.992  20.855 -28.688  1.00  0.00     0.107 A 
ATOM     43  H11 UNL     1      -8.984  21.244 -28.521  1.00  0.00     0.168 HD
HETATM   44  N12 UNL     1      -6.678  21.381 -27.560  1.00  0.00    -0.385 N 
HETATM   45  C16 UNL     1      -5.954  20.320 -29.430  1.00  0.00     0.004 A 
ATOM     46 2H12 UNL     1      -7.444  21.775 -27.012  1.00  0.00     0.157 HD
ATOM     47 1H12 UNL     1      -5.709  21.395 -27.241  1.00  0.00     0.157 HD
HETATM   48  C17 UNL     1      -4.557  20.351 -28.951  1.00  0.00     0.054 C 
HETATM   49  C18 UNL     1      -6.258  19.742 -30.660  1.00  0.00     0.062 A 
HETATM   50 CL1  UNL     1      -4.986  19.095 -31.618  1.00  0.00    -0.082 Cl
ENDBRANCH  35  38
ENDBRANCH  31  34
ENDBRANCH   1  28
TORSDOF 15
ENDMDL
MODEL 4
REMARK VINA RESULT: -8.091027241      7.587     10.773
REMARK  15 active torsions:
REMARK  status: ('A' for Active; 'I' for Inactive)
REMARK    1  A    between atoms: S1_2  and  C2_3 
REMARK    2  A    between atoms: C2_3  and  C3_4 
REMARK    3  A    between atoms: C3_4  and  C4_5 
REMARK    4  A    between atoms: C4_5  and  N1_6 
REMARK    5  A    between atoms: C4_5  and  N7_28 
REMARK    6  A    between atoms: N1_6  and  N2_8 
REMARK    7  A    between atoms: N2_8  and  C5_10 
REMARK    8  A    between atoms: C8_13  and  O1_14 
REMARK    9  A    between atoms: O1_14  and  N3_15 
REMARK   10  A    between atoms: N3_15  and  N4_17 
REMARK   11  A    between atoms: N4_17  and  N5_18 
REMARK   12  A    between atoms: N4_17  and  O2_21 
REMARK   13  A    between atoms: C9_23  and  N6_24 
REMARK       I    between atoms: N7_28  and  C11_30 
REMARK       I    between atoms: C11_30  and  N8_32 
REMARK   14  A    between atoms: N8_32  and  N9_34 
REMARK       I    between atoms: N9_34  and  C12_36 
REMARK   15  A    between atoms: C12_36  and  C13_38 
ROOT
HETATM    1  C4  UNL     1      -5.862  12.260 -37.060  1.00  0.00     0.100 C 
ENDROOT
BRANCH   1   2
HETATM    2  C3  UNL     1      -5.282  11.223 -37.932  1.00  0.00     0.088 C 
BRANCH   2   3
HETATM    3  C2  UNL     1      -4.277  11.817 -38.855  1.00  0.00     0.081 C 
BRANCH   3   4
HETATM    4  S1  UNL     1      -2.579  11.610 -38.238  1.00  0.00    -0.173 SA
HETATM    5  C1  UNL     1      -2.520  10.387 -36.897  1.00  0.00     0.089 C 
ENDBRANCH   3   4
ENDBRANCH   2   3
ENDBRANCH   1   2
BRANCH   1   6
HETATM    6  N1  UNL     1      -6.918  11.859 -36.368  1.00  0.00    -0.288 N 
ATOM      7  H1  UNL     1      -7.762  11.540 -36.844  1.00  0.00     0.188 HD
BRANCH   6   8
HETATM    8  N2  UNL     1      -6.852  11.883 -34.997  1.00  0.00    -0.299 N 
ATOM      9  H2  UNL     1      -6.001  12.197 -34.531  1.00  0.00     0.187 HD
BRANCH   8  10
HETATM   10  C5  UNL     1      -7.969  11.468 -34.233  1.00  0.00     0.050 A 
HETATM   11  C6  UNL     1      -7.987  10.260 -33.545  1.00  0.00     0.034 A 
HETATM   12  C7  UNL     1      -9.094   9.961 -32.843  1.00  0.00     0.044 A 
HETATM   13  C8  UNL     1     -10.257  10.784 -32.743  1.00  0.00     0.133 A 
HETATM   14  C9  UNL     1     -10.187  11.971 -33.440  1.00  0.00     0.141 A 
HETATM   15  C10 UNL     1      -9.045  12.320 -34.189  1.00  0.00     0.070 A 
BRANCH  13  16
HETATM   16  O1  UNL     1     -11.282  10.325 -32.000  1.00  0.00    -0.217 OA
BRANCH  16  17
HETATM   17  N3  UNL     1     -12.151   9.381 -32.111  1.00  0.00    -0.160 N 
ATOM     18  H3  UNL     1     -11.832   8.419 -31.993  1.00  0.00     0.220 HD
BRANCH  17  19
HETATM   19  N4  UNL     1     -13.374   9.574 -32.356  1.00  0.00    -0.081 N 
BRANCH  19  20
HETATM   20  N5  UNL     1     -14.271   8.513 -32.386  1.00  0.00    -0.302 N 
ATOM     21  H52 UNL     1     -15.107   8.552 -31.803  1.00  0.00     0.181 HD
ATOM     22  H51 UNL     1     -14.102   7.702 -32.981  1.00  0.00     0.181 HD
ENDBRANCH  19  20
BRANCH  19  23
HETATM   23  O2  UNL     1     -13.831  10.841 -32.594  1.00  0.00    -0.252 OA
ATOM     24  H2  UNL     1     -14.404  11.263 -31.966  1.00  0.00     0.248 HD
ENDBRANCH  19  23
ENDBRANCH  17  19
ENDBRANCH  16  17
ENDBRANCH  13  16
BRANCH  14  25
HETATM   25  N6  UNL     1     -11.217  12.939 -33.488  1.00  0.00    -0.113 N 
HETATM   26  O3  UNL     1     -11.207  13.737 -34.498  1.00  0.00    -0.532 OA
HETATM   27  O4  UNL     1     -12.238  13.158 -32.639  1.00  0.00    -0.532 OA
ENDBRANCH  14  25
ENDBRANCH   8  10
ENDBRANCH   6   8
ENDBRANCH   1   6
BRANCH   1  28
HETATM   28  N7  UNL     1      -5.428  13.574 -36.871  1.00  0.00    -0.296 N 
HETATM   29  C11 UNL     1      -4.557  13.963 -35.851  1.00  0.00     0.340 C 
HETATM   30  O5  UNL     1      -4.128  13.067 -35.033  1.00  0.00    -0.245 OA
HETATM   31  N8  UNL     1      -4.127  15.288 -35.684  1.00  0.00    -0.248 N 
ATOM     32  H8  UNL     1      -3.136  15.464 -35.849  1.00  0.00     0.192 HD
ATOM     33  H7  UNL     1      -5.767  14.289 -37.515  1.00  0.00     0.172 HD
BRANCH  31  34
HETATM   34  N9  UNL     1      -4.798  16.253 -35.364  1.00  0.00    -0.262 N 
HETATM   35  C12 UNL     1      -5.978  16.801 -35.858  1.00  0.00     0.275 C 
HETATM   36  O6  UNL     1      -6.058  17.336 -37.014  1.00  0.00    -0.266 OA
ATOM     37  H9  UNL     1      -4.416  16.766 -34.569  1.00  0.00     0.190 HD
BRANCH  35  38
HETATM   38  C13 UNL     1      -7.209  16.788 -35.053  1.00  0.00     0.097 A 
HETATM   39  C14 UNL     1      -8.161  15.838 -35.342  1.00  0.00     0.135 A 
HETATM   40  N10 UNL     1      -7.956  14.903 -36.398  1.00  0.00    -0.082 NA
HETATM   41  N11 UNL     1      -9.302  15.795 -34.626  1.00  0.00    -0.330 N 
HETATM   42  C15 UNL     1      -9.506  16.664 -33.646  1.00  0.00     0.107 A 
ATOM     43  H11 UNL     1     -10.010  15.092 -34.839  1.00  0.00     0.168 HD
HETATM   44  N12 UNL     1     -10.587  16.634 -32.955  1.00  0.00    -0.385 N 
HETATM   45  C16 UNL     1      -8.586  17.641 -33.311  1.00  0.00     0.004 A 
ATOM     46 2H12 UNL     1     -11.266  15.913 -33.202  1.00  0.00     0.157 HD
ATOM     47 1H12 UNL     1     -10.744  17.302 -32.200  1.00  0.00     0.157 HD
HETATM   48  C17 UNL     1      -8.832  18.600 -32.214  1.00  0.00     0.054 C 
HETATM   49  C18 UNL     1      -7.402  17.704 -34.040  1.00  0.00     0.062 A 
HETATM   50 CL1  UNL     1      -6.251  18.925 -33.666  1.00  0.00    -0.082 Cl
ENDBRANCH  35  38
ENDBRANCH  31  34
ENDBRANCH   1  28
TORSDOF 15
ENDMDL
MODEL 5
REMARK VINA RESULT: -7.997228978      2.484      3.303
REMARK  15 active torsions:
REMARK  status: ('A' for Active; 'I' for Inactive)
REMARK    1  A    between atoms: S1_2  and  C2_3 
REMARK    2  A    between atoms: C2_3  and  C3_4 
REMARK    3  A    between atoms: C3_4  and  C4_5 
REMARK    4  A    between atoms: C4_5  and  N1_6 
REMARK    5  A    between atoms: C4_5  and  N7_28 
REMARK    6  A    between atoms: N1_6  and  N2_8 
REMARK    7  A    between atoms: N2_8  and  C5_10 
REMARK    8  A    between atoms: C8_13  and  O1_14 
REMARK    9  A    between atoms: O1_14  and  N3_15 
REMARK   10  A    between atoms: N3_15  and  N4_17 
REMARK   11  A    between atoms: N4_17  and  N5_18 
REMARK   12  A    between atoms: N4_17  and  O2_21 
REMARK   13  A    between atoms: C9_23  and  N6_24 
REMARK       I    between atoms: N7_28  and  C11_30 
REMARK       I    between atoms: C11_30  and  N8_32 
REMARK   14  A    between atoms: N8_32  and  N9_34 
REMARK       I    between atoms: N9_34  and  C12_36 
REMARK   15  A    between atoms: C12_36  and  C13_38 
ROOT
HETATM    1  C4  UNL     1     -16.507  12.616 -33.588  1.00  0.00     0.100 C 
ENDROOT
BRANCH   1   2
HETATM    2  C3  UNL     1     -17.448  11.903 -34.472  1.00  0.00     0.088 C 
BRANCH   2   3
HETATM    3  C2  UNL     1     -17.565  12.598 -35.782  1.00  0.00     0.081 C 
BRANCH   3   4
HETATM    4  S1  UNL     1     -18.935  13.792 -35.800  1.00  0.00    -0.173 SA
HETATM    5  C1  UNL     1     -19.060  14.613 -37.415  1.00  0.00     0.089 C 
ENDBRANCH   3   4
ENDBRANCH   2   3
ENDBRANCH   1   2
BRANCH   1   6
HETATM    6  N1  UNL     1     -17.050  13.065 -32.467  1.00  0.00    -0.288 N 
ATOM      7  H1  UNL     1     -16.467  13.306 -31.666  1.00  0.00     0.188 HD
BRANCH   6   8
HETATM    8  N2  UNL     1     -18.415  13.200 -32.407  1.00  0.00    -0.299 N 
ATOM      9  H2  UNL     1     -19.015  12.580 -32.951  1.00  0.00     0.187 HD
BRANCH   8  10
HETATM   10  C5  UNL     1     -18.986  14.203 -31.588  1.00  0.00     0.050 A 
HETATM   11  C6  UNL     1     -18.585  15.533 -31.659  1.00  0.00     0.034 A 
HETATM   12  C7  UNL     1     -19.195  16.410 -30.842  1.00  0.00     0.044 A 
HETATM   13  C8  UNL     1     -20.223  16.089 -29.904  1.00  0.00     0.133 A 
HETATM   14  C9  UNL     1     -20.585  14.760 -29.875  1.00  0.00     0.141 A 
HETATM   15  C10 UNL     1     -19.969  13.810 -30.715  1.00  0.00     0.070 A 
BRANCH  13  16
HETATM   16  O1  UNL     1     -20.719  17.093 -29.157  1.00  0.00    -0.217 OA
BRANCH  16  17
HETATM   17  N3  UNL     1     -20.809  18.373 -29.274  1.00  0.00    -0.160 N 
ATOM     18  H3  UNL     1     -21.634  18.755 -29.736  1.00  0.00     0.220 HD
BRANCH  17  19
HETATM   19  N4  UNL     1     -19.937  19.182 -28.852  1.00  0.00    -0.081 N 
BRANCH  19  20
HETATM   20  N5  UNL     1     -19.382  20.136 -29.696  1.00  0.00    -0.302 N 
ATOM     21  H52 UNL     1     -18.929  19.835 -30.559  1.00  0.00     0.181 HD
ATOM     22  H51 UNL     1     -19.423  21.128 -29.462  1.00  0.00     0.181 HD
ENDBRANCH  19  20
BRANCH  19  23
HETATM   23  O2  UNL     1     -19.528  19.126 -27.548  1.00  0.00    -0.252 OA
ATOM     24  H2  UNL     1     -18.926  18.447 -27.269  1.00  0.00     0.248 HD
ENDBRANCH  19  23
ENDBRANCH  17  19
ENDBRANCH  16  17
ENDBRANCH  13  16
BRANCH  14  25
HETATM   25  N6  UNL     1     -21.576  14.212 -29.027  1.00  0.00    -0.113 N 
HETATM   26  O3  UNL     1     -21.160  13.653 -27.945  1.00  0.00    -0.532 OA
HETATM   27  O4  UNL     1     -22.915  14.194 -29.161  1.00  0.00    -0.532 OA
ENDBRANCH  14  25
ENDBRANCH   8  10
ENDBRANCH   6   8
ENDBRANCH   1   6
BRANCH   1  28
HETATM   28  N7  UNL     1     -15.145  12.849 -33.784  1.00  0.00    -0.296 N 
HETATM   29  C11 UNL     1     -14.136  12.191 -33.075  1.00  0.00     0.340 C 
HETATM   30  O5  UNL     1     -14.474  11.321 -32.189  1.00  0.00    -0.245 OA
HETATM   31  N8  UNL     1     -12.771  12.435 -33.293  1.00  0.00    -0.248 N 
ATOM     32  H8  UNL     1     -12.235  11.666 -33.693  1.00  0.00     0.192 HD
ATOM     33  H7  UNL     1     -14.870  13.540 -34.483  1.00  0.00     0.172 HD
BRANCH  31  34
HETATM   34  N9  UNL     1     -12.152  13.458 -33.058  1.00  0.00    -0.262 N 
HETATM   35  C12 UNL     1     -10.916  13.942 -33.476  1.00  0.00     0.275 C 
HETATM   36  O6  UNL     1      -9.813  13.393 -33.142  1.00  0.00    -0.266 OA
ATOM     37  H9  UNL     1     -12.641  14.091 -32.425  1.00  0.00     0.190 HD
BRANCH  35  38
HETATM   38  C13 UNL     1     -10.826  15.132 -34.336  1.00  0.00     0.097 A 
HETATM   39  C14 UNL     1     -10.897  16.369 -33.738  1.00  0.00     0.135 A 
HETATM   40  N10 UNL     1     -11.062  16.485 -32.327  1.00  0.00    -0.082 NA
HETATM   41  N11 UNL     1     -10.819  17.482 -34.493  1.00  0.00    -0.330 N 
HETATM   42  C15 UNL     1     -10.673  17.386 -35.808  1.00  0.00     0.107 A 
ATOM     43  H11 UNL     1     -10.873  18.401 -34.053  1.00  0.00     0.168 HD
HETATM   44  N12 UNL     1     -10.596  18.438 -36.539  1.00  0.00    -0.385 N 
HETATM   45  C16 UNL     1     -10.596  16.170 -36.463  1.00  0.00     0.004 A 
ATOM     46 2H12 UNL     1     -10.653  19.335 -36.056  1.00  0.00     0.157 HD
ATOM     47 1H12 UNL     1     -10.483  18.364 -37.550  1.00  0.00     0.157 HD
HETATM   48  C17 UNL     1     -10.432  16.085 -37.929  1.00  0.00     0.054 C 
HETATM   49  C18 UNL     1     -10.677  15.008 -35.701  1.00  0.00     0.062 A 
HETATM   50 CL1  UNL     1     -10.613  13.483 -36.490  1.00  0.00    -0.082 Cl
ENDBRANCH  35  38
ENDBRANCH  31  34
ENDBRANCH   1  28
TORSDOF 15
ENDMDL
