MODEL 1
REMARK VINA RESULT: -7.488848092      0.000      0.000
REMARK  10 active torsions:
REMARK  status: ('A' for Active; 'I' for Inactive)
REMARK    1  A    between atoms: C6_7  and  O1_8 
REMARK    2  A    between atoms: O1_8  and  C7_9 
REMARK    3  A    between atoms: C8_10  and  O2_11 
REMARK    4  A    between atoms: C9_14  and  O4_15 
REMARK    5  A    between atoms: O4_15  and  C10_16 
REMARK    6  A    between atoms: C12_19  and  O6_20 
REMARK    7  A    between atoms: C13_22  and  O7_23 
REMARK    8  A    between atoms: C14_25  and  N2_26 
REMARK       I    between atoms: N2_26  and  C15_28 
REMARK    9  A    between atoms: C15_28  and  C16_30 
REMARK   10  A    between atoms: C22_36  and  O9_37 
ROOT
HETATM    1  C10 UNL     1      26.176  18.670  20.864  1.00  0.00     0.288 C 
HETATM    2  O5  UNL     1      25.065  19.419  20.487  1.00  0.00    -0.356 OA
HETATM    3  C11 UNL     1      25.168  20.064  19.300  1.00  0.00     0.205 C 
HETATM    4  C12 UNL     1      26.102  19.591  18.275  1.00  0.00     0.172 C 
HETATM    5  C13 UNL     1      27.072  18.520  18.641  1.00  0.00     0.176 C 
HETATM    6  C14 UNL     1      26.431  17.706  19.741  1.00  0.00     0.171 C 
ENDROOT
BRANCH   1   7
HETATM    7  O4  UNL     1      27.217  19.583  20.994  1.00  0.00    -0.327 OA
BRANCH   7   8
HETATM    8  C9  UNL     1      28.122  19.304  21.975  1.00  0.00     0.297 C 
HETATM    9  O3  UNL     1      27.634  19.528  23.266  1.00  0.00    -0.326 OA
HETATM   10  C8  UNL     1      28.713  19.259  24.072  1.00  0.00     0.292 C 
HETATM   11  C7  UNL     1      29.989  19.629  23.306  1.00  0.00     0.217 C 
HETATM   12  C22 UNL     1      29.334  20.205  22.017  1.00  0.00     0.207 C 
BRANCH  10  13
HETATM   13  O2  UNL     1      28.684  20.020  25.260  1.00  0.00    -0.368 OA
ATOM     14  H2  UNL     1      29.148  19.533  25.931  1.00  0.00     0.212 HD
ENDBRANCH  10  13
BRANCH  11  15
HETATM   15  O1  UNL     1      30.677  18.532  22.910  1.00  0.00    -0.336 OA
BRANCH  15  16
HETATM   16  C6  UNL     1      30.680  17.212  23.142  1.00  0.00     0.093 A 
HETATM   17  C1  UNL     1      30.994  16.595  24.326  1.00  0.00     0.079 A 
HETATM   18  N1  UNL     1      31.366  17.389  25.466  1.00  0.00    -0.100 NA
HETATM   19  C2  UNL     1      30.979  15.208  24.508  1.00  0.00     0.029 A 
HETATM   20  C3  UNL     1      30.631  14.401  23.453  1.00  0.00     0.002 A 
HETATM   21  C4  UNL     1      30.307  14.984  22.244  1.00  0.00     0.003 A 
HETATM   22  C5  UNL     1      30.326  16.331  22.081  1.00  0.00     0.039 A 
ENDBRANCH  15  16
ENDBRANCH  11  15
BRANCH  12  23
HETATM   23  O9  UNL     1      30.185  20.081  20.953  1.00  0.00    -0.388 OA
ATOM     24  H9  UNL     1      29.811  20.489  20.181  1.00  0.00     0.210 HD
ENDBRANCH  12  23
ENDBRANCH   7   8
ENDBRANCH   1   7
BRANCH   6  25
HETATM   25  N2  UNL     1      27.105  16.516  20.090  1.00  0.00    -0.345 N 
HETATM   26  C15 UNL     1      26.427  15.312  20.465  1.00  0.00     0.252 C 
HETATM   27  O8  UNL     1      25.156  15.359  20.472  1.00  0.00    -0.268 OA
ATOM     28  H2  UNL     1      28.125  16.514  20.073  1.00  0.00     0.163 HD
BRANCH  26  29
HETATM   29  C16 UNL     1      27.109  14.097  20.822  1.00  0.00     0.032 A 
HETATM   30  C17 UNL     1      27.909  13.471  19.888  1.00  0.00     0.017 A 
HETATM   31  C18 UNL     1      28.598  12.303  20.147  1.00  0.00     0.001 A 
HETATM   32  C19 UNL     1      28.505  11.704  21.386  1.00  0.00     0.000 A 
HETATM   33  C20 UNL     1      27.708  12.322  22.326  1.00  0.00     0.001 A 
HETATM   34  C21 UNL     1      27.015  13.506  22.052  1.00  0.00     0.017 A 
ENDBRANCH  26  29
ENDBRANCH   6  25
BRANCH   5  35
HETATM   35  O7  UNL     1      27.378  17.683  17.571  1.00  0.00    -0.391 OA
ATOM     36  H7  UNL     1      27.057  18.016  16.741  1.00  0.00     0.210 HD
ENDBRANCH   5  35
BRANCH   4  37
HETATM   37  O6  UNL     1      25.423  19.134  17.119  1.00  0.00    -0.391 OA
ATOM     38  H6  UNL     1      25.261  19.842  16.506  1.00  0.00     0.210 HD
ENDBRANCH   4  37
TORSDOF 10
ENDMDL
MODEL 2
REMARK VINA RESULT: -7.442588899      1.386      1.885
REMARK  10 active torsions:
REMARK  status: ('A' for Active; 'I' for Inactive)
REMARK    1  A    between atoms: C6_7  and  O1_8 
REMARK    2  A    between atoms: O1_8  and  C7_9 
REMARK    3  A    between atoms: C8_10  and  O2_11 
REMARK    4  A    between atoms: C9_14  and  O4_15 
REMARK    5  A    between atoms: O4_15  and  C10_16 
REMARK    6  A    between atoms: C12_19  and  O6_20 
REMARK    7  A    between atoms: C13_22  and  O7_23 
REMARK    8  A    between atoms: C14_25  and  N2_26 
REMARK       I    between atoms: N2_26  and  C15_28 
REMARK    9  A    between atoms: C15_28  and  C16_30 
REMARK   10  A    between atoms: C22_36  and  O9_37 
ROOT
HETATM    1  C10 UNL     1      25.577  18.164  20.999  1.00  0.00     0.288 C 
HETATM    2  O5  UNL     1      24.474  18.900  20.576  1.00  0.00    -0.356 OA
HETATM    3  C11 UNL     1      24.723  19.844  19.637  1.00  0.00     0.205 C 
HETATM    4  C12 UNL     1      25.894  19.732  18.763  1.00  0.00     0.172 C 
HETATM    5  C13 UNL     1      26.904  18.679  19.065  1.00  0.00     0.176 C 
HETATM    6  C14 UNL     1      26.172  17.556  19.761  1.00  0.00     0.171 C 
ENDROOT
BRANCH   1   7
HETATM    7  O4  UNL     1      26.444  19.086  21.577  1.00  0.00    -0.327 OA
BRANCH   7   8
HETATM    8  C9  UNL     1      27.460  18.552  22.313  1.00  0.00     0.297 C 
HETATM    9  O3  UNL     1      27.033  17.942  23.497  1.00  0.00    -0.326 OA
HETATM   10  C8  UNL     1      28.202  17.550  24.099  1.00  0.00     0.292 C 
HETATM   11  C7  UNL     1      29.299  18.553  23.720  1.00  0.00     0.217 C 
HETATM   12  C22 UNL     1      28.433  19.549  22.895  1.00  0.00     0.207 C 
BRANCH  10  13
HETATM   13  O2  UNL     1      28.091  17.540  25.507  1.00  0.00    -0.368 OA
ATOM     14  H2  UNL     1      27.179  17.391  25.727  1.00  0.00     0.212 HD
ENDBRANCH  10  13
BRANCH  11  15
HETATM   15  O1  UNL     1      30.186  18.025  22.845  1.00  0.00    -0.336 OA
BRANCH  15  16
HETATM   16  C6  UNL     1      30.426  16.851  22.245  1.00  0.00     0.093 A 
HETATM   17  C1  UNL     1      30.336  16.590  20.902  1.00  0.00     0.079 A 
HETATM   18  N1  UNL     1      29.951  17.639  19.997  1.00  0.00    -0.100 NA
HETATM   19  C2  UNL     1      30.600  15.339  20.333  1.00  0.00     0.029 A 
HETATM   20  C3  UNL     1      30.972  14.300  21.150  1.00  0.00     0.002 A 
HETATM   21  C4  UNL     1      31.075  14.523  22.509  1.00  0.00     0.003 A 
HETATM   22  C5  UNL     1      30.816  15.741  23.047  1.00  0.00     0.039 A 
ENDBRANCH  15  16
ENDBRANCH  11  15
BRANCH  12  23
HETATM   23  O9  UNL     1      29.207  20.207  21.978  1.00  0.00    -0.388 OA
ATOM     24  H9  UNL     1      29.695  20.906  22.397  1.00  0.00     0.210 HD
ENDBRANCH  12  23
ENDBRANCH   7   8
ENDBRANCH   1   7
BRANCH   6  25
HETATM   25  N2  UNL     1      26.914  16.370  19.951  1.00  0.00    -0.345 N 
HETATM   26  C15 UNL     1      26.320  15.127  20.344  1.00  0.00     0.252 C 
HETATM   27  O8  UNL     1      25.060  15.136  20.519  1.00  0.00    -0.268 OA
ATOM     28  H2  UNL     1      27.923  16.400  19.802  1.00  0.00     0.163 HD
BRANCH  26  29
HETATM   29  C16 UNL     1      27.072  13.917  20.539  1.00  0.00     0.032 A 
HETATM   30  C17 UNL     1      27.323  13.475  21.822  1.00  0.00     0.017 A 
HETATM   31  C18 UNL     1      28.035  12.326  22.098  1.00  0.00     0.001 A 
HETATM   32  C19 UNL     1      28.537  11.558  21.068  1.00  0.00     0.000 A 
HETATM   33  C20 UNL     1      28.292  11.992  19.782  1.00  0.00     0.001 A 
HETATM   34  C21 UNL     1      27.567  13.158  19.515  1.00  0.00     0.017 A 
ENDBRANCH  26  29
ENDBRANCH   6  25
BRANCH   5  35
HETATM   35  O7  UNL     1      27.522  18.183  17.920  1.00  0.00    -0.391 OA
ATOM     36  H7  UNL     1      28.197  17.543  18.115  1.00  0.00     0.210 HD
ENDBRANCH   5  35
BRANCH   4  37
HETATM   37  O6  UNL     1      25.522  19.550  17.410  1.00  0.00    -0.391 OA
ATOM     38  H6  UNL     1      26.270  19.334  16.866  1.00  0.00     0.210 HD
ENDBRANCH   4  37
TORSDOF 10
ENDMDL
MODEL 3
REMARK VINA RESULT: -7.431496663      1.040      1.334
REMARK  10 active torsions:
REMARK  status: ('A' for Active; 'I' for Inactive)
REMARK    1  A    between atoms: C6_7  and  O1_8 
REMARK    2  A    between atoms: O1_8  and  C7_9 
REMARK    3  A    between atoms: C8_10  and  O2_11 
REMARK    4  A    between atoms: C9_14  and  O4_15 
REMARK    5  A    between atoms: O4_15  and  C10_16 
REMARK    6  A    between atoms: C12_19  and  O6_20 
REMARK    7  A    between atoms: C13_22  and  O7_23 
REMARK    8  A    between atoms: C14_25  and  N2_26 
REMARK       I    between atoms: N2_26  and  C15_28 
REMARK    9  A    between atoms: C15_28  and  C16_30 
REMARK   10  A    between atoms: C22_36  and  O9_37 
ROOT
HETATM    1  C10 UNL     1      26.111  18.566  20.893  1.00  0.00     0.288 C 
HETATM    2  O5  UNL     1      25.009  19.324  20.508  1.00  0.00    -0.356 OA
HETATM    3  C11 UNL     1      25.135  19.988  19.335  1.00  0.00     0.205 C 
HETATM    4  C12 UNL     1      26.088  19.530  18.319  1.00  0.00     0.172 C 
HETATM    5  C13 UNL     1      27.048  18.451  18.685  1.00  0.00     0.176 C 
HETATM    6  C14 UNL     1      26.386  17.621  19.760  1.00  0.00     0.171 C 
ENDROOT
BRANCH   1   7
HETATM    7  O4  UNL     1      27.151  19.474  21.058  1.00  0.00    -0.327 OA
BRANCH   7   8
HETATM    8  C9  UNL     1      28.120  19.102  21.943  1.00  0.00     0.297 C 
HETATM    9  O3  UNL     1      27.679  19.060  23.269  1.00  0.00    -0.326 OA
HETATM   10  C8  UNL     1      28.811  18.741  23.977  1.00  0.00     0.292 C 
HETATM   11  C7  UNL     1      30.020  19.339  23.245  1.00  0.00     0.217 C 
HETATM   12  C22 UNL     1      29.264  20.076  22.102  1.00  0.00     0.207 C 
BRANCH  10  13
HETATM   13  O2  UNL     1      28.785  19.280  25.282  1.00  0.00    -0.368 OA
ATOM     14  H2  UNL     1      28.376  20.136  25.237  1.00  0.00     0.212 HD
ENDBRANCH  10  13
BRANCH  11  15
HETATM   15  O1  UNL     1      30.765  18.386  22.638  1.00  0.00    -0.336 OA
BRANCH  15  16
HETATM   16  C6  UNL     1      30.767  17.053  22.497  1.00  0.00     0.093 A 
HETATM   17  C1  UNL     1      30.528  16.357  21.340  1.00  0.00     0.079 A 
HETATM   18  N1  UNL     1      30.241  17.072  20.125  1.00  0.00    -0.100 NA
HETATM   19  C2  UNL     1      30.545  14.960  21.254  1.00  0.00     0.029 A 
HETATM   20  C3  UNL     1      30.814  14.227  22.383  1.00  0.00     0.002 A 
HETATM   21  C4  UNL     1      31.060  14.890  23.568  1.00  0.00     0.003 A 
HETATM   22  C5  UNL     1      31.041  16.245  23.637  1.00  0.00     0.039 A 
ENDBRANCH  15  16
ENDBRANCH  11  15
BRANCH  12  23
HETATM   23  O9  UNL     1      30.070  20.207  21.005  1.00  0.00    -0.388 OA
ATOM     24  H9  UNL     1      29.641  20.734  20.340  1.00  0.00     0.210 HD
ENDBRANCH  12  23
ENDBRANCH   7   8
ENDBRANCH   1   7
BRANCH   6  25
HETATM   25  N2  UNL     1      27.051  16.423  20.101  1.00  0.00    -0.345 N 
HETATM   26  C15 UNL     1      26.364  15.227  20.486  1.00  0.00     0.252 C 
HETATM   27  O8  UNL     1      25.094  15.288  20.508  1.00  0.00    -0.268 OA
ATOM     28  H2  UNL     1      28.071  16.410  20.072  1.00  0.00     0.163 HD
BRANCH  26  29
HETATM   29  C16 UNL     1      27.038  14.005  20.834  1.00  0.00     0.032 A 
HETATM   30  C17 UNL     1      27.614  13.242  19.840  1.00  0.00     0.017 A 
HETATM   31  C18 UNL     1      28.278  12.058  20.087  1.00  0.00     0.001 A 
HETATM   32  C19 UNL     1      28.389  11.582  21.377  1.00  0.00     0.000 A 
HETATM   33  C20 UNL     1      27.816  12.337  22.378  1.00  0.00     0.001 A 
HETATM   34  C21 UNL     1      27.146  13.537  22.115  1.00  0.00     0.017 A 
ENDBRANCH  26  29
ENDBRANCH   6  25
BRANCH   5  35
HETATM   35  O7  UNL     1      27.373  17.632  17.607  1.00  0.00    -0.391 OA
ATOM     36  H7  UNL     1      27.249  16.709  17.797  1.00  0.00     0.210 HD
ENDBRANCH   5  35
BRANCH   4  37
HETATM   37  O6  UNL     1      25.430  19.094  17.144  1.00  0.00    -0.391 OA
ATOM     38  H6  UNL     1      26.026  18.649  16.553  1.00  0.00     0.210 HD
ENDBRANCH   4  37
TORSDOF 10
ENDMDL
MODEL 4
REMARK VINA RESULT: -7.375845491      1.355      1.546
REMARK  10 active torsions:
REMARK  status: ('A' for Active; 'I' for Inactive)
REMARK    1  A    between atoms: C6_7  and  O1_8 
REMARK    2  A    between atoms: O1_8  and  C7_9 
REMARK    3  A    between atoms: C8_10  and  O2_11 
REMARK    4  A    between atoms: C9_14  and  O4_15 
REMARK    5  A    between atoms: O4_15  and  C10_16 
REMARK    6  A    between atoms: C12_19  and  O6_20 
REMARK    7  A    between atoms: C13_22  and  O7_23 
REMARK    8  A    between atoms: C14_25  and  N2_26 
REMARK       I    between atoms: N2_26  and  C15_28 
REMARK    9  A    between atoms: C15_28  and  C16_30 
REMARK   10  A    between atoms: C22_36  and  O9_37 
ROOT
HETATM    1  C10 UNL     1      25.837  18.459  20.853  1.00  0.00     0.288 C 
HETATM    2  O5  UNL     1      24.698  19.175  20.496  1.00  0.00    -0.356 OA
HETATM    3  C11 UNL     1      24.839  20.016  19.444  1.00  0.00     0.205 C 
HETATM    4  C12 UNL     1      25.894  19.794  18.450  1.00  0.00     0.172 C 
HETATM    5  C13 UNL     1      26.923  18.753  18.731  1.00  0.00     0.176 C 
HETATM    6  C14 UNL     1      26.270  17.720  19.619  1.00  0.00     0.171 C 
ENDROOT
BRANCH   1   7
HETATM    7  O4  UNL     1      26.777  19.413  21.227  1.00  0.00    -0.327 OA
BRANCH   7   8
HETATM    8  C9  UNL     1      27.696  19.001  22.147  1.00  0.00     0.297 C 
HETATM    9  O3  UNL     1      27.701  19.770  23.315  1.00  0.00    -0.326 OA
HETATM   10  C8  UNL     1      28.730  19.234  24.051  1.00  0.00     0.292 C 
HETATM   11  C7  UNL     1      29.796  18.714  23.079  1.00  0.00     0.217 C 
HETATM   12  C22 UNL     1      29.141  19.170  21.742  1.00  0.00     0.207 C 
BRANCH  10  13
HETATM   13  O2  UNL     1      29.336  20.197  24.886  1.00  0.00    -0.368 OA
ATOM     14  H2  UNL     1      28.752  20.944  24.944  1.00  0.00     0.212 HD
ENDBRANCH  10  13
BRANCH  11  15
HETATM   15  O1  UNL     1      29.822  17.362  23.033  1.00  0.00    -0.336 OA
BRANCH  15  16
HETATM   16  C6  UNL     1      29.406  16.325  23.774  1.00  0.00     0.093 A 
HETATM   17  C1  UNL     1      29.685  15.001  23.550  1.00  0.00     0.079 A 
HETATM   18  N1  UNL     1      30.498  14.625  22.425  1.00  0.00    -0.100 NA
HETATM   19  C2  UNL     1      29.220  13.960  24.361  1.00  0.00     0.029 A 
HETATM   20  C3  UNL     1      28.439  14.261  25.450  1.00  0.00     0.002 A 
HETATM   21  C4  UNL     1      28.137  15.583  25.710  1.00  0.00     0.003 A 
HETATM   22  C5  UNL     1      28.594  16.582  24.914  1.00  0.00     0.039 A 
ENDBRANCH  15  16
ENDBRANCH  11  15
BRANCH  12  23
HETATM   23  O9  UNL     1      29.552  18.368  20.713  1.00  0.00    -0.388 OA
ATOM     24  H9  UNL     1      29.071  18.574  19.920  1.00  0.00     0.210 HD
ENDBRANCH  12  23
ENDBRANCH   7   8
ENDBRANCH   1   7
BRANCH   6  25
HETATM   25  N2  UNL     1      27.018  16.543  19.835  1.00  0.00    -0.345 N 
HETATM   26  C15 UNL     1      26.436  15.317  20.294  1.00  0.00     0.252 C 
HETATM   27  O8  UNL     1      25.182  15.333  20.504  1.00  0.00    -0.268 OA
ATOM     28  H2  UNL     1      28.022  16.566  19.656  1.00  0.00     0.163 HD
BRANCH  26  29
HETATM   29  C16 UNL     1      27.193  14.115  20.516  1.00  0.00     0.032 A 
HETATM   30  C17 UNL     1      28.211  13.785  19.644  1.00  0.00     0.017 A 
HETATM   31  C18 UNL     1      28.986  12.652  19.784  1.00  0.00     0.001 A 
HETATM   32  C19 UNL     1      28.760  11.783  20.831  1.00  0.00     0.000 A 
HETATM   33  C20 UNL     1      27.745  12.103  21.707  1.00  0.00     0.001 A 
HETATM   34  C21 UNL     1      26.967  13.256  21.556  1.00  0.00     0.017 A 
ENDBRANCH  26  29
ENDBRANCH   6  25
BRANCH   5  35
HETATM   35  O7  UNL     1      27.390  18.134  17.575  1.00  0.00    -0.391 OA
ATOM     36  H7  UNL     1      28.001  17.430  17.757  1.00  0.00     0.210 HD
ENDBRANCH   5  35
BRANCH   4  37
HETATM   37  O6  UNL     1      25.356  19.488  17.177  1.00  0.00    -0.391 OA
ATOM     38  H6  UNL     1      25.988  19.641  16.484  1.00  0.00     0.210 HD
ENDBRANCH   4  37
TORSDOF 10
ENDMDL
MODEL 5
REMARK VINA RESULT: -7.343187711      2.142      5.764
REMARK  10 active torsions:
REMARK  status: ('A' for Active; 'I' for Inactive)
REMARK    1  A    between atoms: C6_7  and  O1_8 
REMARK    2  A    between atoms: O1_8  and  C7_9 
REMARK    3  A    between atoms: C8_10  and  O2_11 
REMARK    4  A    between atoms: C9_14  and  O4_15 
REMARK    5  A    between atoms: O4_15  and  C10_16 
REMARK    6  A    between atoms: C12_19  and  O6_20 
REMARK    7  A    between atoms: C13_22  and  O7_23 
REMARK    8  A    between atoms: C14_25  and  N2_26 
REMARK       I    between atoms: N2_26  and  C15_28 
REMARK    9  A    between atoms: C15_28  and  C16_30 
REMARK   10  A    between atoms: C22_36  and  O9_37 
ROOT
HETATM    1  C10 UNL     1      29.263  18.238  22.490  1.00  0.00     0.288 C 
HETATM    2  O5  UNL     1      29.829  19.368  23.074  1.00  0.00    -0.356 OA
HETATM    3  C11 UNL     1      29.682  19.470  24.417  1.00  0.00     0.205 C 
HETATM    4  C12 UNL     1      29.448  18.275  25.232  1.00  0.00     0.172 C 
HETATM    5  C13 UNL     1      29.174  16.986  24.537  1.00  0.00     0.176 C 
HETATM    6  C14 UNL     1      29.865  17.057  23.195  1.00  0.00     0.171 C 
ENDROOT
BRANCH   1   7
HETATM    7  O4  UNL     1      27.898  18.333  22.737  1.00  0.00    -0.327 OA
BRANCH   7   8
HETATM    8  C9  UNL     1      27.089  17.837  21.757  1.00  0.00     0.297 C 
HETATM    9  O3  UNL     1      26.002  18.663  21.457  1.00  0.00    -0.326 OA
HETATM   10  C8  UNL     1      25.300  17.947  20.519  1.00  0.00     0.292 C 
HETATM   11  C7  UNL     1      25.491  16.454  20.811  1.00  0.00     0.217 C 
HETATM   12  C22 UNL     1      26.341  16.574  22.110  1.00  0.00     0.207 C 
BRANCH  10  13
HETATM   13  O2  UNL     1      23.917  18.226  20.570  1.00  0.00    -0.368 OA
ATOM     14  H2  UNL     1      23.699  18.762  19.817  1.00  0.00     0.212 HD
ENDBRANCH  10  13
BRANCH  11  15
HETATM   15  O1  UNL     1      26.295  15.859  19.900  1.00  0.00    -0.336 OA
BRANCH  15  16
HETATM   16  C6  UNL     1      26.671  14.620  19.551  1.00  0.00     0.093 A 
HETATM   17  C1  UNL     1      25.962  13.465  19.761  1.00  0.00     0.079 A 
HETATM   18  N1  UNL     1      24.684  13.523  20.417  1.00  0.00    -0.100 NA
HETATM   19  C2  UNL     1      26.409  12.197  19.373  1.00  0.00     0.029 A 
HETATM   20  C3  UNL     1      27.623  12.082  18.743  1.00  0.00     0.002 A 
HETATM   21  C4  UNL     1      28.367  13.222  18.512  1.00  0.00     0.003 A 
HETATM   22  C5  UNL     1      27.922  14.445  18.894  1.00  0.00     0.039 A 
ENDBRANCH  15  16
ENDBRANCH  11  15
BRANCH  12  23
HETATM   23  O9  UNL     1      27.123  15.463  22.272  1.00  0.00    -0.388 OA
ATOM     24  H9  UNL     1      26.593  14.721  22.538  1.00  0.00     0.210 HD
ENDBRANCH  12  23
ENDBRANCH   7   8
ENDBRANCH   1   7
BRANCH   6  25
HETATM   25  N2  UNL     1      29.897  15.851  22.462  1.00  0.00    -0.345 N 
HETATM   26  C15 UNL     1      31.006  14.945  22.492  1.00  0.00     0.252 C 
HETATM   27  O8  UNL     1      31.988  15.280  23.227  1.00  0.00    -0.268 OA
ATOM     28  H2  UNL     1      29.092  15.614  21.883  1.00  0.00     0.163 HD
BRANCH  26  29
HETATM   29  C16 UNL     1      31.044  13.715  21.747  1.00  0.00     0.032 A 
HETATM   30  C17 UNL     1      30.042  12.784  21.926  1.00  0.00     0.017 A 
HETATM   31  C18 UNL     1      30.002  11.580  21.253  1.00  0.00     0.001 A 
HETATM   32  C19 UNL     1      30.995  11.258  20.351  1.00  0.00     0.000 A 
HETATM   33  C20 UNL     1      32.001  12.182  20.166  1.00  0.00     0.001 A 
HETATM   34  C21 UNL     1      32.030  13.399  20.853  1.00  0.00     0.017 A 
ENDBRANCH  26  29
ENDBRANCH   6  25
BRANCH   5  35
HETATM   35  O7  UNL     1      29.652  15.884  25.241  1.00  0.00    -0.391 OA
ATOM     36  H7  UNL     1      30.213  15.327  24.714  1.00  0.00     0.210 HD
ENDBRANCH   5  35
BRANCH   4  37
HETATM   37  O6  UNL     1      30.523  18.028  26.119  1.00  0.00    -0.391 OA
ATOM     38  H6  UNL     1      30.626  18.732  26.750  1.00  0.00     0.210 HD
ENDBRANCH   4  37
TORSDOF 10
ENDMDL
