MODEL 1
REMARK VINA RESULT: -4.770841684      0.000      0.000
REMARK  1 active torsions:
REMARK  status: ('A' for Active; 'I' for Inactive)
REMARK    1  A    between atoms: O1_2  and  C2_3 
ROOT
HETATM    1  C2  UNL     1     -36.520 -21.719  20.920  1.00  0.00     0.159 C 
HETATM    2  C3  UNL     1     -36.307 -20.977  19.639  1.00  0.00     0.042 C 
HETATM    3  C4  UNL     1     -35.006 -20.308  19.484  1.00  0.00     0.047 C 
HETATM    4  C5  UNL     1     -34.146 -20.159  20.672  1.00  0.00     0.060 C 
HETATM    5  N1  UNL     1     -34.379 -21.001  21.772  1.00  0.00    -0.380 N 
ATOM      6  H1  UNL     1     -33.918 -20.825  22.664  1.00  0.00     0.164 HD
HETATM    7  C6  UNL     1     -35.251 -22.085  21.628  1.00  0.00     0.091 C 
ENDROOT
BRANCH   1   8
HETATM    8  O1  UNL     1     -37.270 -20.918  21.809  1.00  0.00    -0.386 OA
HETATM    9  C1  UNL     1     -38.343 -21.640  22.327  1.00  0.00     0.202 C 
ENDBRANCH   1   8
TORSDOF 1
ENDMDL
MODEL 2
REMARK VINA RESULT: -4.617649970      1.949      3.315
REMARK  1 active torsions:
REMARK  status: ('A' for Active; 'I' for Inactive)
REMARK    1  A    between atoms: O1_2  and  C2_3 
ROOT
HETATM    1  C2  UNL     1     -34.392 -20.978  20.371  1.00  0.00     0.159 C 
HETATM    2  C3  UNL     1     -34.973 -21.787  21.486  1.00  0.00     0.042 C 
HETATM    3  C4  UNL     1     -36.425 -22.016  21.436  1.00  0.00     0.047 C 
HETATM    4  C5  UNL     1     -37.231 -21.214  20.498  1.00  0.00     0.060 C 
HETATM    5  N1  UNL     1     -36.577 -20.596  19.419  1.00  0.00    -0.380 N 
ATOM      6  H1  UNL     1     -37.065 -19.908  18.845  1.00  0.00     0.164 HD
HETATM    7  C6  UNL     1     -35.249 -20.934  19.142  1.00  0.00     0.091 C 
ENDROOT
BRANCH   1   8
HETATM    8  O1  UNL     1     -34.220 -19.643  20.798  1.00  0.00    -0.386 OA
HETATM    9  C1  UNL     1     -33.541 -19.606  22.014  1.00  0.00     0.202 C 
ENDBRANCH   1   8
TORSDOF 1
ENDMDL
MODEL 3
REMARK VINA RESULT: -4.557083810      1.116      1.499
REMARK  1 active torsions:
REMARK  status: ('A' for Active; 'I' for Inactive)
REMARK    1  A    between atoms: O1_2  and  C2_3 
ROOT
HETATM    1  C2  UNL     1     -35.655 -21.375  20.385  1.00  0.00     0.159 C 
HETATM    2  C3  UNL     1     -34.723 -20.300  19.925  1.00  0.00     0.042 C 
HETATM    3  C4  UNL     1     -33.841 -19.722  20.951  1.00  0.00     0.047 C 
HETATM    4  C5  UNL     1     -34.130 -20.007  22.368  1.00  0.00     0.060 C 
HETATM    5  N1  UNL     1     -34.930 -21.121  22.672  1.00  0.00    -0.380 N 
ATOM      6  H1  UNL     1     -35.283 -21.259  23.620  1.00  0.00     0.164 HD
HETATM    7  C6  UNL     1     -35.236 -22.037  21.662  1.00  0.00     0.091 C 
ENDROOT
BRANCH   1   8
HETATM    8  O1  UNL     1     -36.935 -20.823  20.610  1.00  0.00    -0.386 OA
HETATM    9  C1  UNL     1     -37.927 -21.746  20.288  1.00  0.00     0.202 C 
ENDBRANCH   1   8
TORSDOF 1
ENDMDL
MODEL 4
REMARK VINA RESULT: -4.530235999      2.012      2.369
REMARK  1 active torsions:
REMARK  status: ('A' for Active; 'I' for Inactive)
REMARK    1  A    between atoms: O1_2  and  C2_3 
ROOT
HETATM    1  C2  UNL     1     -38.237 -21.962  20.167  1.00  0.00     0.159 C 
HETATM    2  C3  UNL     1     -37.038 -21.286  19.583  1.00  0.00     0.042 C 
HETATM    3  C4  UNL     1     -35.957 -20.951  20.523  1.00  0.00     0.047 C 
HETATM    4  C5  UNL     1     -36.237 -21.022  21.969  1.00  0.00     0.060 C 
HETATM    5  N1  UNL     1     -37.332 -21.790  22.398  1.00  0.00    -0.380 N 
ATOM      6  H1  UNL     1     -37.653 -21.737  23.365  1.00  0.00     0.164 HD
HETATM    7  C6  UNL     1     -37.976 -22.629  21.483  1.00  0.00     0.091 C 
ENDROOT
BRANCH   1   8
HETATM    8  O1  UNL     1     -39.255 -21.009  20.385  1.00  0.00    -0.386 OA
HETATM    9  C1  UNL     1     -40.496 -21.635  20.478  1.00  0.00     0.202 C 
ENDBRANCH   1   8
TORSDOF 1
ENDMDL
MODEL 5
REMARK VINA RESULT: -4.309029336      1.597      2.539
REMARK  1 active torsions:
REMARK  status: ('A' for Active; 'I' for Inactive)
REMARK    1  A    between atoms: O1_2  and  C2_3 
ROOT
HETATM    1  C2  UNL     1     -35.391 -21.480  21.966  1.00  0.00     0.159 C 
HETATM    2  C3  UNL     1     -36.823 -21.582  21.547  1.00  0.00     0.042 C 
HETATM    3  C4  UNL     1     -37.109 -21.298  20.133  1.00  0.00     0.047 C 
HETATM    4  C5  UNL     1     -36.060 -20.660  19.318  1.00  0.00     0.060 C 
HETATM    5  N1  UNL     1     -34.731 -20.735  19.767  1.00  0.00    -0.380 N 
ATOM      6  H1  UNL     1     -34.003 -20.175  19.323  1.00  0.00     0.164 HD
HETATM    7  C6  UNL     1     -34.418 -21.586  20.831  1.00  0.00     0.091 C 
ENDROOT
BRANCH   1   8
HETATM    8  O1  UNL     1     -35.169 -20.228  22.580  1.00  0.00    -0.386 OA
HETATM    9  C1  UNL     1     -33.967 -20.238  23.284  1.00  0.00     0.202 C 
ENDBRANCH   1   8
TORSDOF 1
ENDMDL
