MODEL 1
REMARK VINA RESULT: -6.053758993      0.000      0.000
REMARK  5 active torsions:
REMARK  status: ('A' for Active; 'I' for Inactive)
REMARK    1  A    between atoms: C2_5  and  C3_6 
REMARK    2  A    between atoms: C3_6  and  N3_7 
REMARK    3  A    between atoms: C3_6  and  N4_11 
REMARK    4  A    between atoms: C5_17  and  N6_18 
REMARK    5  A    between atoms: N6_18  and  S1_20 
ROOT
HETATM    1  N1  UNL     1      -7.215   7.612   1.582  1.00  0.00    -0.063 NA
HETATM    2  C1  UNL     1      -6.953   6.222   1.623  1.00  0.00     0.194 A 
HETATM    3  N2  UNL     1      -6.478   5.660   2.763  1.00  0.00    -0.329 N 
ATOM      4  H2  UNL     1      -6.313   6.242   3.585  1.00  0.00     0.168 HD
HETATM    5  C2  UNL     1      -6.225   4.355   2.818  1.00  0.00     0.097 A 
HETATM    6  C4  UNL     1      -6.463   3.574   1.669  1.00  0.00     0.117 A 
HETATM    7  N5  UNL     1      -6.192   2.199   1.751  1.00  0.00    -0.096 NA
HETATM    8  C5  UNL     1      -6.939   4.117   0.514  1.00  0.00     0.144 A 
HETATM    9  N7  UNL     1      -7.175   5.468   0.537  1.00  0.00    -0.314 N 
ATOM     10  H7  UNL     1      -7.533   5.917  -0.306  1.00  0.00     0.170 HD
ENDROOT
BRANCH   5  11
HETATM   11  C3  UNL     1      -5.702   3.713   4.062  1.00  0.00     0.429 C 
BRANCH  11  12
HETATM   12  N3  UNL     1      -4.460   3.023   3.792  1.00  0.00    -0.045 N 
ATOM     13  H33 UNL     1      -4.573   2.306   3.077  1.00  0.00     0.277 HD
ATOM     14  H32 UNL     1      -3.794   3.620   3.303  1.00  0.00     0.277 HD
ATOM     15  H31 UNL     1      -4.069   2.642   4.653  1.00  0.00     0.277 HD
ENDBRANCH  11  12
BRANCH  11  16
HETATM   16  N4  UNL     1      -6.655   2.716   4.511  1.00  0.00    -0.045 N 
ATOM     17  H43 UNL     1      -6.718   2.667   5.528  1.00  0.00     0.277 HD
ATOM     18  H42 UNL     1      -7.620   2.988   4.323  1.00  0.00     0.277 HD
ATOM     19  H41 UNL     1      -6.414   1.818   4.091  1.00  0.00     0.277 HD
ENDBRANCH  11  16
ENDBRANCH   5  11
BRANCH   8  20
HETATM   20  N6  UNL     1      -7.164   3.491  -0.516  1.00  0.00    -0.254 N 
ATOM     21  H6  UNL     1      -6.515   3.789  -1.245  1.00  0.00     0.181 HD
BRANCH  20  22
HETATM   22  S1  UNL     1      -8.171   2.326  -1.115  1.00  0.00     0.360 S 
HETATM   23  O1  UNL     1      -9.048   2.772  -2.282  1.00  0.00    -0.187 OA
HETATM   24  O2  UNL     1      -7.546   0.992  -1.450  1.00  0.00    -0.187 OA
ENDBRANCH  20  22
ENDBRANCH   8  20
TORSDOF 5
ENDMDL
MODEL 2
REMARK VINA RESULT: -5.921390975      3.273      4.169
REMARK  5 active torsions:
REMARK  status: ('A' for Active; 'I' for Inactive)
REMARK    1  A    between atoms: C2_5  and  C3_6 
REMARK    2  A    between atoms: C3_6  and  N3_7 
REMARK    3  A    between atoms: C3_6  and  N4_11 
REMARK    4  A    between atoms: C5_17  and  N6_18 
REMARK    5  A    between atoms: N6_18  and  S1_20 
ROOT
HETATM    1  N1  UNL     1      -6.989   3.108  -1.017  1.00  0.00    -0.063 NA
HETATM    2  C1  UNL     1      -6.840   3.757   0.232  1.00  0.00     0.194 A 
HETATM    3  N2  UNL     1      -6.149   3.149   1.229  1.00  0.00    -0.329 N 
ATOM      4  H2  UNL     1      -5.739   2.228   1.073  1.00  0.00     0.168 HD
HETATM    5  C2  UNL     1      -6.001   3.746   2.409  1.00  0.00     0.097 A 
HETATM    6  C4  UNL     1      -6.576   5.019   2.596  1.00  0.00     0.117 A 
HETATM    7  N5  UNL     1      -6.405   5.630   3.848  1.00  0.00    -0.096 NA
HETATM    8  C5  UNL     1      -7.274   5.647   1.611  1.00  0.00     0.144 A 
HETATM    9  N7  UNL     1      -7.383   4.968   0.423  1.00  0.00    -0.314 N 
ATOM     10  H7  UNL     1      -7.896   5.402  -0.345  1.00  0.00     0.170 HD
ENDROOT
BRANCH   5  11
HETATM   11  C3  UNL     1      -5.244   3.096   3.522  1.00  0.00     0.429 C 
BRANCH  11  12
HETATM   12  N3  UNL     1      -4.085   3.886   3.873  1.00  0.00    -0.045 N 
ATOM     13  H33 UNL     1      -3.426   3.957   3.099  1.00  0.00     0.277 HD
ATOM     14  H32 UNL     1      -4.314   4.875   3.969  1.00  0.00     0.277 HD
ATOM     15  H31 UNL     1      -3.643   3.515   4.715  1.00  0.00     0.277 HD
ENDBRANCH  11  12
BRANCH  11  16
HETATM   16  N4  UNL     1      -4.760   1.806   3.068  1.00  0.00    -0.045 N 
ATOM     17  H43 UNL     1      -5.019   1.611   2.101  1.00  0.00     0.277 HD
ATOM     18  H42 UNL     1      -3.747   1.790   2.949  1.00  0.00     0.277 HD
ATOM     19  H41 UNL     1      -5.088   1.086   3.712  1.00  0.00     0.277 HD
ENDBRANCH  11  16
ENDBRANCH   5  11
BRANCH   8  20
HETATM   20  N6  UNL     1      -7.797   6.751   1.713  1.00  0.00    -0.254 N 
ATOM     21  H6  UNL     1      -7.227   7.445   1.229  1.00  0.00     0.181 HD
BRANCH  20  22
HETATM   22  S1  UNL     1      -9.119   7.488   2.377  1.00  0.00     0.360 S 
HETATM   23  O1  UNL     1     -10.001   6.579   3.229  1.00  0.00    -0.187 OA
HETATM   24  O2  UNL     1      -8.877   8.780   3.121  1.00  0.00    -0.187 OA
ENDBRANCH  20  22
ENDBRANCH   8  20
TORSDOF 5
ENDMDL
MODEL 3
REMARK VINA RESULT: -5.836675295      0.900      1.214
REMARK  5 active torsions:
REMARK  status: ('A' for Active; 'I' for Inactive)
REMARK    1  A    between atoms: C2_5  and  C3_6 
REMARK    2  A    between atoms: C3_6  and  N3_7 
REMARK    3  A    between atoms: C3_6  and  N4_11 
REMARK    4  A    between atoms: C5_17  and  N6_18 
REMARK    5  A    between atoms: N6_18  and  S1_20 
ROOT
HETATM    1  N1  UNL     1      -7.147   7.166   1.820  1.00  0.00    -0.063 NA
HETATM    2  C1  UNL     1      -7.105   5.753   1.881  1.00  0.00     0.194 A 
HETATM    3  N2  UNL     1      -6.241   5.142   2.731  1.00  0.00    -0.329 N 
ATOM      4  H2  UNL     1      -5.627   5.704   3.321  1.00  0.00     0.168 HD
HETATM    5  C2  UNL     1      -6.188   3.814   2.799  1.00  0.00     0.097 A 
HETATM    6  C4  UNL     1      -7.047   3.062   1.974  1.00  0.00     0.117 A 
HETATM    7  N5  UNL     1      -6.976   1.663   2.065  1.00  0.00    -0.096 NA
HETATM    8  C5  UNL     1      -7.922   3.654   1.114  1.00  0.00     0.144 A 
HETATM    9  N7  UNL     1      -7.917   5.026   1.101  1.00  0.00    -0.314 N 
ATOM     10  H7  UNL     1      -8.558   5.513   0.473  1.00  0.00     0.170 HD
ENDROOT
BRANCH   5  11
HETATM   11  C3  UNL     1      -5.245   3.118   3.727  1.00  0.00     0.429 C 
BRANCH  11  12
HETATM   12  N3  UNL     1      -5.877   2.879   5.005  1.00  0.00    -0.045 N 
ATOM     13  H33 UNL     1      -5.724   3.650   5.654  1.00  0.00     0.277 HD
ATOM     14  H32 UNL     1      -6.893   2.934   4.942  1.00  0.00     0.277 HD
ATOM     15  H31 UNL     1      -5.568   1.988   5.395  1.00  0.00     0.277 HD
ENDBRANCH  11  12
BRANCH  11  16
HETATM   16  N4  UNL     1      -4.105   3.982   3.970  1.00  0.00    -0.045 N 
ATOM     17  H43 UNL     1      -3.459   4.005   3.181  1.00  0.00     0.277 HD
ATOM     18  H42 UNL     1      -4.359   4.970   3.972  1.00  0.00     0.277 HD
ATOM     19  H41 UNL     1      -3.652   3.694   4.837  1.00  0.00     0.277 HD
ENDBRANCH  11  16
ENDBRANCH   5  11
BRANCH   8  20
HETATM   20  N6  UNL     1      -8.692   3.055   0.371  1.00  0.00    -0.254 N 
ATOM     21  H6  UNL     1      -9.609   2.989   0.812  1.00  0.00     0.181 HD
BRANCH  20  22
HETATM   22  S1  UNL     1      -8.736   2.320  -1.108  1.00  0.00     0.360 S 
HETATM   23  O1  UNL     1      -8.898   3.269  -2.293  1.00  0.00    -0.187 OA
HETATM   24  O2  UNL     1      -7.632   1.336  -1.412  1.00  0.00    -0.187 OA
ENDBRANCH  20  22
ENDBRANCH   8  20
TORSDOF 5
ENDMDL
MODEL 4
REMARK VINA RESULT: -5.761702757      3.643      4.779
REMARK  5 active torsions:
REMARK  status: ('A' for Active; 'I' for Inactive)
REMARK    1  A    between atoms: C2_5  and  C3_6 
REMARK    2  A    between atoms: C3_6  and  N3_7 
REMARK    3  A    between atoms: C3_6  and  N4_11 
REMARK    4  A    between atoms: C5_17  and  N6_18 
REMARK    5  A    between atoms: N6_18  and  S1_20 
ROOT
HETATM    1  N1  UNL     1      -8.637   7.074   3.332  1.00  0.00    -0.063 NA
HETATM    2  C1  UNL     1      -8.138   5.957   2.619  1.00  0.00     0.194 A 
HETATM    3  N2  UNL     1      -8.838   5.463   1.566  1.00  0.00    -0.329 N 
ATOM      4  H2  UNL     1      -9.719   5.899   1.294  1.00  0.00     0.168 HD
HETATM    5  C2  UNL     1      -8.382   4.413   0.887  1.00  0.00     0.097 A 
HETATM    6  C4  UNL     1      -7.162   3.832   1.285  1.00  0.00     0.117 A 
HETATM    7  N5  UNL     1      -6.700   2.727   0.552  1.00  0.00    -0.096 NA
HETATM    8  C5  UNL     1      -6.444   4.311   2.338  1.00  0.00     0.144 A 
HETATM    9  N7  UNL     1      -6.979   5.395   2.988  1.00  0.00    -0.314 N 
ATOM     10  H7  UNL     1      -6.473   5.788   3.782  1.00  0.00     0.170 HD
ENDROOT
BRANCH   5  11
HETATM   11  C3  UNL     1      -9.135   3.851  -0.276  1.00  0.00     0.429 C 
BRANCH  11  12
HETATM   12  N3  UNL     1      -8.453   4.155  -1.514  1.00  0.00    -0.045 N 
ATOM     13  H33 UNL     1      -7.999   3.333  -1.909  1.00  0.00     0.277 HD
ATOM     14  H32 UNL     1      -9.109   4.345  -2.271  1.00  0.00     0.277 HD
ATOM     15  H31 UNL     1      -7.795   4.923  -1.380  1.00  0.00     0.277 HD
ENDBRANCH  11  12
BRANCH  11  16
HETATM   16  N4  UNL     1     -10.438   4.485  -0.339  1.00  0.00    -0.045 N 
ATOM     17  H43 UNL     1     -10.555   5.208   0.370  1.00  0.00     0.277 HD
ATOM     18  H42 UNL     1     -10.543   5.077  -1.163  1.00  0.00     0.277 HD
ATOM     19  H41 UNL     1     -11.158   3.764  -0.284  1.00  0.00     0.277 HD
ENDBRANCH  11  16
ENDBRANCH   5  11
BRANCH   8  20
HETATM   20  N6  UNL     1      -5.379   3.848   2.732  1.00  0.00    -0.254 N 
ATOM     21  H6  UNL     1      -4.745   3.730   1.941  1.00  0.00     0.181 HD
BRANCH  20  22
HETATM   22  S1  UNL     1      -4.631   3.351   4.118  1.00  0.00     0.360 S 
HETATM   23  O1  UNL     1      -3.365   4.124   4.479  1.00  0.00    -0.187 OA
HETATM   24  O2  UNL     1      -5.496   3.222   5.350  1.00  0.00    -0.187 OA
ENDBRANCH  20  22
ENDBRANCH   8  20
TORSDOF 5
ENDMDL
MODEL 5
REMARK VINA RESULT: -5.753752010      3.236      4.547
REMARK  5 active torsions:
REMARK  status: ('A' for Active; 'I' for Inactive)
REMARK    1  A    between atoms: C2_5  and  C3_6 
REMARK    2  A    between atoms: C3_6  and  N3_7 
REMARK    3  A    between atoms: C3_6  and  N4_11 
REMARK    4  A    between atoms: C5_17  and  N6_18 
REMARK    5  A    between atoms: N6_18  and  S1_20 
ROOT
HETATM    1  N1  UNL     1      -7.069   7.603   1.634  1.00  0.00    -0.063 NA
HETATM    2  C1  UNL     1      -7.060   6.189   1.708  1.00  0.00     0.194 A 
HETATM    3  N2  UNL     1      -7.585   5.459   0.692  1.00  0.00    -0.329 N 
ATOM      4  H2  UNL     1      -7.982   5.932  -0.120  1.00  0.00     0.168 HD
HETATM    5  C2  UNL     1      -7.586   4.130   0.747  1.00  0.00     0.097 A 
HETATM    6  C4  UNL     1      -7.030   3.502   1.879  1.00  0.00     0.117 A 
HETATM    7  N5  UNL     1      -7.040   2.099   1.914  1.00  0.00    -0.096 NA
HETATM    8  C5  UNL     1      -6.498   4.215   2.910  1.00  0.00     0.144 A 
HETATM    9  N7  UNL     1      -6.534   5.581   2.780  1.00  0.00    -0.314 N 
ATOM     10  H7  UNL     1      -6.145   6.155   3.529  1.00  0.00     0.170 HD
ENDROOT
BRANCH   5  11
HETATM   11  C3  UNL     1      -8.158   3.304  -0.360  1.00  0.00     0.429 C 
BRANCH  11  12
HETATM   12  N3  UNL     1      -7.133   2.477  -0.956  1.00  0.00    -0.045 N 
ATOM     13  H33 UNL     1      -6.730   2.912  -1.785  1.00  0.00     0.277 HD
ATOM     14  H32 UNL     1      -6.293   2.441  -0.380  1.00  0.00     0.277 HD
ATOM     15  H31 UNL     1      -7.497   1.546  -1.156  1.00  0.00     0.277 HD
ENDBRANCH  11  12
BRANCH  11  16
HETATM   16  N4  UNL     1      -8.650   4.190  -1.398  1.00  0.00    -0.045 N 
ATOM     17  H43 UNL     1      -9.592   3.947  -1.704  1.00  0.00     0.277 HD
ATOM     18  H42 UNL     1      -8.854   5.126  -1.047  1.00  0.00     0.277 HD
ATOM     19  H41 UNL     1      -7.980   4.200  -2.167  1.00  0.00     0.277 HD
ENDBRANCH  11  16
ENDBRANCH   5  11
BRANCH   8  20
HETATM   20  N6  UNL     1      -6.003   3.728   3.920  1.00  0.00    -0.254 N 
ATOM     21  H6  UNL     1      -6.691   3.729   4.674  1.00  0.00     0.181 HD
BRANCH  20  22
HETATM   22  S1  UNL     1      -4.589   3.069   4.466  1.00  0.00     0.360 S 
HETATM   23  O1  UNL     1      -4.190   1.757   3.794  1.00  0.00    -0.187 OA
HETATM   24  O2  UNL     1      -3.387   3.982   4.517  1.00  0.00    -0.187 OA
ENDBRANCH  20  22
ENDBRANCH   8  20
TORSDOF 5
ENDMDL
