MODEL 1
REMARK VINA RESULT: -8.350370639      0.000      0.000
REMARK  11 active torsions:
REMARK  status: ('A' for Active; 'I' for Inactive)
REMARK    1  A    between atoms: C2_2  and  O1_4 
REMARK    2  A    between atoms: C2_2  and  C4_6 
REMARK    3  A    between atoms: C4_6  and  C5_7 
REMARK    4  A    between atoms: C5_7  and  C6_8 
REMARK    5  A    between atoms: C7_9  and  C8_10 
REMARK    6  A    between atoms: C8_10  and  C9_11 
REMARK    7  A    between atoms: C9_11  and  C10_12 
REMARK    8  A    between atoms: C10_12  and  C11_13 
REMARK    9  A    between atoms: C19_22  and  O3_24 
REMARK   10  A    between atoms: C23_28  and  O4_29 
REMARK   11  A    between atoms: C24_31  and  O5_32 
ROOT
HETATM    1  C8  UNL     1      39.548  37.615  54.352  1.00  0.00    -0.002 C 
HETATM    2  C15 UNL     1      39.906  36.829  55.559  1.00  0.00    -0.016 C 
HETATM    3  C16 UNL     1      39.122  36.684  56.588  1.00  0.00    -0.014 C 
HETATM    4  C17 UNL     1      37.796  37.308  56.617  1.00  0.00     0.038 C 
HETATM    5  C18 UNL     1      36.803  36.310  55.999  1.00  0.00     0.026 C 
HETATM    6  C19 UNL     1      37.352  37.464  58.054  1.00  0.00     0.068 C 
HETATM    7  C20 UNL     1      37.839  36.253  58.857  1.00  0.00     0.047 C 
HETATM    8  C21 UNL     1      37.894  38.673  58.733  1.00  0.00     0.041 C 
HETATM    9  C22 UNL     1      38.919  39.415  57.941  1.00  0.00     0.038 C 
HETATM   10  C23 UNL     1      38.377  39.759  56.593  1.00  0.00     0.153 C 
HETATM   11  C24 UNL     1      37.770  38.587  55.858  1.00  0.00     0.098 C 
HETATM   12  C25 UNL     1      38.386  38.519  54.497  1.00  0.00     0.059 C 
ENDROOT
BRANCH   1  13
HETATM   13  C7  UNL     1      40.758  38.454  54.057  1.00  0.00    -0.017 C 
HETATM   14  C6  UNL     1      40.957  39.049  52.905  1.00  0.00    -0.029 C 
BRANCH  14  15
HETATM   15  C5  UNL     1      42.174  39.860  52.685  1.00  0.00     0.030 C 
BRANCH  15  16
HETATM   16  C4  UNL     1      43.020  39.847  53.915  1.00  0.00     0.040 C 
BRANCH  16  17
HETATM   17  C2  UNL     1      43.322  41.238  54.432  1.00  0.00     0.051 C 
HETATM   18  C1  UNL     1      44.015  41.225  55.753  1.00  0.00     0.045 C 
HETATM   19  C3  UNL     1      44.164  42.024  53.445  1.00  0.00     0.045 C 
BRANCH  17  20
HETATM   20  O1  UNL     1      42.122  41.932  54.581  1.00  0.00    -0.391 OA
ATOM     21  H1  UNL     1      42.265  42.634  55.205  1.00  0.00     0.210 HD
ENDBRANCH  17  20
ENDBRANCH  16  17
ENDBRANCH  15  16
ENDBRANCH  14  15
ENDBRANCH   1  13
BRANCH   1  22
HETATM   22  C9  UNL     1      39.391  36.662  53.183  1.00  0.00     0.022 C 
BRANCH  22  23
HETATM   23  C10 UNL     1      39.996  35.316  53.385  1.00  0.00     0.042 C 
BRANCH  23  24
HETATM   24  C11 UNL     1      38.940  34.323  53.025  1.00  0.00    -0.034 A 
HETATM   25  C12 UNL     1      37.948  33.792  53.790  1.00  0.00     0.033 A 
HETATM   26  C13 UNL     1      37.269  32.931  52.954  1.00  0.00     0.142 A 
HETATM   27  O2  UNL     1      37.831  32.957  51.772  1.00  0.00    -0.334 OA
HETATM   28  C14 UNL     1      38.828  33.771  51.769  1.00  0.00     0.148 A 
ENDBRANCH  23  24
ENDBRANCH  22  23
ENDBRANCH   1  22
BRANCH  11  29
HETATM   29  O5  UNL     1      36.404  38.919  55.670  1.00  0.00    -0.386 OA
ATOM     30  H5  UNL     1      36.124  38.477  54.877  1.00  0.00     0.210 HD
ENDBRANCH  11  29
BRANCH  10  31
HETATM   31  O4  UNL     1      37.497  40.832  56.707  1.00  0.00    -0.393 OA
ATOM     32  H4  UNL     1      37.878  41.597  56.293  1.00  0.00     0.210 HD
ENDBRANCH  10  31
BRANCH   6  33
HETATM   33  O3  UNL     1      35.966  37.491  58.188  1.00  0.00    -0.389 OA
ATOM     34  H3  UNL     1      35.579  38.288  57.846  1.00  0.00     0.210 HD
ENDBRANCH   6  33
TORSDOF 11
ENDMDL
MODEL 2
REMARK VINA RESULT: -8.210045516      1.386      2.011
REMARK  11 active torsions:
REMARK  status: ('A' for Active; 'I' for Inactive)
REMARK    1  A    between atoms: C2_2  and  O1_4 
REMARK    2  A    between atoms: C2_2  and  C4_6 
REMARK    3  A    between atoms: C4_6  and  C5_7 
REMARK    4  A    between atoms: C5_7  and  C6_8 
REMARK    5  A    between atoms: C7_9  and  C8_10 
REMARK    6  A    between atoms: C8_10  and  C9_11 
REMARK    7  A    between atoms: C9_11  and  C10_12 
REMARK    8  A    between atoms: C10_12  and  C11_13 
REMARK    9  A    between atoms: C19_22  and  O3_24 
REMARK   10  A    between atoms: C23_28  and  O4_29 
REMARK   11  A    between atoms: C24_31  and  O5_32 
ROOT
HETATM    1  C8  UNL     1      38.341  37.610  55.404  1.00  0.00    -0.002 C 
HETATM    2  C15 UNL     1      38.746  37.259  56.788  1.00  0.00    -0.016 C 
HETATM    3  C16 UNL     1      38.261  37.833  57.852  1.00  0.00    -0.014 C 
HETATM    4  C17 UNL     1      37.257  38.894  57.743  1.00  0.00     0.038 C 
HETATM    5  C18 UNL     1      35.874  38.222  57.746  1.00  0.00     0.026 C 
HETATM    6  C19 UNL     1      37.286  39.737  58.998  1.00  0.00     0.068 C 
HETATM    7  C20 UNL     1      37.566  38.828  60.199  1.00  0.00     0.047 C 
HETATM    8  C21 UNL     1      38.341  40.789  59.003  1.00  0.00     0.041 C 
HETATM    9  C22 UNL     1      39.294  40.708  57.857  1.00  0.00     0.038 C 
HETATM   10  C23 UNL     1      38.546  40.709  56.564  1.00  0.00     0.153 C 
HETATM   11  C24 UNL     1      37.430  39.693  56.500  1.00  0.00     0.098 C 
HETATM   12  C25 UNL     1      37.605  38.884  55.255  1.00  0.00     0.059 C 
ENDROOT
BRANCH   1  13
HETATM   13  C7  UNL     1      39.627  37.722  54.637  1.00  0.00    -0.017 C 
HETATM   14  C6  UNL     1      39.736  38.381  53.508  1.00  0.00    -0.029 C 
BRANCH  14  15
HETATM   15  C5  UNL     1      41.036  38.448  52.806  1.00  0.00     0.030 C 
BRANCH  15  16
HETATM   16  C4  UNL     1      42.046  39.122  53.674  1.00  0.00     0.040 C 
BRANCH  16  17
HETATM   17  C2  UNL     1      42.449  40.485  53.152  1.00  0.00     0.051 C 
HETATM   18  C1  UNL     1      41.478  41.556  53.524  1.00  0.00     0.045 C 
HETATM   19  C3  UNL     1      43.827  40.882  53.646  1.00  0.00     0.045 C 
BRANCH  17  20
HETATM   20  O1  UNL     1      42.519  40.431  51.761  1.00  0.00    -0.391 OA
ATOM     21  H1  UNL     1      41.670  40.160  51.434  1.00  0.00     0.210 HD
ENDBRANCH  17  20
ENDBRANCH  16  17
ENDBRANCH  15  16
ENDBRANCH  14  15
ENDBRANCH   1  13
BRANCH   1  22
HETATM   22  C9  UNL     1      37.587  36.438  54.808  1.00  0.00     0.022 C 
BRANCH  22  23
HETATM   23  C10 UNL     1      38.167  35.100  55.110  1.00  0.00     0.042 C 
BRANCH  23  24
HETATM   24  C11 UNL     1      38.227  34.366  53.810  1.00  0.00    -0.034 A 
HETATM   25  C12 UNL     1      39.038  34.564  52.736  1.00  0.00     0.033 A 
HETATM   26  C13 UNL     1      38.662  33.607  51.818  1.00  0.00     0.142 A 
HETATM   27  O2  UNL     1      37.690  32.892  52.324  1.00  0.00    -0.334 OA
HETATM   28  C14 UNL     1      37.399  33.309  53.508  1.00  0.00     0.148 A 
ENDBRANCH  23  24
ENDBRANCH  22  23
ENDBRANCH   1  22
BRANCH  11  29
HETATM   29  O5  UNL     1      36.238  40.445  56.333  1.00  0.00    -0.386 OA
ATOM     30  H5  UNL     1      36.477  41.359  56.442  1.00  0.00     0.210 HD
ENDBRANCH  11  29
BRANCH  10  31
HETATM   31  O4  UNL     1      38.111  42.000  56.282  1.00  0.00    -0.393 OA
ATOM     32  H4  UNL     1      37.235  42.121  56.628  1.00  0.00     0.210 HD
ENDBRANCH  10  31
BRANCH   6  33
HETATM   33  O3  UNL     1      36.067  40.361  59.255  1.00  0.00    -0.389 OA
ATOM     34  H3  UNL     1      35.774  40.240  60.150  1.00  0.00     0.210 HD
ENDBRANCH   6  33
TORSDOF 11
ENDMDL
MODEL 3
REMARK VINA RESULT: -8.176921197      1.639      2.158
REMARK  11 active torsions:
REMARK  status: ('A' for Active; 'I' for Inactive)
REMARK    1  A    between atoms: C2_2  and  O1_4 
REMARK    2  A    between atoms: C2_2  and  C4_6 
REMARK    3  A    between atoms: C4_6  and  C5_7 
REMARK    4  A    between atoms: C5_7  and  C6_8 
REMARK    5  A    between atoms: C7_9  and  C8_10 
REMARK    6  A    between atoms: C8_10  and  C9_11 
REMARK    7  A    between atoms: C9_11  and  C10_12 
REMARK    8  A    between atoms: C10_12  and  C11_13 
REMARK    9  A    between atoms: C19_22  and  O3_24 
REMARK   10  A    between atoms: C23_28  and  O4_29 
REMARK   11  A    between atoms: C24_31  and  O5_32 
ROOT
HETATM    1  C8  UNL     1      38.207  37.157  55.289  1.00  0.00    -0.002 C 
HETATM    2  C15 UNL     1      38.662  36.283  56.399  1.00  0.00    -0.016 C 
HETATM    3  C16 UNL     1      37.855  35.700  57.238  1.00  0.00    -0.014 C 
HETATM    4  C17 UNL     1      36.404  35.877  57.134  1.00  0.00     0.038 C 
HETATM    5  C18 UNL     1      35.871  34.778  56.200  1.00  0.00     0.026 C 
HETATM    6  C19 UNL     1      35.771  35.591  58.477  1.00  0.00     0.068 C 
HETATM    7  C20 UNL     1      36.532  34.443  59.150  1.00  0.00     0.047 C 
HETATM    8  C21 UNL     1      35.805  36.739  59.425  1.00  0.00     0.041 C 
HETATM    9  C22 UNL     1      36.614  37.902  58.954  1.00  0.00     0.038 C 
HETATM   10  C23 UNL     1      36.148  38.338  57.604  1.00  0.00     0.153 C 
HETATM   11  C24 UNL     1      36.049  37.217  56.596  1.00  0.00     0.098 C 
HETATM   12  C25 UNL     1      36.805  37.620  55.371  1.00  0.00     0.059 C 
ENDROOT
BRANCH   1  13
HETATM   13  C7  UNL     1      39.101  38.362  55.348  1.00  0.00    -0.017 C 
HETATM   14  C6  UNL     1      40.327  38.372  54.882  1.00  0.00    -0.029 C 
BRANCH  14  15
HETATM   15  C5  UNL     1      41.150  39.598  54.976  1.00  0.00     0.030 C 
BRANCH  15  16
HETATM   16  C4  UNL     1      42.248  39.549  53.966  1.00  0.00     0.040 C 
BRANCH  16  17
HETATM   17  C2  UNL     1      42.222  40.729  53.017  1.00  0.00     0.051 C 
HETATM   18  C1  UNL     1      40.943  41.496  53.085  1.00  0.00     0.045 C 
HETATM   19  C3  UNL     1      43.376  41.677  53.280  1.00  0.00     0.045 C 
BRANCH  17  20
HETATM   20  O1  UNL     1      42.373  40.260  51.713  1.00  0.00    -0.391 OA
ATOM     21  H1  UNL     1      42.718  40.969  51.183  1.00  0.00     0.210 HD
ENDBRANCH  17  20
ENDBRANCH  16  17
ENDBRANCH  15  16
ENDBRANCH  14  15
ENDBRANCH   1  13
BRANCH   1  22
HETATM   22  C9  UNL     1      38.506  36.465  53.974  1.00  0.00     0.022 C 
BRANCH  22  23
HETATM   23  C10 UNL     1      39.246  35.178  54.097  1.00  0.00     0.042 C 
BRANCH  23  24
HETATM   24  C11 UNL     1      38.615  34.237  53.123  1.00  0.00    -0.034 A 
HETATM   25  C12 UNL     1      37.508  33.457  53.259  1.00  0.00     0.033 A 
HETATM   26  C13 UNL     1      37.385  32.793  52.057  1.00  0.00     0.142 A 
HETATM   27  O2  UNL     1      38.360  33.162  51.266  1.00  0.00    -0.334 OA
HETATM   28  C14 UNL     1      39.115  34.020  51.860  1.00  0.00     0.148 A 
ENDBRANCH  23  24
ENDBRANCH  22  23
ENDBRANCH   1  22
BRANCH  11  29
HETATM   29  O5  UNL     1      34.680  37.155  56.228  1.00  0.00    -0.386 OA
ATOM     30  H5  UNL     1      34.185  37.497  56.964  1.00  0.00     0.210 HD
ENDBRANCH  11  29
BRANCH  10  31
HETATM   31  O4  UNL     1      34.959  39.050  57.732  1.00  0.00    -0.393 OA
ATOM     32  H4  UNL     1      35.081  39.762  58.348  1.00  0.00     0.210 HD
ENDBRANCH  10  31
BRANCH   6  33
HETATM   33  O3  UNL     1      34.447  35.172  58.369  1.00  0.00    -0.389 OA
ATOM     34  H3  UNL     1      34.076  34.909  59.203  1.00  0.00     0.210 HD
ENDBRANCH   6  33
TORSDOF 11
ENDMDL
MODEL 4
REMARK VINA RESULT: -8.175885247      1.251      1.496
REMARK  11 active torsions:
REMARK  status: ('A' for Active; 'I' for Inactive)
REMARK    1  A    between atoms: C2_2  and  O1_4 
REMARK    2  A    between atoms: C2_2  and  C4_6 
REMARK    3  A    between atoms: C4_6  and  C5_7 
REMARK    4  A    between atoms: C5_7  and  C6_8 
REMARK    5  A    between atoms: C7_9  and  C8_10 
REMARK    6  A    between atoms: C8_10  and  C9_11 
REMARK    7  A    between atoms: C9_11  and  C10_12 
REMARK    8  A    between atoms: C10_12  and  C11_13 
REMARK    9  A    between atoms: C19_22  and  O3_24 
REMARK   10  A    between atoms: C23_28  and  O4_29 
REMARK   11  A    between atoms: C24_31  and  O5_32 
ROOT
HETATM    1  C8  UNL     1      39.518  37.386  55.313  1.00  0.00    -0.002 C 
HETATM    2  C15 UNL     1      39.393  36.899  56.709  1.00  0.00    -0.016 C 
HETATM    3  C16 UNL     1      38.260  36.797  57.342  1.00  0.00    -0.014 C 
HETATM    4  C17 UNL     1      37.000  37.170  56.694  1.00  0.00     0.038 C 
HETATM    5  C18 UNL     1      36.460  35.919  55.981  1.00  0.00     0.026 C 
HETATM    6  C19 UNL     1      35.971  37.491  57.754  1.00  0.00     0.068 C 
HETATM    7  C20 UNL     1      36.172  36.545  58.943  1.00  0.00     0.047 C 
HETATM    8  C21 UNL     1      36.060  38.878  58.291  1.00  0.00     0.041 C 
HETATM    9  C22 UNL     1      37.255  39.641  57.825  1.00  0.00     0.038 C 
HETATM   10  C23 UNL     1      37.314  39.643  56.333  1.00  0.00     0.153 C 
HETATM   11  C24 UNL     1      37.188  38.271  55.712  1.00  0.00     0.098 C 
HETATM   12  C25 UNL     1      38.331  38.079  54.767  1.00  0.00     0.059 C 
ENDROOT
BRANCH   1  13
HETATM   13  C7  UNL     1      40.657  38.363  55.339  1.00  0.00    -0.017 C 
HETATM   14  C6  UNL     1      40.669  39.474  54.641  1.00  0.00    -0.029 C 
BRANCH  14  15
HETATM   15  C5  UNL     1      41.828  40.390  54.717  1.00  0.00     0.030 C 
BRANCH  15  16
HETATM   16  C4  UNL     1      42.882  39.954  53.755  1.00  0.00     0.040 C 
BRANCH  16  17
HETATM   17  C2  UNL     1      44.134  40.802  53.834  1.00  0.00     0.051 C 
HETATM   18  C1  UNL     1      44.013  42.081  53.075  1.00  0.00     0.045 C 
HETATM   19  C3  UNL     1      44.497  41.119  55.272  1.00  0.00     0.045 C 
BRANCH  17  20
HETATM   20  O1  UNL     1      45.200  40.082  53.297  1.00  0.00    -0.391 OA
ATOM     21  H1  UNL     1      45.046  39.160  53.467  1.00  0.00     0.210 HD
ENDBRANCH  17  20
ENDBRANCH  16  17
ENDBRANCH  15  16
ENDBRANCH  14  15
ENDBRANCH   1  13
BRANCH   1  22
HETATM   22  C9  UNL     1      39.962  36.232  54.435  1.00  0.00     0.022 C 
BRANCH  22  23
HETATM   23  C10 UNL     1      39.519  36.317  53.015  1.00  0.00     0.042 C 
BRANCH  23  24
HETATM   24  C11 UNL     1      38.898  34.998  52.690  1.00  0.00    -0.034 A 
HETATM   25  C12 UNL     1      37.918  34.314  53.339  1.00  0.00     0.033 A 
HETATM   26  C13 UNL     1      37.738  33.159  52.607  1.00  0.00     0.142 A 
HETATM   27  O2  UNL     1      38.563  33.167  51.592  1.00  0.00    -0.334 OA
HETATM   28  C14 UNL     1      39.273  34.242  51.602  1.00  0.00     0.148 A 
ENDBRANCH  23  24
ENDBRANCH  22  23
ENDBRANCH   1  22
BRANCH  11  29
HETATM   29  O5  UNL     1      36.010  38.316  54.923  1.00  0.00    -0.386 OA
ATOM     30  H5  UNL     1      36.270  38.101  54.034  1.00  0.00     0.210 HD
ENDBRANCH  11  29
BRANCH  10  31
HETATM   31  O4  UNL     1      36.380  40.544  55.833  1.00  0.00    -0.393 OA
ATOM     32  H4  UNL     1      36.671  40.866  54.988  1.00  0.00     0.210 HD
ENDBRANCH  10  31
BRANCH   6  33
HETATM   33  O3  UNL     1      34.665  37.293  57.313  1.00  0.00    -0.389 OA
ATOM     34  H3  UNL     1      34.034  37.825  57.783  1.00  0.00     0.210 HD
ENDBRANCH   6  33
TORSDOF 11
ENDMDL
MODEL 5
REMARK VINA RESULT: -8.112461494      2.620      5.837
REMARK  11 active torsions:
REMARK  status: ('A' for Active; 'I' for Inactive)
REMARK    1  A    between atoms: C2_2  and  O1_4 
REMARK    2  A    between atoms: C2_2  and  C4_6 
REMARK    3  A    between atoms: C4_6  and  C5_7 
REMARK    4  A    between atoms: C5_7  and  C6_8 
REMARK    5  A    between atoms: C7_9  and  C8_10 
REMARK    6  A    between atoms: C8_10  and  C9_11 
REMARK    7  A    between atoms: C9_11  and  C10_12 
REMARK    8  A    between atoms: C10_12  and  C11_13 
REMARK    9  A    between atoms: C19_22  and  O3_24 
REMARK   10  A    between atoms: C23_28  and  O4_29 
REMARK   11  A    between atoms: C24_31  and  O5_32 
ROOT
HETATM    1  C8  UNL     1      38.802  37.163  55.920  1.00  0.00    -0.002 C 
HETATM    2  C15 UNL     1      37.730  38.008  55.337  1.00  0.00    -0.016 C 
HETATM    3  C16 UNL     1      37.399  39.179  55.801  1.00  0.00    -0.014 C 
HETATM    4  C17 UNL     1      38.086  39.751  56.962  1.00  0.00     0.038 C 
HETATM    5  C18 UNL     1      39.294  40.546  56.437  1.00  0.00     0.026 C 
HETATM    6  C19 UNL     1      37.191  40.783  57.611  1.00  0.00     0.068 C 
HETATM    7  C20 UNL     1      36.417  41.526  56.517  1.00  0.00     0.047 C 
HETATM    8  C21 UNL     1      36.177  40.212  58.540  1.00  0.00     0.041 C 
HETATM    9  C22 UNL     1      36.102  38.721  58.528  1.00  0.00     0.038 C 
HETATM   10  C23 UNL     1      37.451  38.136  58.787  1.00  0.00     0.153 C 
HETATM   11  C24 UNL     1      38.543  38.698  57.907  1.00  0.00     0.098 C 
HETATM   12  C25 UNL     1      39.265  37.554  57.269  1.00  0.00     0.059 C 
ENDROOT
BRANCH   1  13
HETATM   13  C7  UNL     1      38.210  35.787  56.011  1.00  0.00    -0.017 C 
HETATM   14  C6  UNL     1      36.973  35.559  56.383  1.00  0.00    -0.029 C 
BRANCH  14  15
HETATM   15  C5  UNL     1      36.457  34.174  56.449  1.00  0.00     0.030 C 
BRANCH  15  16
HETATM   16  C4  UNL     1      35.805  33.813  55.157  1.00  0.00     0.040 C 
BRANCH  16  17
HETATM   17  C2  UNL     1      36.432  32.599  54.504  1.00  0.00     0.051 C 
HETATM   18  C1  UNL     1      36.812  32.842  53.081  1.00  0.00     0.045 C 
HETATM   19  C3  UNL     1      37.658  32.133  55.265  1.00  0.00     0.045 C 
BRANCH  17  20
HETATM   20  O1  UNL     1      35.515  31.549  54.532  1.00  0.00    -0.391 OA
ATOM     21  H1  UNL     1      34.760  31.832  55.034  1.00  0.00     0.210 HD
ENDBRANCH  17  20
ENDBRANCH  16  17
ENDBRANCH  15  16
ENDBRANCH  14  15
ENDBRANCH   1  13
BRANCH   1  22
HETATM   22  C9  UNL     1      39.943  37.075  54.926  1.00  0.00     0.022 C 
BRANCH  22  23
HETATM   23  C10 UNL     1      39.658  37.668  53.589  1.00  0.00     0.042 C 
BRANCH  23  24
HETATM   24  C11 UNL     1      39.767  36.550  52.604  1.00  0.00    -0.034 A 
HETATM   25  C12 UNL     1      39.443  35.236  52.739  1.00  0.00     0.033 A 
HETATM   26  C13 UNL     1      39.749  34.661  51.523  1.00  0.00     0.142 A 
HETATM   27  O2  UNL     1      40.224  35.584  50.726  1.00  0.00    -0.334 OA
HETATM   28  C14 UNL     1      40.252  36.722  51.327  1.00  0.00     0.148 A 
ENDBRANCH  23  24
ENDBRANCH  22  23
ENDBRANCH   1  22
BRANCH  11  29
HETATM   29  O5  UNL     1      39.464  39.319  58.791  1.00  0.00    -0.386 OA
ATOM     30  H5  UNL     1      39.608  38.708  59.504  1.00  0.00     0.210 HD
ENDBRANCH  11  29
BRANCH  10  31
HETATM   31  O4  UNL     1      37.749  38.241  60.142  1.00  0.00    -0.393 OA
ATOM     32  H4  UNL     1      38.626  38.590  60.247  1.00  0.00     0.210 HD
ENDBRANCH  10  31
BRANCH   6  33
HETATM   33  O3  UNL     1      37.907  41.751  58.311  1.00  0.00    -0.389 OA
ATOM     34  H3  UNL     1      37.667  42.636  58.062  1.00  0.00     0.210 HD
ENDBRANCH   6  33
TORSDOF 11
ENDMDL
