MODEL 1
REMARK VINA RESULT: -4.109614745      0.000      0.000
REMARK  1 active torsions:
REMARK  status: ('A' for Active; 'I' for Inactive)
REMARK    1  A    between atoms: C2_2  and  C3_5 
ROOT
HETATM    1  C3  UNL     1       3.073  -0.910  20.646  1.00  0.00     0.171 A 
HETATM    2  N1  UNL     1       4.243  -0.773  19.953  1.00  0.00    -0.282 N 
ATOM      3  H1  UNL     1       5.025  -0.181  20.232  1.00  0.00     0.188 HD
HETATM    4  N2  UNL     1       4.205  -1.523  18.865  1.00  0.00    -0.275 N 
ATOM      5  H2  UNL     1       4.953  -1.601  18.177  1.00  0.00     0.189 HD
HETATM    6  C4  UNL     1       3.037  -2.160  18.811  1.00  0.00     0.192 A 
HETATM    7  S1  UNL     1       2.486  -3.201  17.679  1.00  0.00    -0.039 SA
HETATM    8  N3  UNL     1       2.346  -1.774  19.917  1.00  0.00    -0.316 N 
ATOM      9  H3  UNL     1       1.409  -2.096  20.159  1.00  0.00     0.169 HD
ENDROOT
BRANCH   1  10
HETATM   10  C2  UNL     1       2.774  -0.208  21.918  1.00  0.00     0.298 C 
HETATM   11  C1  UNL     1       2.014  -1.133  22.863  1.00  0.00     0.099 C 
HETATM   12  F1  UNL     1       3.925   0.262  22.534  1.00  0.00    -0.198 F 
HETATM   13  F2  UNL     1       1.951   0.891  21.714  1.00  0.00    -0.198 F 
ENDBRANCH   1  10
TORSDOF 1
ENDMDL
MODEL 2
REMARK VINA RESULT: -4.092379472      8.788      9.549
REMARK  1 active torsions:
REMARK  status: ('A' for Active; 'I' for Inactive)
REMARK    1  A    between atoms: C2_2  and  C3_5 
ROOT
HETATM    1  C3  UNL     1       0.047  -8.494  24.882  1.00  0.00     0.171 A 
HETATM    2  N1  UNL     1      -0.571  -9.368  25.732  1.00  0.00    -0.282 N 
ATOM      3  H1  UNL     1      -0.187  -9.696  26.619  1.00  0.00     0.188 HD
HETATM    4  N2  UNL     1      -1.741  -9.723  25.231  1.00  0.00    -0.275 N 
ATOM      5  H2  UNL     1      -2.400 -10.366  25.669  1.00  0.00     0.189 HD
HETATM    6  C4  UNL     1      -1.923  -9.109  24.064  1.00  0.00     0.192 A 
HETATM    7  S1  UNL     1      -3.193  -9.203  23.039  1.00  0.00    -0.039 SA
HETATM    8  N3  UNL     1      -0.813  -8.352  23.859  1.00  0.00    -0.316 N 
ATOM      9  H3  UNL     1      -0.655  -7.759  23.044  1.00  0.00     0.169 HD
ENDROOT
BRANCH   1  10
HETATM   10  C2  UNL     1       1.380  -7.893  25.134  1.00  0.00     0.298 C 
HETATM   11  C1  UNL     1       2.474  -8.935  24.929  1.00  0.00     0.099 C 
HETATM   12  F1  UNL     1       1.613  -6.789  24.326  1.00  0.00    -0.198 F 
HETATM   13  F2  UNL     1       1.504  -7.461  26.448  1.00  0.00    -0.198 F 
ENDBRANCH   1  10
TORSDOF 1
ENDMDL
MODEL 3
REMARK VINA RESULT: -4.084605846      1.146      2.100
REMARK  1 active torsions:
REMARK  status: ('A' for Active; 'I' for Inactive)
REMARK    1  A    between atoms: C2_2  and  C3_5 
ROOT
HETATM    1  C3  UNL     1       2.256  -1.230  20.666  1.00  0.00     0.171 A 
HETATM    2  N1  UNL     1       1.062  -1.895  20.659  1.00  0.00    -0.282 N 
ATOM      3  H1  UNL     1       0.327  -1.791  21.360  1.00  0.00     0.188 HD
HETATM    4  N2  UNL     1       1.005  -2.694  19.608  1.00  0.00    -0.275 N 
ATOM      5  H2  UNL     1       0.221  -3.301  19.370  1.00  0.00     0.189 HD
HETATM    6  C4  UNL     1       2.132  -2.581  18.909  1.00  0.00     0.192 A 
HETATM    7  S1  UNL     1       2.570  -3.347  17.533  1.00  0.00    -0.039 SA
HETATM    8  N3  UNL     1       2.897  -1.673  19.571  1.00  0.00    -0.316 N 
ATOM      9  H3  UNL     1       3.826  -1.371  19.279  1.00  0.00     0.169 HD
ENDROOT
BRANCH   1  10
HETATM   10  C2  UNL     1       2.654  -0.250  21.706  1.00  0.00     0.298 C 
HETATM   11  C1  UNL     1       4.132   0.099  21.561  1.00  0.00     0.099 C 
HETATM   12  F1  UNL     1       1.884   0.903  21.657  1.00  0.00    -0.198 F 
HETATM   13  F2  UNL     1       2.509  -0.775  22.984  1.00  0.00    -0.198 F 
ENDBRANCH   1  10
TORSDOF 1
ENDMDL
MODEL 4
REMARK VINA RESULT: -4.083592044      3.233      3.717
REMARK  1 active torsions:
REMARK  status: ('A' for Active; 'I' for Inactive)
REMARK    1  A    between atoms: C2_2  and  C3_5 
ROOT
HETATM    1  C3  UNL     1       2.072  -1.770  20.277  1.00  0.00     0.171 A 
HETATM    2  N1  UNL     1       2.025  -1.004  21.408  1.00  0.00    -0.282 N 
ATOM      3  H1  UNL     1       1.274  -1.020  22.098  1.00  0.00     0.188 HD
HETATM    4  N2  UNL     1       3.100  -0.238  21.470  1.00  0.00    -0.275 N 
ATOM      5  H2  UNL     1       3.309   0.427  22.215  1.00  0.00     0.189 HD
HETATM    6  C4  UNL     1       3.868  -0.472  20.408  1.00  0.00     0.192 A 
HETATM    7  S1  UNL     1       5.299   0.207  20.004  1.00  0.00    -0.039 SA
HETATM    8  N3  UNL     1       3.224  -1.421  19.678  1.00  0.00    -0.316 N 
ATOM      9  H3  UNL     1       3.566  -1.813  18.801  1.00  0.00     0.169 HD
ENDROOT
BRANCH   1  10
HETATM   10  C2  UNL     1       1.023  -2.746  19.892  1.00  0.00     0.298 C 
HETATM   11  C1  UNL     1      -0.332  -2.054  19.801  1.00  0.00     0.099 C 
HETATM   12  F1  UNL     1       1.317  -3.379  18.693  1.00  0.00    -0.198 F 
HETATM   13  F2  UNL     1       0.880  -3.744  20.846  1.00  0.00    -0.198 F 
ENDBRANCH   1  10
TORSDOF 1
ENDMDL
MODEL 5
REMARK VINA RESULT: -3.963491251      9.161      9.771
REMARK  1 active torsions:
REMARK  status: ('A' for Active; 'I' for Inactive)
REMARK    1  A    between atoms: C2_2  and  C3_5 
ROOT
HETATM    1  C3  UNL     1       1.984  -8.665  25.460  1.00  0.00     0.171 A 
HETATM    2  N1  UNL     1       1.825  -9.166  26.722  1.00  0.00    -0.282 N 
ATOM      3  H1  UNL     1       0.931  -9.283  27.200  1.00  0.00     0.188 HD
HETATM    4  N2  UNL     1       3.005  -9.475  27.229  1.00  0.00    -0.275 N 
ATOM      5  H2  UNL     1       3.165  -9.868  28.156  1.00  0.00     0.189 HD
HETATM    6  C4  UNL     1       3.954  -9.193  26.338  1.00  0.00     0.192 A 
HETATM    7  S1  UNL     1       5.572  -9.381  26.464  1.00  0.00    -0.039 SA
HETATM    8  N3  UNL     1       3.311  -8.694  25.249  1.00  0.00    -0.316 N 
ATOM      9  H3  UNL     1       3.771  -8.385  24.392  1.00  0.00     0.169 HD
ENDROOT
BRANCH   1  10
HETATM   10  C2  UNL     1       0.863  -8.216  24.598  1.00  0.00     0.298 C 
HETATM   11  C1  UNL     1      -0.448  -8.258  25.376  1.00  0.00     0.099 C 
HETATM   12  F1  UNL     1       1.076  -6.943  24.089  1.00  0.00    -0.198 F 
HETATM   13  F2  UNL     1       0.689  -9.059  23.509  1.00  0.00    -0.198 F 
ENDBRANCH   1  10
TORSDOF 1
ENDMDL
