MODEL 1
REMARK VINA RESULT: -5.016351563      0.000      0.000
REMARK  0 active torsions:
REMARK  status: ('A' for Active; 'I' for Inactive)
ROOT
HETATM    1  F1  UNL     1      -2.121  -6.218  13.275  1.00  0.00    -0.165 F 
HETATM    2  C1  UNL     1      -3.341  -6.782  12.927  1.00  0.00     0.513 C 
HETATM    3 CL1  UNL     1      -3.984  -6.095  11.433  1.00  0.00    -0.022 Cl
HETATM    4  N1  UNL     1      -3.324  -8.244  12.933  1.00  0.00     0.037 N 
ATOM      5  H11 UNL     1      -2.445  -8.738  12.782  1.00  0.00     0.288 HD
ATOM      6  H12 UNL     1      -3.753  -8.757  12.163  1.00  0.00     0.288 HD
HETATM    7  C2  UNL     1      -3.952  -8.266  14.259  1.00  0.00     0.301 C 
HETATM    8  C3  UNL     1      -2.916  -8.497  15.304  1.00  0.00     0.070 C 
HETATM    9  C4  UNL     1      -3.628  -8.467  16.655  1.00  0.00     0.004 C 
HETATM   10  C5  UNL     1      -4.494  -9.723  16.657  1.00  0.00     0.000 C 
HETATM   11  C6  UNL     1      -5.519  -9.725  15.588  1.00  0.00     0.004 C 
HETATM   12  C7  UNL     1      -5.097  -9.198  14.273  1.00  0.00     0.070 C 
HETATM   13  N2  UNL     1      -4.294  -6.862  14.027  1.00  0.00     0.037 N 
ATOM     14  H21 UNL     1      -5.267  -6.602  13.868  1.00  0.00     0.288 HD
ATOM     15  H22 UNL     1      -4.231  -6.196  14.797  1.00  0.00     0.288 HD
ENDROOT
TORSDOF 0
ENDMDL
MODEL 2
REMARK VINA RESULT: -4.263614903      1.339      2.129
REMARK  0 active torsions:
REMARK  status: ('A' for Active; 'I' for Inactive)
ROOT
HETATM    1  F1  UNL     1      -5.668  -6.958  12.249  1.00  0.00    -0.165 F 
HETATM    2  C1  UNL     1      -4.332  -7.057  12.613  1.00  0.00     0.513 C 
HETATM    3 CL1  UNL     1      -3.262  -6.343  11.403  1.00  0.00    -0.022 Cl
HETATM    4  N1  UNL     1      -4.068  -6.584  13.971  1.00  0.00     0.037 N 
ATOM      5  H11 UNL     1      -4.686  -5.892  14.393  1.00  0.00     0.288 HD
ATOM      6  H12 UNL     1      -3.262  -5.983  14.149  1.00  0.00     0.288 HD
HETATM    7  C2  UNL     1      -4.069  -7.963  14.473  1.00  0.00     0.301 C 
HETATM    8  C3  UNL     1      -5.384  -8.269  15.102  1.00  0.00     0.070 C 
HETATM    9  C4  UNL     1      -5.331  -9.725  15.563  1.00  0.00     0.004 C 
HETATM   10  C5  UNL     1      -4.323  -9.725  16.708  1.00  0.00     0.000 C 
HETATM   11  C6  UNL     1      -2.963  -9.319  16.287  1.00  0.00     0.004 C 
HETATM   12  C7  UNL     1      -2.881  -8.207  15.316  1.00  0.00     0.070 C 
HETATM   13  N2  UNL     1      -3.938  -8.381  13.077  1.00  0.00     0.037 N 
ATOM     14  H21 UNL     1      -3.060  -8.786  12.753  1.00  0.00     0.288 HD
ATOM     15  H22 UNL     1      -4.449  -9.201  12.748  1.00  0.00     0.288 HD
ENDROOT
TORSDOF 0
ENDMDL
MODEL 3
REMARK VINA RESULT: -4.192346504      9.814     10.779
REMARK  0 active torsions:
REMARK  status: ('A' for Active; 'I' for Inactive)
ROOT
HETATM    1  F1  UNL     1       0.166  -7.840  26.400  1.00  0.00    -0.165 F 
HETATM    2  C1  UNL     1       0.792  -8.230  25.224  1.00  0.00     0.513 C 
HETATM    3 CL1  UNL     1       2.530  -7.922  25.266  1.00  0.00    -0.022 Cl
HETATM    4  N1  UNL     1       0.455  -9.593  24.816  1.00  0.00     0.037 N 
ATOM      5  H11 UNL     1       0.168 -10.274  25.519  1.00  0.00     0.288 HD
ATOM      6  H12 UNL     1       1.193 -10.222  24.498  1.00  0.00     0.288 HD
HETATM    7  C2  UNL     1      -0.529  -9.084  23.854  1.00  0.00     0.301 C 
HETATM    8  C3  UNL     1      -1.898  -9.183  24.432  1.00  0.00     0.070 C 
HETATM    9  C4  UNL     1      -2.863  -8.600  23.401  1.00  0.00     0.004 C 
HETATM   10  C5  UNL     1      -2.835  -9.598  22.247  1.00  0.00     0.000 C 
HETATM   11  C6  UNL     1      -1.500  -9.725  21.619  1.00  0.00     0.004 C 
HETATM   12  C7  UNL     1      -0.340  -9.720  22.535  1.00  0.00     0.070 C 
HETATM   13  N2  UNL     1       0.117  -7.780  24.014  1.00  0.00     0.037 N 
ATOM     14  H21 UNL     1       0.666  -7.394  23.247  1.00  0.00     0.288 HD
ATOM     15  H22 UNL     1      -0.456  -6.936  24.043  1.00  0.00     0.288 HD
ENDROOT
TORSDOF 0
ENDMDL
MODEL 4
REMARK VINA RESULT: -4.188859210      2.989      4.133
REMARK  0 active torsions:
REMARK  status: ('A' for Active; 'I' for Inactive)
ROOT
HETATM    1  F1  UNL     1      -3.840  -8.723  16.715  1.00  0.00    -0.165 F 
HETATM    2  C1  UNL     1      -5.051  -8.782  16.039  1.00  0.00     0.513 C 
HETATM    3 CL1  UNL     1      -6.255  -9.725  16.922  1.00  0.00    -0.022 Cl
HETATM    4  N1  UNL     1      -5.539  -7.471  15.614  1.00  0.00     0.037 N 
ATOM      5  H11 UNL     1      -5.254  -6.636  16.126  1.00  0.00     0.288 HD
ATOM      6  H12 UNL     1      -6.521  -7.228  15.752  1.00  0.00     0.288 HD
HETATM    7  C2  UNL     1      -5.032  -7.700  14.256  1.00  0.00     0.301 C 
HETATM    8  C3  UNL     1      -3.731  -6.997  14.079  1.00  0.00     0.070 C 
HETATM    9  C4  UNL     1      -3.242  -7.311  12.665  1.00  0.00     0.004 C 
HETATM   10  C5  UNL     1      -4.225  -6.583  11.753  1.00  0.00     0.000 C 
HETATM   11  C6  UNL     1      -5.616  -7.073  11.886  1.00  0.00     0.004 C 
HETATM   12  C7  UNL     1      -6.072  -7.388  13.256  1.00  0.00     0.070 C 
HETATM   13  N2  UNL     1      -4.927  -9.112  14.625  1.00  0.00     0.037 N 
ATOM     14  H21 UNL     1      -5.567  -9.789  14.210  1.00  0.00     0.288 HD
ATOM     15  H22 UNL     1      -4.126  -9.657  14.305  1.00  0.00     0.288 HD
ENDROOT
TORSDOF 0
ENDMDL
MODEL 5
REMARK VINA RESULT: -4.064557938      2.515      3.663
REMARK  0 active torsions:
REMARK  status: ('A' for Active; 'I' for Inactive)
ROOT
HETATM    1  F1  UNL     1      -2.508  -6.728  15.187  1.00  0.00    -0.165 F 
HETATM    2  C1  UNL     1      -3.109  -7.978  15.128  1.00  0.00     0.513 C 
HETATM    3 CL1  UNL     1      -2.386  -9.112  16.273  1.00  0.00    -0.022 Cl
HETATM    4  N1  UNL     1      -4.568  -7.921  15.211  1.00  0.00     0.037 N 
ATOM      5  H11 UNL     1      -5.016  -7.135  15.681  1.00  0.00     0.288 HD
ATOM      6  H12 UNL     1      -5.065  -8.576  15.816  1.00  0.00     0.288 HD
HETATM    7  C2  UNL     1      -4.676  -8.055  13.754  1.00  0.00     0.301 C 
HETATM    8  C3  UNL     1      -4.906  -6.718  13.140  1.00  0.00     0.070 C 
HETATM    9  C4  UNL     1      -4.967  -6.924  11.627  1.00  0.00     0.004 C 
HETATM   10  C5  UNL     1      -6.258  -7.703  11.401  1.00  0.00     0.000 C 
HETATM   11  C6  UNL     1      -6.258  -9.033  12.053  1.00  0.00     0.004 C 
HETATM   12  C7  UNL     1      -5.656  -9.102  13.402  1.00  0.00     0.070 C 
HETATM   13  N2  UNL     1      -3.279  -8.493  13.776  1.00  0.00     0.037 N 
ATOM     14  H21 UNL     1      -3.055  -9.468  13.578  1.00  0.00     0.288 HD
ATOM     15  H22 UNL     1      -2.645  -8.186  13.038  1.00  0.00     0.288 HD
ENDROOT
TORSDOF 0
ENDMDL
