MODEL 1
REMARK VINA RESULT: -4.356558593      0.000      0.000
REMARK  1 active torsions:
REMARK  status: ('A' for Active; 'I' for Inactive)
REMARK    1  A    between atoms: C2_2  and  C3_5 
ROOT
HETATM    1  C3  UNL     1       1.299  -1.816  20.406  1.00  0.00     0.038 C 
HETATM    2  C4  UNL     1       1.161  -3.298  20.769  1.00  0.00     0.023 C 
HETATM    3  C5  UNL     1       1.968  -1.749  19.075  1.00  0.00     0.024 C 
HETATM    4  C6  UNL     1       3.460  -2.005  19.277  1.00  0.00     0.074 C 
HETATM    5  C7  UNL     1       3.958  -0.800  20.026  1.00  0.00     0.088 C 
HETATM    6  N1  UNL     1       5.144  -0.162  19.617  1.00  0.00    -0.088 NA
HETATM    7  N2  UNL     1       3.247  -0.423  21.014  1.00  0.00    -0.381 N 
ATOM      8  H2  UNL     1       3.567   0.394  21.534  1.00  0.00     0.160 HD
HETATM    9  C8  UNL     1       2.027  -1.053  21.460  1.00  0.00     0.135 C 
ENDROOT
BRANCH   1  10
HETATM   10  C2  UNL     1      -0.129  -1.280  20.341  1.00  0.00     0.248 C 
HETATM   11  C1  UNL     1      -0.184   0.132  20.809  1.00  0.00     0.091 C 
HETATM   12  F1  UNL     1      -0.537  -1.331  19.030  1.00  0.00    -0.206 F 
HETATM   13  F2  UNL     1      -0.958  -2.065  21.087  1.00  0.00    -0.206 F 
ENDBRANCH   1  10
TORSDOF 1
ENDMDL
MODEL 2
REMARK VINA RESULT: -4.235560388      2.416      2.914
REMARK  1 active torsions:
REMARK  status: ('A' for Active; 'I' for Inactive)
REMARK    1  A    between atoms: C2_2  and  C3_5 
ROOT
HETATM    1  C3  UNL     1       2.062  -1.118  20.885  1.00  0.00     0.038 C 
HETATM    2  C4  UNL     1       1.875  -1.900  22.189  1.00  0.00     0.023 C 
HETATM    3  C5  UNL     1       1.052  -1.630  19.916  1.00  0.00     0.024 C 
HETATM    4  C6  UNL     1       1.548  -2.970  19.373  1.00  0.00     0.074 C 
HETATM    5  C7  UNL     1       2.750  -2.623  18.539  1.00  0.00     0.088 C 
HETATM    6  N1  UNL     1       2.900  -3.187  17.258  1.00  0.00    -0.088 NA
HETATM    7  N2  UNL     1       3.582  -1.814  19.066  1.00  0.00    -0.381 N 
ATOM      8  H2  UNL     1       4.404  -1.565  18.515  1.00  0.00     0.160 HD
HETATM    9  C8  UNL     1       3.459  -1.218  20.374  1.00  0.00     0.135 C 
ENDROOT
BRANCH   1  10
HETATM   10  C2  UNL     1       1.798   0.341  21.247  1.00  0.00     0.248 C 
HETATM   11  C1  UNL     1       0.368   0.689  21.023  1.00  0.00     0.091 C 
HETATM   12  F1  UNL     1       2.091   0.504  22.579  1.00  0.00    -0.206 F 
HETATM   13  F2  UNL     1       2.610   1.159  20.518  1.00  0.00    -0.206 F 
ENDBRANCH   1  10
TORSDOF 1
ENDMDL
MODEL 3
REMARK VINA RESULT: -4.005362001     10.947     11.818
REMARK  1 active torsions:
REMARK  status: ('A' for Active; 'I' for Inactive)
REMARK    1  A    between atoms: C2_2  and  C3_5 
ROOT
HETATM    1  C3  UNL     1       9.225  -6.898  26.814  1.00  0.00     0.038 C 
HETATM    2  C4  UNL     1       8.064  -7.851  27.113  1.00  0.00     0.023 C 
HETATM    3  C5  UNL     1       9.477  -6.107  28.053  1.00  0.00     0.024 C 
HETATM    4  C6  UNL     1       8.403  -5.025  28.154  1.00  0.00     0.074 C 
HETATM    5  C7  UNL     1       8.701  -4.082  27.021  1.00  0.00     0.088 C 
HETATM    6  N1  UNL     1       8.702  -2.693  27.248  1.00  0.00    -0.088 NA
HETATM    7  N2  UNL     1       8.941  -4.623  25.892  1.00  0.00    -0.381 N 
ATOM      8  H2  UNL     1       9.147  -4.001  25.111  1.00  0.00     0.160 HD
HETATM    9  C8  UNL     1       8.948  -6.042  25.626  1.00  0.00     0.135 C 
ENDROOT
BRANCH   1  10
HETATM   10  C2  UNL     1      10.411  -7.799  26.477  1.00  0.00     0.248 C 
HETATM   11  C1  UNL     1      11.200  -8.111  27.700  1.00  0.00     0.091 C 
HETATM   12  F1  UNL     1       9.915  -8.969  25.957  1.00  0.00    -0.206 F 
HETATM   13  F2  UNL     1      11.200  -7.203  25.537  1.00  0.00    -0.206 F 
ENDBRANCH   1  10
TORSDOF 1
ENDMDL
MODEL 4
REMARK VINA RESULT: -3.880260508     10.195     11.052
REMARK  1 active torsions:
REMARK  status: ('A' for Active; 'I' for Inactive)
REMARK    1  A    between atoms: C2_2  and  C3_5 
ROOT
HETATM    1  C3  UNL     1      -4.713  -7.984  14.254  1.00  0.00     0.038 C 
HETATM    2  C4  UNL     1      -5.972  -7.411  14.913  1.00  0.00     0.023 C 
HETATM    3  C5  UNL     1      -4.469  -9.323  14.860  1.00  0.00     0.024 C 
HETATM    4  C6  UNL     1      -3.847  -9.115  16.241  1.00  0.00     0.074 C 
HETATM    5  C7  UNL     1      -2.479  -8.556  15.964  1.00  0.00     0.088 C 
HETATM    6  N1  UNL     1      -1.361  -9.074  16.643  1.00  0.00    -0.088 NA
HETATM    7  N2  UNL     1      -2.422  -7.617  15.103  1.00  0.00    -0.381 N 
ATOM      8  H2  UNL     1      -1.503  -7.225  14.901  1.00  0.00     0.160 HD
HETATM    9  C8  UNL     1      -3.548  -7.064  14.390  1.00  0.00     0.135 C 
ENDROOT
BRANCH   1  10
HETATM   10  C2  UNL     1      -5.050  -8.097  12.769  1.00  0.00     0.248 C 
HETATM   11  C1  UNL     1      -4.359  -7.033  11.989  1.00  0.00     0.091 C 
HETATM   12  F1  UNL     1      -4.614  -9.323  12.331  1.00  0.00    -0.206 F 
HETATM   13  F2  UNL     1      -6.400  -8.023  12.587  1.00  0.00    -0.206 F 
ENDBRANCH   1  10
TORSDOF 1
ENDMDL
MODEL 5
REMARK VINA RESULT: -3.765739756      7.961      8.762
REMARK  1 active torsions:
REMARK  status: ('A' for Active; 'I' for Inactive)
REMARK    1  A    between atoms: C2_2  and  C3_5 
ROOT
HETATM    1  C3  UNL     1      -0.011  -8.393  24.323  1.00  0.00     0.038 C 
HETATM    2  C4  UNL     1      -0.543  -9.138  25.551  1.00  0.00     0.023 C 
HETATM    3  C5  UNL     1      -1.146  -7.612  23.754  1.00  0.00     0.024 C 
HETATM    4  C6  UNL     1      -2.048  -8.575  22.981  1.00  0.00     0.074 C 
HETATM    5  C7  UNL     1      -1.228  -8.995  21.793  1.00  0.00     0.088 C 
HETATM    6  N1  UNL     1      -1.809  -9.005  20.511  1.00  0.00    -0.088 NA
HETATM    7  N2  UNL     1      -0.021  -9.324  22.034  1.00  0.00    -0.381 N 
ATOM      8  H2  UNL     1       0.552  -9.611  21.241  1.00  0.00     0.160 HD
HETATM    9  C8  UNL     1       0.605  -9.324  23.334  1.00  0.00     0.135 C 
ENDROOT
BRANCH   1  10
HETATM   10  C2  UNL     1       1.088  -7.475  24.851  1.00  0.00     0.248 C 
HETATM   11  C1  UNL     1       2.413  -8.151  24.791  1.00  0.00     0.091 C 
HETATM   12  F1  UNL     1       1.123  -6.358  24.053  1.00  0.00    -0.206 F 
HETATM   13  F2  UNL     1       0.804  -7.091  26.129  1.00  0.00    -0.206 F 
ENDBRANCH   1  10
TORSDOF 1
ENDMDL
