MODEL 1
REMARK VINA RESULT: -8.525248956      0.000      0.000
REMARK  11 active torsions:
REMARK  status: ('A' for Active; 'I' for Inactive)
REMARK    1  A    between atoms: C2_2  and  C3_3 
REMARK    2  A    between atoms: C3_3  and  C4_4 
REMARK    3  A    between atoms: C5_5  and  C6_6 
REMARK    4  A    between atoms: C6_6  and  C7_7 
REMARK    5  A    between atoms: C7_7  and  C8_8 
REMARK    6  A    between atoms: C8_8  and  C9_9 
REMARK    7  A    between atoms: C9_9  and  C10_10 
REMARK    8  A    between atoms: C10_10  and  O1_11 
REMARK    9  A    between atoms: N1_13  and  O2_15 
REMARK   10  A    between atoms: C17_24  and  O4_25 
REMARK   11  A    between atoms: C22_32  and  O5_33 
ROOT
HETATM    1  C4  UNL     1       6.392  -2.662  45.478  1.00  0.00    -0.010 C 
HETATM    2  C5  UNL     1       6.540  -3.167  44.262  1.00  0.00    -0.070 C 
HETATM    3  C11 UNL     1       7.844  -3.170  43.513  1.00  0.00     0.041 C 
HETATM    4  C12 UNL     1       8.985  -3.824  44.287  1.00  0.00     0.012 C 
HETATM    5  C13 UNL     1       9.597  -3.034  45.338  1.00  0.00    -0.006 C 
HETATM    6  C14 UNL     1       9.677  -3.887  46.624  1.00  0.00     0.018 C 
HETATM    7  C15 UNL     1       8.841  -1.767  45.782  1.00  0.00     0.095 C 
HETATM    8  C16 UNL     1       7.490  -2.129  46.318  1.00  0.00     0.156 C 
HETATM    9  O3  UNL     1       7.258  -1.981  47.548  1.00  0.00    -0.293 OA
HETATM   10  C17 UNL     1      11.004  -2.529  45.179  1.00  0.00     0.127 C 
HETATM   11  C18 UNL     1      12.047  -3.619  45.260  1.00  0.00     0.036 C 
HETATM   12  C19 UNL     1      12.251  -4.017  43.838  1.00  0.00     0.047 C 
HETATM   13  C20 UNL     1      11.165  -4.875  43.388  1.00  0.00     0.113 C 
HETATM   14  F1  UNL     1      11.271  -6.096  44.077  1.00  0.00    -0.242 F 
HETATM   15  C21 UNL     1      11.565  -5.251  41.940  1.00  0.00     0.076 C 
HETATM   16  C22 UNL     1      11.104  -4.033  41.217  1.00  0.00     0.122 C 
HETATM   17  C23 UNL     1       9.790  -3.720  41.896  1.00  0.00     0.044 C 
HETATM   18  C24 UNL     1       9.797  -4.485  43.229  1.00  0.00    -0.001 C 
HETATM   19  C25 UNL     1       9.049  -5.798  42.880  1.00  0.00     0.019 C 
ENDROOT
BRANCH   2  20
HETATM   20  C6  UNL     1       5.433  -3.735  43.526  1.00  0.00     0.035 C 
BRANCH  20  21
HETATM   21  C7  UNL     1       5.665  -3.722  42.001  1.00  0.00     0.005 C 
BRANCH  21  22
HETATM   22  C8  UNL     1       4.612  -2.781  41.441  1.00  0.00     0.008 C 
BRANCH  22  23
HETATM   23  C9  UNL     1       3.230  -3.157  41.857  1.00  0.00     0.086 C 
BRANCH  23  24
HETATM   24  C10 UNL     1       2.764  -4.253  40.932  1.00  0.00     0.135 C 
HETATM   25  N1  UNL     1       2.611  -5.454  41.360  1.00  0.00    -0.251 N 
ATOM     26  H1  UNL     1       2.803  -5.681  42.336  1.00  0.00     0.196 HD
BRANCH  24  27
HETATM   27  O1  UNL     1       2.491  -3.987  39.599  1.00  0.00    -0.348 OA
ATOM     28  H1  UNL     1       2.345  -3.096  39.302  1.00  0.00     0.219 HD
ENDBRANCH  24  27
BRANCH  25  29
HETATM   29  O2  UNL     1       2.187  -6.426  40.496  1.00  0.00    -0.288 OA
ATOM     30  H2  UNL     1       2.539  -6.451  39.614  1.00  0.00     0.244 HD
ENDBRANCH  25  29
ENDBRANCH  23  24
ENDBRANCH  22  23
ENDBRANCH  21  22
ENDBRANCH  20  21
ENDBRANCH   2  20
BRANCH   1  31
HETATM   31  C3  UNL     1       5.054  -2.710  46.032  1.00  0.00     0.042 C 
BRANCH  31  32
HETATM   32  C2  UNL     1       4.257  -1.448  46.042  1.00  0.00     0.000 C 
HETATM   33  C1  UNL     1       3.851  -0.886  44.714  1.00  0.00     0.005 C 
ENDBRANCH  31  32
ENDBRANCH   1  31
BRANCH  10  34
HETATM   34  O4  UNL     1      11.232  -1.693  44.133  1.00  0.00    -0.395 OA
ATOM     35  H4  UNL     1      11.624  -0.853  44.340  1.00  0.00     0.210 HD
ENDBRANCH  10  34
BRANCH  16  36
HETATM   36  O5  UNL     1      10.936  -4.282  39.835  1.00  0.00    -0.395 OA
ATOM     37  H5  UNL     1      10.068  -4.033  39.538  1.00  0.00     0.210 HD
ENDBRANCH  16  36
TORSDOF 11
ENDMDL
MODEL 2
REMARK VINA RESULT: -8.080104138      1.262      1.395
REMARK  11 active torsions:
REMARK  status: ('A' for Active; 'I' for Inactive)
REMARK    1  A    between atoms: C2_2  and  C3_3 
REMARK    2  A    between atoms: C3_3  and  C4_4 
REMARK    3  A    between atoms: C5_5  and  C6_6 
REMARK    4  A    between atoms: C6_6  and  C7_7 
REMARK    5  A    between atoms: C7_7  and  C8_8 
REMARK    6  A    between atoms: C8_8  and  C9_9 
REMARK    7  A    between atoms: C9_9  and  C10_10 
REMARK    8  A    between atoms: C10_10  and  O1_11 
REMARK    9  A    between atoms: N1_13  and  O2_15 
REMARK   10  A    between atoms: C17_24  and  O4_25 
REMARK   11  A    between atoms: C22_32  and  O5_33 
ROOT
HETATM    1  C4  UNL     1       6.464  -2.568  45.402  1.00  0.00    -0.010 C 
HETATM    2  C5  UNL     1       6.616  -3.067  44.184  1.00  0.00    -0.070 C 
HETATM    3  C11 UNL     1       7.930  -3.102  43.455  1.00  0.00     0.041 C 
HETATM    4  C12 UNL     1       9.040  -3.794  44.240  1.00  0.00     0.012 C 
HETATM    5  C13 UNL     1       9.659  -3.030  45.306  1.00  0.00    -0.006 C 
HETATM    6  C14 UNL     1       9.695  -3.895  46.586  1.00  0.00     0.018 C 
HETATM    7  C15 UNL     1       8.933  -1.745  45.750  1.00  0.00     0.095 C 
HETATM    8  C16 UNL     1       7.564  -2.073  46.262  1.00  0.00     0.156 C 
HETATM    9  O3  UNL     1       7.318  -1.928  47.490  1.00  0.00    -0.293 OA
HETATM   10  C17 UNL     1      11.082  -2.564  45.172  1.00  0.00     0.127 C 
HETATM   11  C18 UNL     1      12.093  -3.684  45.259  1.00  0.00     0.036 C 
HETATM   12  C19 UNL     1      12.306  -4.077  43.837  1.00  0.00     0.047 C 
HETATM   13  C20 UNL     1      11.202  -4.900  43.364  1.00  0.00     0.113 C 
HETATM   14  F1  UNL     1      11.263  -6.128  44.044  1.00  0.00    -0.242 F 
HETATM   15  C21 UNL     1      11.613  -5.276  41.919  1.00  0.00     0.076 C 
HETATM   16  C22 UNL     1      11.198  -4.039  41.199  1.00  0.00     0.122 C 
HETATM   17  C23 UNL     1       9.883  -3.694  41.862  1.00  0.00     0.044 C 
HETATM   18  C24 UNL     1       9.849  -4.470  43.188  1.00  0.00    -0.001 C 
HETATM   19  C25 UNL     1       9.069  -5.758  42.818  1.00  0.00     0.019 C 
ENDROOT
BRANCH   2  20
HETATM   20  C6  UNL     1       5.504  -3.597  43.428  1.00  0.00     0.035 C 
BRANCH  20  21
HETATM   21  C7  UNL     1       5.684  -3.420  41.905  1.00  0.00     0.005 C 
BRANCH  21  22
HETATM   22  C8  UNL     1       5.001  -4.624  41.277  1.00  0.00     0.008 C 
BRANCH  22  23
HETATM   23  C9  UNL     1       5.972  -5.588  40.685  1.00  0.00     0.086 C 
BRANCH  23  24
HETATM   24  C10 UNL     1       5.227  -6.410  39.664  1.00  0.00     0.135 C 
HETATM   25  N1  UNL     1       4.532  -7.429  40.020  1.00  0.00    -0.251 N 
ATOM     26  H1  UNL     1       4.475  -7.696  41.003  1.00  0.00     0.196 HD
BRANCH  24  27
HETATM   27  O1  UNL     1       5.276  -6.081  38.318  1.00  0.00    -0.348 OA
ATOM     28  H1  UNL     1       4.676  -5.442  37.951  1.00  0.00     0.219 HD
ENDBRANCH  24  27
BRANCH  25  29
HETATM   29  O2  UNL     1       3.868  -8.154  39.069  1.00  0.00    -0.288 OA
ATOM     30  H2  UNL     1       4.291  -8.911  38.681  1.00  0.00     0.244 HD
ENDBRANCH  25  29
ENDBRANCH  23  24
ENDBRANCH  22  23
ENDBRANCH  21  22
ENDBRANCH  20  21
ENDBRANCH   2  20
BRANCH   1  31
HETATM   31  C3  UNL     1       5.117  -2.581  45.936  1.00  0.00     0.042 C 
BRANCH  31  32
HETATM   32  C2  UNL     1       4.302  -1.338  45.805  1.00  0.00     0.000 C 
HETATM   33  C1  UNL     1       3.619  -1.104  44.493  1.00  0.00     0.005 C 
ENDBRANCH  31  32
ENDBRANCH   1  31
BRANCH  10  34
HETATM   34  O4  UNL     1      11.350  -1.728  44.137  1.00  0.00    -0.395 OA
ATOM     35  H4  UNL     1      12.102  -1.157  44.237  1.00  0.00     0.210 HD
ENDBRANCH  10  34
BRANCH  16  36
HETATM   36  O5  UNL     1      11.044  -4.272  39.813  1.00  0.00    -0.395 OA
ATOM     37  H5  UNL     1      11.882  -4.297  39.367  1.00  0.00     0.210 HD
ENDBRANCH  16  36
TORSDOF 11
ENDMDL
MODEL 3
REMARK VINA RESULT: -8.070211163      1.540      2.044
REMARK  11 active torsions:
REMARK  status: ('A' for Active; 'I' for Inactive)
REMARK    1  A    between atoms: C2_2  and  C3_3 
REMARK    2  A    between atoms: C3_3  and  C4_4 
REMARK    3  A    between atoms: C5_5  and  C6_6 
REMARK    4  A    between atoms: C6_6  and  C7_7 
REMARK    5  A    between atoms: C7_7  and  C8_8 
REMARK    6  A    between atoms: C8_8  and  C9_9 
REMARK    7  A    between atoms: C9_9  and  C10_10 
REMARK    8  A    between atoms: C10_10  and  O1_11 
REMARK    9  A    between atoms: N1_13  and  O2_15 
REMARK   10  A    between atoms: C17_24  and  O4_25 
REMARK   11  A    between atoms: C22_32  and  O5_33 
ROOT
HETATM    1  C4  UNL     1       7.985  -2.068  46.119  1.00  0.00    -0.010 C 
HETATM    2  C5  UNL     1       7.309  -2.508  45.067  1.00  0.00    -0.070 C 
HETATM    3  C11 UNL     1       7.951  -2.879  43.759  1.00  0.00     0.041 C 
HETATM    4  C12 UNL     1       9.060  -3.917  43.901  1.00  0.00     0.012 C 
HETATM    5  C13 UNL     1      10.341  -3.441  44.387  1.00  0.00    -0.006 C 
HETATM    6  C14 UNL     1      10.814  -4.362  45.535  1.00  0.00     0.018 C 
HETATM    7  C15 UNL     1      10.365  -2.032  45.011  1.00  0.00     0.095 C 
HETATM    8  C16 UNL     1       9.461  -1.977  46.205  1.00  0.00     0.156 C 
HETATM    9  O3  UNL     1       9.967  -1.847  47.352  1.00  0.00    -0.293 OA
HETATM   10  C17 UNL     1      11.530  -3.406  43.469  1.00  0.00     0.127 C 
HETATM   11  C18 UNL     1      12.064  -4.777  43.123  1.00  0.00     0.036 C 
HETATM   12  C19 UNL     1      11.357  -5.119  41.855  1.00  0.00     0.047 C 
HETATM   13  C20 UNL     1       9.994  -5.549  42.132  1.00  0.00     0.113 C 
HETATM   14  F1  UNL     1      10.062  -6.783  42.801  1.00  0.00    -0.242 F 
HETATM   15  C21 UNL     1       9.437  -5.932  40.739  1.00  0.00     0.076 C 
HETATM   16  C22 UNL     1       9.068  -4.583  40.224  1.00  0.00     0.122 C 
HETATM   17  C23 UNL     1       8.478  -3.912  41.444  1.00  0.00     0.044 C 
HETATM   18  C24 UNL     1       8.946  -4.729  42.659  1.00  0.00    -0.001 C 
HETATM   19  C25 UNL     1       7.764  -5.704  42.898  1.00  0.00     0.019 C 
ENDROOT
BRANCH   2  20
HETATM   20  C6  UNL     1       5.869  -2.637  45.079  1.00  0.00     0.035 C 
BRANCH  20  21
HETATM   21  C7  UNL     1       5.383  -3.923  44.378  1.00  0.00     0.005 C 
BRANCH  21  22
HETATM   22  C8  UNL     1       4.308  -3.469  43.405  1.00  0.00     0.008 C 
BRANCH  22  23
HETATM   23  C9  UNL     1       4.836  -3.268  42.024  1.00  0.00     0.086 C 
BRANCH  23  24
HETATM   24  C10 UNL     1       4.450  -4.479  41.213  1.00  0.00     0.135 C 
HETATM   25  N1  UNL     1       3.287  -5.010  41.336  1.00  0.00    -0.251 N 
ATOM     26  H1  UNL     1       2.608  -4.617  41.988  1.00  0.00     0.196 HD
BRANCH  24  27
HETATM   27  O1  UNL     1       5.343  -5.044  40.315  1.00  0.00    -0.348 OA
ATOM     28  H1  UNL     1       5.445  -5.988  40.261  1.00  0.00     0.219 HD
ENDBRANCH  24  27
BRANCH  25  29
HETATM   29  O2  UNL     1       2.969  -6.109  40.586  1.00  0.00    -0.288 OA
ATOM     30  H2  UNL     1       2.070  -6.417  40.570  1.00  0.00     0.244 HD
ENDBRANCH  25  29
ENDBRANCH  23  24
ENDBRANCH  22  23
ENDBRANCH  21  22
ENDBRANCH  20  21
ENDBRANCH   2  20
BRANCH   1  31
HETATM   31  C3  UNL     1       7.198  -1.721  47.286  1.00  0.00     0.042 C 
BRANCH  31  32
HETATM   32  C2  UNL     1       6.875  -0.281  47.506  1.00  0.00     0.000 C 
HETATM   33  C1  UNL     1       5.504   0.179  47.119  1.00  0.00     0.005 C 
ENDBRANCH  31  32
ENDBRANCH   1  31
BRANCH  10  34
HETATM   34  O4  UNL     1      11.421  -2.618  42.369  1.00  0.00    -0.395 OA
ATOM     35  H4  UNL     1      11.083  -1.741  42.508  1.00  0.00     0.210 HD
ENDBRANCH  10  34
BRANCH  16  36
HETATM   36  O5  UNL     1       8.134  -4.668  39.166  1.00  0.00    -0.395 OA
ATOM     37  H5  UNL     1       8.564  -4.816  38.332  1.00  0.00     0.210 HD
ENDBRANCH  16  36
TORSDOF 11
ENDMDL
MODEL 4
REMARK VINA RESULT: -8.062921412      3.350      6.279
REMARK  11 active torsions:
REMARK  status: ('A' for Active; 'I' for Inactive)
REMARK    1  A    between atoms: C2_2  and  C3_3 
REMARK    2  A    between atoms: C3_3  and  C4_4 
REMARK    3  A    between atoms: C5_5  and  C6_6 
REMARK    4  A    between atoms: C6_6  and  C7_7 
REMARK    5  A    between atoms: C7_7  and  C8_8 
REMARK    6  A    between atoms: C8_8  and  C9_9 
REMARK    7  A    between atoms: C9_9  and  C10_10 
REMARK    8  A    between atoms: C10_10  and  O1_11 
REMARK    9  A    between atoms: N1_13  and  O2_15 
REMARK   10  A    between atoms: C17_24  and  O4_25 
REMARK   11  A    between atoms: C22_32  and  O5_33 
ROOT
HETATM    1  C4  UNL     1       6.800  -2.936  44.504  1.00  0.00    -0.010 C 
HETATM    2  C5  UNL     1       8.091  -2.901  44.804  1.00  0.00    -0.070 C 
HETATM    3  C11 UNL     1       9.098  -3.881  44.270  1.00  0.00     0.041 C 
HETATM    4  C12 UNL     1       9.112  -3.965  42.747  1.00  0.00     0.012 C 
HETATM    5  C13 UNL     1       8.048  -4.731  42.126  1.00  0.00    -0.006 C 
HETATM    6  C14 UNL     1       7.419  -3.887  40.994  1.00  0.00     0.018 C 
HETATM    7  C15 UNL     1       6.848  -5.101  43.020  1.00  0.00     0.095 C 
HETATM    8  C16 UNL     1       6.178  -3.862  43.529  1.00  0.00     0.156 C 
HETATM    9  O3  UNL     1       5.022  -3.576  43.115  1.00  0.00    -0.293 OA
HETATM   10  C17 UNL     1       8.355  -6.035  41.445  1.00  0.00     0.127 C 
HETATM   11  C18 UNL     1       9.122  -5.873  40.153  1.00  0.00     0.036 C 
HETATM   12  C19 UNL     1      10.547  -5.994  40.572  1.00  0.00     0.047 C 
HETATM   13  C20 UNL     1      11.007  -4.754  41.182  1.00  0.00     0.113 C 
HETATM   14  F1  UNL     1      11.055  -3.775  40.174  1.00  0.00    -0.242 F 
HETATM   15  C21 UNL     1      12.501  -5.023  41.485  1.00  0.00     0.076 C 
HETATM   16  C22 UNL     1      12.377  -5.781  42.761  1.00  0.00     0.122 C 
HETATM   17  C23 UNL     1      11.275  -5.039  43.483  1.00  0.00     0.044 C 
HETATM   18  C24 UNL     1      10.544  -4.205  42.419  1.00  0.00    -0.001 C 
HETATM   19  C25 UNL     1      11.239  -2.823  42.523  1.00  0.00     0.019 C 
ENDROOT
BRANCH   2  20
HETATM   20  C6  UNL     1       8.640  -1.921  45.714  1.00  0.00     0.035 C 
BRANCH  20  21
HETATM   21  C7  UNL     1       9.243  -2.563  46.982  1.00  0.00     0.005 C 
BRANCH  21  22
HETATM   22  C8  UNL     1      10.748  -2.421  46.828  1.00  0.00     0.008 C 
BRANCH  22  23
HETATM   23  C9  UNL     1      11.148  -1.066  46.351  1.00  0.00     0.086 C 
BRANCH  23  24
HETATM   24  C10 UNL     1      11.850  -0.374  47.492  1.00  0.00     0.135 C 
HETATM   25  N1  UNL     1      12.155  -1.015  48.562  1.00  0.00    -0.251 N 
ATOM     26  H1  UNL     1      11.926  -2.005  48.652  1.00  0.00     0.196 HD
BRANCH  24  27
HETATM   27  O1  UNL     1      12.180   0.970  47.410  1.00  0.00    -0.348 OA
ATOM     28  H1  UNL     1      12.467   1.448  48.180  1.00  0.00     0.219 HD
ENDBRANCH  24  27
BRANCH  25  29
HETATM   29  O2  UNL     1      12.791  -0.358  49.579  1.00  0.00    -0.288 OA
ATOM     30  H2  UNL     1      13.107  -0.852  50.327  1.00  0.00     0.244 HD
ENDBRANCH  25  29
ENDBRANCH  23  24
ENDBRANCH  22  23
ENDBRANCH  21  22
ENDBRANCH  20  21
ENDBRANCH   2  20
BRANCH   1  31
HETATM   31  C3  UNL     1       5.967  -1.936  45.141  1.00  0.00     0.042 C 
BRANCH  31  32
HETATM   32  C2  UNL     1       4.891  -2.406  46.062  1.00  0.00     0.000 C 
HETATM   33  C1  UNL     1       3.512  -1.868  45.835  1.00  0.00     0.005 C 
ENDBRANCH  31  32
ENDBRANCH   1  31
BRANCH  10  34
HETATM   34  O4  UNL     1       8.886  -7.013  42.223  1.00  0.00    -0.395 OA
ATOM     35  H4  UNL     1       9.046  -7.849  41.802  1.00  0.00     0.210 HD
ENDBRANCH  10  34
BRANCH  16  36
HETATM   36  O5  UNL     1      13.588  -5.768  43.493  1.00  0.00    -0.395 OA
ATOM     37  H5  UNL     1      14.162  -6.479  43.231  1.00  0.00     0.210 HD
ENDBRANCH  16  36
TORSDOF 11
ENDMDL
MODEL 5
REMARK VINA RESULT: -7.952419663      2.168      4.599
REMARK  11 active torsions:
REMARK  status: ('A' for Active; 'I' for Inactive)
REMARK    1  A    between atoms: C2_2  and  C3_3 
REMARK    2  A    between atoms: C3_3  and  C4_4 
REMARK    3  A    between atoms: C5_5  and  C6_6 
REMARK    4  A    between atoms: C6_6  and  C7_7 
REMARK    5  A    between atoms: C7_7  and  C8_8 
REMARK    6  A    between atoms: C8_8  and  C9_9 
REMARK    7  A    between atoms: C9_9  and  C10_10 
REMARK    8  A    between atoms: C10_10  and  O1_11 
REMARK    9  A    between atoms: N1_13  and  O2_15 
REMARK   10  A    between atoms: C17_24  and  O4_25 
REMARK   11  A    between atoms: C22_32  and  O5_33 
ROOT
HETATM    1  C4  UNL     1      10.306  -2.392  45.588  1.00  0.00    -0.010 C 
HETATM    2  C5  UNL     1       9.012  -2.429  45.302  1.00  0.00    -0.070 C 
HETATM    3  C11 UNL     1       8.467  -2.802  43.952  1.00  0.00     0.041 C 
HETATM    4  C12 UNL     1       8.957  -4.159  43.454  1.00  0.00     0.012 C 
HETATM    5  C13 UNL     1      10.303  -4.209  42.917  1.00  0.00    -0.006 C 
HETATM    6  C14 UNL     1      11.060  -5.387  43.571  1.00  0.00     0.018 C 
HETATM    7  C15 UNL     1      11.206  -2.991  43.196  1.00  0.00     0.095 C 
HETATM    8  C16 UNL     1      11.392  -2.809  44.671  1.00  0.00     0.156 C 
HETATM    9  O3  UNL     1      12.528  -3.019  45.176  1.00  0.00    -0.293 OA
HETATM   10  C17 UNL     1      10.521  -4.440  41.448  1.00  0.00     0.127 C 
HETATM   11  C18 UNL     1      10.190  -5.847  41.005  1.00  0.00     0.036 C 
HETATM   12  C19 UNL     1       8.768  -5.752  40.567  1.00  0.00     0.047 C 
HETATM   13  C20 UNL     1       7.879  -5.740  41.721  1.00  0.00     0.113 C 
HETATM   14  F1  UNL     1       7.942  -7.008  42.322  1.00  0.00    -0.242 F 
HETATM   15  C21 UNL     1       6.463  -5.715  41.096  1.00  0.00     0.076 C 
HETATM   16  C22 UNL     1       6.336  -4.261  40.793  1.00  0.00     0.122 C 
HETATM   17  C23 UNL     1       6.961  -3.612  42.007  1.00  0.00     0.044 C 
HETATM   18  C24 UNL     1       7.793  -4.702  42.703  1.00  0.00    -0.001 C 
HETATM   19  C25 UNL     1       6.817  -5.253  43.775  1.00  0.00     0.019 C 
ENDROOT
BRANCH   2  20
HETATM   20  C6  UNL     1       8.001  -2.073  46.272  1.00  0.00     0.035 C 
BRANCH  20  21
HETATM   21  C7  UNL     1       6.713  -1.534  45.616  1.00  0.00     0.005 C 
BRANCH  21  22
HETATM   22  C8  UNL     1       5.594  -2.418  46.141  1.00  0.00     0.008 C 
BRANCH  22  23
HETATM   23  C9  UNL     1       4.867  -3.129  45.050  1.00  0.00     0.086 C 
BRANCH  23  24
HETATM   24  C10 UNL     1       3.850  -2.170  44.486  1.00  0.00     0.135 C 
HETATM   25  N1  UNL     1       3.673  -2.070  43.218  1.00  0.00    -0.251 N 
ATOM     26  H1  UNL     1       4.222  -2.642  42.574  1.00  0.00     0.196 HD
BRANCH  24  27
HETATM   27  O1  UNL     1       3.083  -1.376  45.324  1.00  0.00    -0.348 OA
ATOM     28  H1  UNL     1       2.627  -0.613  44.987  1.00  0.00     0.219 HD
ENDBRANCH  24  27
BRANCH  25  29
HETATM   29  O2  UNL     1       2.743  -1.190  42.737  1.00  0.00    -0.288 OA
ATOM     30  H2  UNL     1       2.921  -0.717  41.933  1.00  0.00     0.244 HD
ENDBRANCH  25  29
ENDBRANCH  23  24
ENDBRANCH  22  23
ENDBRANCH  21  22
ENDBRANCH  20  21
ENDBRANCH   2  20
BRANCH   1  31
HETATM   31  C3  UNL     1      10.653  -1.972  46.931  1.00  0.00     0.042 C 
BRANCH  31  32
HETATM   32  C2  UNL     1      11.085  -0.558  47.130  1.00  0.00     0.000 C 
HETATM   33  C1  UNL     1      12.355  -0.332  47.891  1.00  0.00     0.005 C 
ENDBRANCH  31  32
ENDBRANCH   1  31
BRANCH  10  34
HETATM   34  O4  UNL     1       9.997  -3.514  40.605  1.00  0.00    -0.395 OA
ATOM     35  H4  UNL     1       9.665  -3.836  39.776  1.00  0.00     0.210 HD
ENDBRANCH  10  34
BRANCH  16  36
HETATM   36  O5  UNL     1       4.984  -3.881  40.630  1.00  0.00    -0.395 OA
ATOM     37  H5  UNL     1       4.393  -4.595  40.838  1.00  0.00     0.210 HD
ENDBRANCH  16  36
TORSDOF 11
ENDMDL
