MODEL 1
REMARK VINA RESULT: -8.826860248      0.000      0.000
REMARK  11 active torsions:
REMARK  status: ('A' for Active; 'I' for Inactive)
REMARK    1  A    between atoms: C2_2  and  C3_3 
REMARK    2  A    between atoms: C3_3  and  C4_4 
REMARK    3  A    between atoms: C4_4  and  C5_5 
REMARK       I    between atoms: C5_5  and  N1_7 
REMARK    4  A    between atoms: N2_10  and  C8_11 
REMARK    5  A    between atoms: C8_11  and  C9_12 
REMARK    6  A    between atoms: C9_12  and  C10_13 
REMARK    7  A    between atoms: C10_13  and  N3_14 
REMARK       I    between atoms: N3_14  and  C11_15 
REMARK    8  A    between atoms: N3_14  and  C21_27 
REMARK    9  A    between atoms: C11_15  and  C12_17 
REMARK   10  A    between atoms: C12_17  and  S1_18 
REMARK   11  A    between atoms: S1_18  and  C13_19 
REMARK       I    between atoms: N5_30  and  C23_31 
ROOT
HETATM    1  N3  UNL     1       6.426  -1.877  14.705  1.00  0.00    -0.310 N 
HETATM    2  C11 UNL     1       6.446  -0.534  14.253  1.00  0.00     0.234 C 
HETATM    3  O2  UNL     1       5.443   0.154  14.559  1.00  0.00    -0.272 OA
ENDROOT
BRANCH   1   4
HETATM    4  C10 UNL     1       7.513  -2.752  14.337  1.00  0.00     0.134 C 
BRANCH   4   5
HETATM    5  C9  UNL     1       8.632  -2.803  15.340  1.00  0.00     0.040 C 
BRANCH   5   6
HETATM    6  C8  UNL     1       9.314  -4.160  15.139  1.00  0.00     0.128 C 
BRANCH   6   7
HETATM    7  N2  UNL     1       8.891  -5.056  16.123  1.00  0.00    -0.371 N 
HETATM    8  C7  UNL     1       8.656  -4.519  17.385  1.00  0.00     0.083 C 
HETATM    9  C6  UNL     1       7.404  -4.912  18.097  1.00  0.00     0.170 C 
HETATM   10  N1  UNL     1       7.001  -6.240  17.738  1.00  0.00    -0.343 N 
HETATM   11  C5  UNL     1       5.725  -6.716  18.157  1.00  0.00     0.220 C 
HETATM   12  C28 UNL     1       7.900  -7.072  16.966  1.00  0.00     0.170 C 
HETATM   13  O1  UNL     1       4.999  -5.988  18.854  1.00  0.00    -0.273 OA
HETATM   14  C27 UNL     1       8.360  -6.299  15.747  1.00  0.00     0.083 C 
BRANCH  11  15
HETATM   15  C4  UNL     1       5.316  -8.078  17.734  1.00  0.00     0.103 C 
BRANCH  15  16
HETATM   16  C3  UNL     1       3.939  -8.089  17.111  1.00  0.00     0.009 C 
BRANCH  16  17
HETATM   17  C2  UNL     1       3.189  -9.273  17.708  1.00  0.00    -0.004 C 
HETATM   18  C1  UNL     1       1.875  -8.858  18.333  1.00  0.00     0.005 C 
ENDBRANCH  16  17
ENDBRANCH  15  16
ENDBRANCH  11  15
ENDBRANCH   6   7
ENDBRANCH   5   6
ENDBRANCH   4   5
ENDBRANCH   1   4
BRANCH   1  19
HETATM   19  C21 UNL     1       5.348  -2.391  15.494  1.00  0.00     0.148 A 
HETATM   20  C22 UNL     1       4.281  -3.088  14.983  1.00  0.00     0.162 A 
HETATM   21  N4  UNL     1       4.255  -3.314  13.573  1.00  0.00    -0.079 NA
HETATM   22  N5  UNL     1       3.277  -3.558  15.776  1.00  0.00    -0.218 N 
HETATM   23  C23 UNL     1       2.202  -4.266  15.194  1.00  0.00     0.229 C 
HETATM   24  C25 UNL     1       3.294  -3.358  17.097  1.00  0.00     0.337 A 
HETATM   25  C24 UNL     1       1.072  -4.803  15.949  1.00  0.00     0.118 C 
HETATM   26  O3  UNL     1       2.227  -4.438  13.942  1.00  0.00    -0.273 OA
HETATM   27  O4  UNL     1       2.419  -3.752  17.910  1.00  0.00    -0.246 OA
HETATM   28  N6  UNL     1       4.348  -2.665  17.627  1.00  0.00    -0.273 N 
HETATM   29  C26 UNL     1       5.346  -2.192  16.867  1.00  0.00     0.279 A 
ATOM     30  H6  UNL     1       4.375  -2.502  18.634  1.00  0.00     0.173 HD
HETATM   31  O5  UNL     1       6.318  -1.550  17.382  1.00  0.00    -0.265 OA
ENDBRANCH   1  19
BRANCH   2  32
HETATM   32  C12 UNL     1       7.531   0.070  13.482  1.00  0.00     0.182 C 
BRANCH  32  33
HETATM   33  S1  UNL     1       7.189   0.600  11.826  1.00  0.00    -0.120 SA
BRANCH  33  34
HETATM   34  C13 UNL     1       5.864   1.698  11.579  1.00  0.00     0.007 A 
HETATM   35  C14 UNL     1       4.560   1.205  11.446  1.00  0.00     0.025 A 
HETATM   36  C15 UNL     1       3.467   2.030  11.292  1.00  0.00    -0.061 A 
HETATM   37  C16 UNL     1       2.094   1.481  11.154  1.00  0.00     0.048 C 
HETATM   38  C17 UNL     1       3.663   3.400  11.270  1.00  0.00     0.007 A 
HETATM   39  C18 UNL     1       4.924   3.905  11.399  1.00  0.00     0.009 A 
HETATM   40  C19 UNL     1       6.021   3.057  11.553  1.00  0.00    -0.045 A 
HETATM   41  C20 UNL     1       7.323   3.760  11.727  1.00  0.00     0.049 C 
ENDBRANCH  33  34
ENDBRANCH  32  33
ENDBRANCH   2  32
TORSDOF 11
ENDMDL
MODEL 2
REMARK VINA RESULT: -8.825916354      2.865      7.134
REMARK  11 active torsions:
REMARK  status: ('A' for Active; 'I' for Inactive)
REMARK    1  A    between atoms: C2_2  and  C3_3 
REMARK    2  A    between atoms: C3_3  and  C4_4 
REMARK    3  A    between atoms: C4_4  and  C5_5 
REMARK       I    between atoms: C5_5  and  N1_7 
REMARK    4  A    between atoms: N2_10  and  C8_11 
REMARK    5  A    between atoms: C8_11  and  C9_12 
REMARK    6  A    between atoms: C9_12  and  C10_13 
REMARK    7  A    between atoms: C10_13  and  N3_14 
REMARK       I    between atoms: N3_14  and  C11_15 
REMARK    8  A    between atoms: N3_14  and  C21_27 
REMARK    9  A    between atoms: C11_15  and  C12_17 
REMARK   10  A    between atoms: C12_17  and  S1_18 
REMARK   11  A    between atoms: S1_18  and  C13_19 
REMARK       I    between atoms: N5_30  and  C23_31 
ROOT
HETATM    1  N3  UNL     1       5.058  -1.331  13.414  1.00  0.00    -0.310 N 
HETATM    2  C11 UNL     1       4.850  -2.700  13.108  1.00  0.00     0.234 C 
HETATM    3  O2  UNL     1       4.707  -2.965  11.891  1.00  0.00    -0.272 OA
ENDROOT
BRANCH   1   4
HETATM    4  C10 UNL     1       5.164  -0.936  14.797  1.00  0.00     0.134 C 
BRANCH   4   5
HETATM    5  C9  UNL     1       6.551  -1.052  15.368  1.00  0.00     0.040 C 
BRANCH   5   6
HETATM    6  C8  UNL     1       6.407  -1.871  16.655  1.00  0.00     0.128 C 
BRANCH   6   7
HETATM    7  N2  UNL     1       7.097  -3.078  16.531  1.00  0.00    -0.371 N 
HETATM    8  C7  UNL     1       8.379  -3.002  15.995  1.00  0.00     0.083 C 
HETATM    9  C6  UNL     1       9.473  -3.757  16.676  1.00  0.00     0.170 C 
HETATM   10  N1  UNL     1       8.970  -4.943  17.303  1.00  0.00    -0.343 N 
HETATM   11  C5  UNL     1       9.822  -5.686  18.170  1.00  0.00     0.220 C 
HETATM   12  C28 UNL     1       7.611  -5.366  17.037  1.00  0.00     0.170 C 
HETATM   13  O1  UNL     1      10.995  -5.314  18.340  1.00  0.00    -0.273 OA
HETATM   14  C27 UNL     1       6.677  -4.196  17.268  1.00  0.00     0.083 C 
BRANCH  11  15
HETATM   15  C4  UNL     1       9.260  -6.885  18.840  1.00  0.00     0.103 C 
BRANCH  15  16
HETATM   16  C3  UNL     1      10.204  -8.064  18.778  1.00  0.00     0.009 C 
BRANCH  16  17
HETATM   17  C2  UNL     1       9.365  -9.291  18.447  1.00  0.00    -0.004 C 
HETATM   18  C1  UNL     1       8.407  -9.034  17.303  1.00  0.00     0.005 C 
ENDBRANCH  16  17
ENDBRANCH  15  16
ENDBRANCH  11  15
ENDBRANCH   6   7
ENDBRANCH   5   6
ENDBRANCH   4   5
ENDBRANCH   1   4
BRANCH   1  19
HETATM   19  C21 UNL     1       5.140  -0.335  12.391  1.00  0.00     0.148 A 
HETATM   20  C22 UNL     1       6.299   0.012  11.741  1.00  0.00     0.162 A 
HETATM   21  N4  UNL     1       7.495  -0.675  12.114  1.00  0.00    -0.079 NA
HETATM   22  N5  UNL     1       6.327   0.968  10.770  1.00  0.00    -0.218 N 
HETATM   23  C23 UNL     1       7.550   1.285  10.139  1.00  0.00     0.229 C 
HETATM   24  C25 UNL     1       5.214   1.612  10.409  1.00  0.00     0.337 A 
HETATM   25  C24 UNL     1       7.693   2.300   9.096  1.00  0.00     0.118 C 
HETATM   26  O3  UNL     1       8.578   0.649  10.506  1.00  0.00    -0.273 OA
HETATM   27  O4  UNL     1       5.137   2.507   9.527  1.00  0.00    -0.246 OA
HETATM   28  N6  UNL     1       4.048   1.284  11.045  1.00  0.00    -0.273 N 
HETATM   29  C26 UNL     1       3.996   0.347  12.002  1.00  0.00     0.279 A 
ATOM     30  H6  UNL     1       3.189   1.768  10.781  1.00  0.00     0.173 HD
HETATM   31  O5  UNL     1       2.899   0.056  12.580  1.00  0.00    -0.265 OA
ENDBRANCH   1  19
BRANCH   2  32
HETATM   32  C12 UNL     1       4.798  -3.776  14.095  1.00  0.00     0.182 C 
BRANCH  32  33
HETATM   33  S1  UNL     1       3.236  -4.152  14.844  1.00  0.00    -0.120 SA
BRANCH  33  34
HETATM   34  C13 UNL     1       3.235  -5.131  16.281  1.00  0.00     0.007 A 
HETATM   35  C14 UNL     1       3.417  -6.516  16.186  1.00  0.00     0.025 A 
HETATM   36  C15 UNL     1       3.469  -7.335  17.294  1.00  0.00    -0.061 A 
HETATM   37  C16 UNL     1       3.663  -8.802  17.165  1.00  0.00     0.048 C 
HETATM   38  C17 UNL     1       3.339  -6.768  18.549  1.00  0.00     0.007 A 
HETATM   39  C18 UNL     1       3.163  -5.421  18.668  1.00  0.00     0.009 A 
HETATM   40  C19 UNL     1       3.111  -4.604  17.538  1.00  0.00    -0.045 A 
HETATM   41  C20 UNL     1       2.960  -3.152  17.833  1.00  0.00     0.049 C 
ENDBRANCH  33  34
ENDBRANCH  32  33
ENDBRANCH   2  32
TORSDOF 11
ENDMDL
MODEL 3
REMARK VINA RESULT: -8.812087880      2.807      6.866
REMARK  11 active torsions:
REMARK  status: ('A' for Active; 'I' for Inactive)
REMARK    1  A    between atoms: C2_2  and  C3_3 
REMARK    2  A    between atoms: C3_3  and  C4_4 
REMARK    3  A    between atoms: C4_4  and  C5_5 
REMARK       I    between atoms: C5_5  and  N1_7 
REMARK    4  A    between atoms: N2_10  and  C8_11 
REMARK    5  A    between atoms: C8_11  and  C9_12 
REMARK    6  A    between atoms: C9_12  and  C10_13 
REMARK    7  A    between atoms: C10_13  and  N3_14 
REMARK       I    between atoms: N3_14  and  C11_15 
REMARK    8  A    between atoms: N3_14  and  C21_27 
REMARK    9  A    between atoms: C11_15  and  C12_17 
REMARK   10  A    between atoms: C12_17  and  S1_18 
REMARK   11  A    between atoms: S1_18  and  C13_19 
REMARK       I    between atoms: N5_30  and  C23_31 
ROOT
HETATM    1  N3  UNL     1       5.163  -1.072  13.479  1.00  0.00    -0.310 N 
HETATM    2  C11 UNL     1       4.768  -2.381  13.102  1.00  0.00     0.234 C 
HETATM    3  O2  UNL     1       4.443  -2.521  11.899  1.00  0.00    -0.272 OA
ENDROOT
BRANCH   1   4
HETATM    4  C10 UNL     1       5.488  -0.813  14.860  1.00  0.00     0.134 C 
BRANCH   4   5
HETATM    5  C9  UNL     1       6.882  -1.217  15.253  1.00  0.00     0.040 C 
BRANCH   5   6
HETATM    6  C8  UNL     1       6.743  -1.962  16.584  1.00  0.00     0.128 C 
BRANCH   6   7
HETATM    7  N2  UNL     1       7.357  -3.213  16.496  1.00  0.00    -0.371 N 
HETATM    8  C7  UNL     1       8.674  -3.222  16.045  1.00  0.00     0.083 C 
HETATM    9  C6  UNL     1       9.668  -4.051  16.790  1.00  0.00     0.170 C 
HETATM   10  N1  UNL     1       9.046  -5.203  17.374  1.00  0.00    -0.343 N 
HETATM   11  C5  UNL     1       9.788  -6.005  18.288  1.00  0.00     0.220 C 
HETATM   12  C28 UNL     1       7.682  -5.532  17.017  1.00  0.00     0.170 C 
HETATM   13  O1  UNL     1      10.970  -5.714  18.536  1.00  0.00    -0.273 OA
HETATM   14  C27 UNL     1       6.816  -4.302  17.196  1.00  0.00     0.083 C 
BRANCH  11  15
HETATM   15  C4  UNL     1       9.105  -7.165  18.911  1.00  0.00     0.103 C 
BRANCH  15  16
HETATM   16  C3  UNL     1       9.643  -8.482  18.399  1.00  0.00     0.009 C 
BRANCH  16  17
HETATM   17  C2  UNL     1       8.524  -9.142  17.603  1.00  0.00    -0.004 C 
HETATM   18  C1  UNL     1       7.182  -9.008  18.290  1.00  0.00     0.005 C 
ENDBRANCH  16  17
ENDBRANCH  15  16
ENDBRANCH  11  15
ENDBRANCH   6   7
ENDBRANCH   5   6
ENDBRANCH   4   5
ENDBRANCH   1   4
BRANCH   1  19
HETATM   19  C21 UNL     1       5.225  -0.002  12.531  1.00  0.00     0.148 A 
HETATM   20  C22 UNL     1       4.254   0.958  12.384  1.00  0.00     0.162 A 
HETATM   21  N4  UNL     1       3.113   0.878  13.240  1.00  0.00    -0.079 NA
HETATM   22  N5  UNL     1       4.359   1.960  11.466  1.00  0.00    -0.218 N 
HETATM   23  C23 UNL     1       3.326   2.917  11.358  1.00  0.00     0.229 C 
HETATM   24  C25 UNL     1       5.424   2.048  10.665  1.00  0.00     0.337 A 
HETATM   25  C24 UNL     1       3.333   4.024  10.403  1.00  0.00     0.118 C 
HETATM   26  O3  UNL     1       2.339   2.800  12.139  1.00  0.00    -0.273 OA
HETATM   27  O4  UNL     1       5.613   2.933   9.790  1.00  0.00    -0.246 OA
HETATM   28  N6  UNL     1       6.404   1.102  10.793  1.00  0.00    -0.273 N 
HETATM   29  C26 UNL     1       6.322   0.107  11.689  1.00  0.00     0.279 A 
ATOM     30  H6  UNL     1       7.224   1.154  10.187  1.00  0.00     0.173 HD
HETATM   31  O5  UNL     1       7.247  -0.763  11.791  1.00  0.00    -0.265 OA
ENDBRANCH   1  19
BRANCH   2  32
HETATM   32  C12 UNL     1       4.722  -3.530  14.004  1.00  0.00     0.182 C 
BRANCH  32  33
HETATM   33  S1  UNL     1       3.199  -3.879  14.839  1.00  0.00    -0.120 SA
BRANCH  33  34
HETATM   34  C13 UNL     1       3.253  -4.914  16.236  1.00  0.00     0.007 A 
HETATM   35  C14 UNL     1       3.436  -6.293  16.080  1.00  0.00     0.025 A 
HETATM   36  C15 UNL     1       3.532  -7.155  17.152  1.00  0.00    -0.061 A 
HETATM   37  C16 UNL     1       3.725  -8.614  16.958  1.00  0.00     0.048 C 
HETATM   38  C17 UNL     1       3.445  -6.638  18.433  1.00  0.00     0.007 A 
HETATM   39  C18 UNL     1       3.268  -5.297  18.611  1.00  0.00     0.009 A 
HETATM   40  C19 UNL     1       3.173  -4.437  17.516  1.00  0.00    -0.045 A 
HETATM   41  C20 UNL     1       3.028  -2.998  17.874  1.00  0.00     0.049 C 
ENDBRANCH  33  34
ENDBRANCH  32  33
ENDBRANCH   2  32
TORSDOF 11
ENDMDL
MODEL 4
REMARK VINA RESULT: -8.710679665      1.189      1.903
REMARK  11 active torsions:
REMARK  status: ('A' for Active; 'I' for Inactive)
REMARK    1  A    between atoms: C2_2  and  C3_3 
REMARK    2  A    between atoms: C3_3  and  C4_4 
REMARK    3  A    between atoms: C4_4  and  C5_5 
REMARK       I    between atoms: C5_5  and  N1_7 
REMARK    4  A    between atoms: N2_10  and  C8_11 
REMARK    5  A    between atoms: C8_11  and  C9_12 
REMARK    6  A    between atoms: C9_12  and  C10_13 
REMARK    7  A    between atoms: C10_13  and  N3_14 
REMARK       I    between atoms: N3_14  and  C11_15 
REMARK    8  A    between atoms: N3_14  and  C21_27 
REMARK    9  A    between atoms: C11_15  and  C12_17 
REMARK   10  A    between atoms: C12_17  and  S1_18 
REMARK   11  A    between atoms: S1_18  and  C13_19 
REMARK       I    between atoms: N5_30  and  C23_31 
ROOT
HETATM    1  N3  UNL     1       6.388  -1.675  14.655  1.00  0.00    -0.310 N 
HETATM    2  C11 UNL     1       6.332  -0.327  14.217  1.00  0.00     0.234 C 
HETATM    3  O2  UNL     1       5.299   0.304  14.542  1.00  0.00    -0.272 OA
ENDROOT
BRANCH   1   4
HETATM    4  C10 UNL     1       7.514  -2.488  14.264  1.00  0.00     0.134 C 
BRANCH   4   5
HETATM    5  C9  UNL     1       8.633  -2.516  15.268  1.00  0.00     0.040 C 
BRANCH   5   6
HETATM    6  C8  UNL     1       9.542  -3.676  14.850  1.00  0.00     0.128 C 
BRANCH   6   7
HETATM    7  N2  UNL     1       9.318  -4.778  15.678  1.00  0.00    -0.371 N 
HETATM    8  C7  UNL     1       9.782  -4.670  16.986  1.00  0.00     0.083 C 
HETATM    9  C6  UNL     1       8.873  -5.088  18.093  1.00  0.00     0.170 C 
HETATM   10  N1  UNL     1       7.997  -6.142  17.672  1.00  0.00    -0.343 N 
HETATM   11  C5  UNL     1       6.924  -6.536  18.523  1.00  0.00     0.220 C 
HETATM   12  C28 UNL     1       8.224  -6.789  16.397  1.00  0.00     0.170 C 
HETATM   13  O1  UNL     1       6.787  -5.986  19.628  1.00  0.00    -0.273 OA
HETATM   14  C27 UNL     1       8.348  -5.728  15.322  1.00  0.00     0.083 C 
BRANCH  11  15
HETATM   15  C4  UNL     1       6.007  -7.598  18.042  1.00  0.00     0.103 C 
BRANCH  15  16
HETATM   16  C3  UNL     1       4.694  -7.034  17.548  1.00  0.00     0.009 C 
BRANCH  16  17
HETATM   17  C2  UNL     1       3.785  -8.218  17.245  1.00  0.00    -0.004 C 
HETATM   18  C1  UNL     1       2.432  -8.080  17.909  1.00  0.00     0.005 C 
ENDBRANCH  16  17
ENDBRANCH  15  16
ENDBRANCH  11  15
ENDBRANCH   6   7
ENDBRANCH   5   6
ENDBRANCH   4   5
ENDBRANCH   1   4
BRANCH   1  19
HETATM   19  C21 UNL     1       5.348  -2.252  15.450  1.00  0.00     0.148 A 
HETATM   20  C22 UNL     1       4.311  -2.996  14.945  1.00  0.00     0.162 A 
HETATM   21  N4  UNL     1       4.278  -3.208  13.532  1.00  0.00    -0.079 NA
HETATM   22  N5  UNL     1       3.343  -3.527  15.744  1.00  0.00    -0.218 N 
HETATM   23  C23 UNL     1       2.298  -4.282  15.167  1.00  0.00     0.229 C 
HETATM   24  C25 UNL     1       3.367  -3.341  17.067  1.00  0.00     0.337 A 
HETATM   25  C24 UNL     1       1.207  -4.885  15.930  1.00  0.00     0.118 C 
HETATM   26  O3  UNL     1       2.316  -4.438  13.913  1.00  0.00    -0.273 OA
HETATM   27  O4  UNL     1       2.524  -3.789  17.886  1.00  0.00    -0.246 OA
HETATM   28  N6  UNL     1       4.391  -2.601  17.592  1.00  0.00    -0.273 N 
HETATM   29  C26 UNL     1       5.354  -2.069  16.825  1.00  0.00     0.279 A 
ATOM     30  H6  UNL     1       4.423  -2.449  18.601  1.00  0.00     0.173 HD
HETATM   31  O5  UNL     1       6.298  -1.385  17.336  1.00  0.00    -0.265 OA
ENDBRANCH   1  19
BRANCH   2  32
HETATM   32  C12 UNL     1       7.375   0.340  13.440  1.00  0.00     0.182 C 
BRANCH  32  33
HETATM   33  S1  UNL     1       7.400   0.094  11.685  1.00  0.00    -0.120 SA
BRANCH  33  34
HETATM   34  C13 UNL     1       6.871   1.402  10.670  1.00  0.00     0.007 A 
HETATM   35  C14 UNL     1       7.801   2.120   9.909  1.00  0.00     0.025 A 
HETATM   36  C15 UNL     1       7.435   3.137   9.054  1.00  0.00    -0.061 A 
HETATM   37  C16 UNL     1       8.443   3.882   8.258  1.00  0.00     0.048 C 
HETATM   38  C17 UNL     1       6.095   3.463   8.941  1.00  0.00     0.007 A 
HETATM   39  C18 UNL     1       5.168   2.777   9.671  1.00  0.00     0.009 A 
HETATM   40  C19 UNL     1       5.554   1.750  10.533  1.00  0.00    -0.045 A 
HETATM   41  C20 UNL     1       4.425   1.068  11.224  1.00  0.00     0.049 C 
ENDBRANCH  33  34
ENDBRANCH  32  33
ENDBRANCH   2  32
TORSDOF 11
ENDMDL
MODEL 5
REMARK VINA RESULT: -8.694660620      1.137      1.700
REMARK  11 active torsions:
REMARK  status: ('A' for Active; 'I' for Inactive)
REMARK    1  A    between atoms: C2_2  and  C3_3 
REMARK    2  A    between atoms: C3_3  and  C4_4 
REMARK    3  A    between atoms: C4_4  and  C5_5 
REMARK       I    between atoms: C5_5  and  N1_7 
REMARK    4  A    between atoms: N2_10  and  C8_11 
REMARK    5  A    between atoms: C8_11  and  C9_12 
REMARK    6  A    between atoms: C9_12  and  C10_13 
REMARK    7  A    between atoms: C10_13  and  N3_14 
REMARK       I    between atoms: N3_14  and  C11_15 
REMARK    8  A    between atoms: N3_14  and  C21_27 
REMARK    9  A    between atoms: C11_15  and  C12_17 
REMARK   10  A    between atoms: C12_17  and  S1_18 
REMARK   11  A    between atoms: S1_18  and  C13_19 
REMARK       I    between atoms: N5_30  and  C23_31 
ROOT
HETATM    1  N3  UNL     1       6.252  -1.655  14.705  1.00  0.00    -0.310 N 
HETATM    2  C11 UNL     1       6.216  -0.283  14.351  1.00  0.00     0.234 C 
HETATM    3  O2  UNL     1       5.210   0.351  14.749  1.00  0.00    -0.272 OA
ENDROOT
BRANCH   1   4
HETATM    4  C10 UNL     1       7.343  -2.470  14.228  1.00  0.00     0.134 C 
BRANCH   4   5
HETATM    5  C9  UNL     1       8.377  -2.789  15.272  1.00  0.00     0.040 C 
BRANCH   5   6
HETATM    6  C8  UNL     1       8.952  -4.156  14.888  1.00  0.00     0.128 C 
BRANCH   6   7
HETATM    7  N2  UNL     1       8.866  -5.031  15.973  1.00  0.00    -0.371 N 
HETATM    8  C7  UNL     1       8.410  -4.485  17.169  1.00  0.00     0.083 C 
HETATM    9  C6  UNL     1       7.375  -5.238  17.938  1.00  0.00     0.170 C 
HETATM   10  N1  UNL     1       7.509  -6.651  17.738  1.00  0.00    -0.343 N 
HETATM   11  C5  UNL     1       6.492  -7.522  18.224  1.00  0.00     0.220 C 
HETATM   12  C28 UNL     1       8.676  -7.165  17.052  1.00  0.00     0.170 C 
HETATM   13  O1  UNL     1       5.526  -7.046  18.844  1.00  0.00    -0.273 OA
HETATM   14  C27 UNL     1       8.851  -6.416  15.747  1.00  0.00     0.083 C 
BRANCH  11  15
HETATM   15  C4  UNL     1       6.635  -8.975  17.964  1.00  0.00     0.103 C 
BRANCH  15  16
HETATM   16  C3  UNL     1       6.961  -9.748  19.222  1.00  0.00     0.009 C 
BRANCH  16  17
HETATM   17  C2  UNL     1       8.390 -10.254  19.077  1.00  0.00    -0.004 C 
HETATM   18  C1  UNL     1       9.360  -9.474  19.937  1.00  0.00     0.005 C 
ENDBRANCH  16  17
ENDBRANCH  15  16
ENDBRANCH  11  15
ENDBRANCH   6   7
ENDBRANCH   5   6
ENDBRANCH   4   5
ENDBRANCH   1   4
BRANCH   1  19
HETATM   19  C21 UNL     1       5.224  -2.255  15.500  1.00  0.00     0.148 A 
HETATM   20  C22 UNL     1       4.180  -2.987  14.990  1.00  0.00     0.162 A 
HETATM   21  N4  UNL     1       4.126  -3.159  13.573  1.00  0.00    -0.079 NA
HETATM   22  N5  UNL     1       3.225  -3.540  15.789  1.00  0.00    -0.218 N 
HETATM   23  C23 UNL     1       2.171  -4.280  15.207  1.00  0.00     0.229 C 
HETATM   24  C25 UNL     1       3.269  -3.391  17.116  1.00  0.00     0.337 A 
HETATM   25  C24 UNL     1       1.092  -4.905  15.970  1.00  0.00     0.118 C 
HETATM   26  O3  UNL     1       2.170  -4.402  13.949  1.00  0.00    -0.273 OA
HETATM   27  O4  UNL     1       2.438  -3.862  17.935  1.00  0.00    -0.246 OA
HETATM   28  N6  UNL     1       4.300  -2.665  17.646  1.00  0.00    -0.273 N 
HETATM   29  C26 UNL     1       5.251  -2.111  16.879  1.00  0.00     0.279 A 
ATOM     30  H6  UNL     1       4.347  -2.540  18.658  1.00  0.00     0.173 HD
HETATM   31  O5  UNL     1       6.202  -1.439  17.395  1.00  0.00    -0.265 OA
ENDBRANCH   1  19
BRANCH   2  32
HETATM   32  C12 UNL     1       7.249   0.406  13.580  1.00  0.00     0.182 C 
BRANCH  32  33
HETATM   33  S1  UNL     1       6.896   0.828  11.895  1.00  0.00    -0.120 SA
BRANCH  33  34
HETATM   34  C13 UNL     1       5.463   1.758  11.571  1.00  0.00     0.007 A 
HETATM   35  C14 UNL     1       4.225   1.117  11.443  1.00  0.00     0.025 A 
HETATM   36  C15 UNL     1       3.050   1.807  11.230  1.00  0.00    -0.061 A 
HETATM   37  C16 UNL     1       1.750   1.102  11.097  1.00  0.00     0.048 C 
HETATM   38  C17 UNL     1       3.094   3.187  11.141  1.00  0.00     0.007 A 
HETATM   39  C18 UNL     1       4.288   3.835  11.264  1.00  0.00     0.009 A 
HETATM   40  C19 UNL     1       5.469   3.124  11.479  1.00  0.00    -0.045 A 
HETATM   41  C20 UNL     1       6.682   3.975  11.638  1.00  0.00     0.049 C 
ENDBRANCH  33  34
ENDBRANCH  32  33
ENDBRANCH   2  32
TORSDOF 11
ENDMDL
