MODEL 1
REMARK VINA RESULT: -11.031689297      0.000      0.000
REMARK  19 active torsions:
REMARK  status: ('A' for Active; 'I' for Inactive)
REMARK    1  A    between atoms: N1_1  and  C1_4 
REMARK    2  A    between atoms: C1_4  and  N2_5 
REMARK    3  A    between atoms: C1_4  and  C17_32 
REMARK    4  A    between atoms: N2_5  and  C2_7 
REMARK    5  A    between atoms: C5_10  and  N3_11 
REMARK    6  A    between atoms: N3_11  and  C6_13 
REMARK    7  A    between atoms: C6_13  and  C7_14 
REMARK       I    between atoms: C7_14  and  N4_16 
REMARK    8  A    between atoms: N4_16  and  N5_18 
REMARK       I    between atoms: N5_18  and  C8_20 
REMARK    9  A    between atoms: C8_20  and  C9_22 
REMARK   10  A    between atoms: C12_25  and  O3_26 
REMARK   11  A    between atoms: C17_32  and  N6_33 
REMARK   12  A    between atoms: C17_32  and  C22_44 
REMARK   13  A    between atoms: N6_33  and  C18_36 
REMARK   14  A    between atoms: C18_36  and  C19_37 
REMARK   15  A    between atoms: C19_37  and  C20_38 
REMARK   16  A    between atoms: C20_38  and  N7_39 
REMARK       I    between atoms: N7_39  and  C21_41 
REMARK       I    between atoms: C22_44  and  N8_46 
REMARK   17  A    between atoms: N8_46  and  C23_48 
REMARK   18  A    between atoms: C24_51  and  N10_52 
REMARK   19  A    between atoms: N10_52  and  O7_54 
ROOT
HETATM    1  C17 UNL     1       0.934 -44.750 -26.545  1.00  0.00     0.344 C 
ENDROOT
BRANCH   1   2
HETATM    2  C1  UNL     1       0.086 -44.111 -25.515  1.00  0.00     0.116 C 
BRANCH   2   3
HETATM    3  N1  UNL     1      -0.618 -44.925 -24.780  1.00  0.00    -0.387 N 
ATOM      4  H12 UNL     1      -1.626 -44.902 -24.937  1.00  0.00     0.157 HD
ATOM      5  H11 UNL     1      -0.170 -45.523 -24.085  1.00  0.00     0.157 HD
ENDBRANCH   2   3
BRANCH   2   6
HETATM    6  N2  UNL     1       0.003 -42.729 -25.334  1.00  0.00    -0.344 N 
ATOM      7  H2  UNL     1       0.488 -42.150 -26.019  1.00  0.00     0.167 HD
BRANCH   6   8
HETATM    8  C2  UNL     1      -0.684 -42.045 -24.300  1.00  0.00     0.033 A 
HETATM    9  C3  UNL     1      -0.294 -42.166 -22.967  1.00  0.00     0.031 A 
HETATM   10  C4  UNL     1      -0.922 -41.521 -21.934  1.00  0.00     0.031 A 
HETATM   11  C5  UNL     1      -2.003 -40.700 -22.187  1.00  0.00     0.028 A 
HETATM   12  C15 UNL     1      -2.410 -40.564 -23.493  1.00  0.00     0.031 A 
HETATM   13  C16 UNL     1      -1.767 -41.220 -24.523  1.00  0.00     0.031 A 
BRANCH  11  14
HETATM   14  N3  UNL     1      -2.660 -40.017 -21.092  1.00  0.00    -0.381 N 
ATOM     15  H3  UNL     1      -3.200 -40.518 -20.386  1.00  0.00     0.160 HD
BRANCH  14  16
HETATM   16  C6  UNL     1      -2.503 -38.597 -21.064  1.00  0.00     0.224 C 
BRANCH  16  17
HETATM   17  C7  UNL     1      -1.147 -38.186 -20.747  1.00  0.00     0.253 C 
HETATM   18  O1  UNL     1      -0.507 -37.554 -21.655  1.00  0.00    -0.270 OA
HETATM   19  N4  UNL     1      -0.489 -38.420 -19.547  1.00  0.00    -0.266 N 
ATOM     20  H4  UNL     1      -0.983 -38.921 -18.808  1.00  0.00     0.190 HD
BRANCH  19  21
HETATM   21  N5  UNL     1       0.835 -37.993 -19.307  1.00  0.00    -0.263 N 
HETATM   22  C8  UNL     1       1.727 -38.797 -18.587  1.00  0.00     0.270 C 
HETATM   23  O2  UNL     1       1.304 -39.923 -18.156  1.00  0.00    -0.266 OA
ATOM     24  H5  UNL     1       1.144 -37.088 -19.661  1.00  0.00     0.190 HD
BRANCH  22  25
HETATM   25  C9  UNL     1       3.109 -38.424 -18.303  1.00  0.00     0.033 A 
HETATM   26  C10 UNL     1       3.375 -37.200 -17.721  1.00  0.00     0.020 A 
HETATM   27  C11 UNL     1       4.673 -36.848 -17.447  1.00  0.00     0.037 A 
HETATM   28  C12 UNL     1       5.697 -37.698 -17.747  1.00  0.00     0.065 A 
HETATM   29  C13 UNL     1       5.448 -38.938 -18.334  1.00  0.00     0.037 A 
HETATM   30  C14 UNL     1       4.139 -39.282 -18.605  1.00  0.00     0.020 A 
BRANCH  28  31
HETATM   31  O3  UNL     1       7.020 -37.359 -17.476  1.00  0.00    -0.361 OA
ATOM     32  H3  UNL     1       7.742 -37.833 -17.872  1.00  0.00     0.217 HD
ENDBRANCH  28  31
ENDBRANCH  22  25
ENDBRANCH  19  21
ENDBRANCH  16  17
ENDBRANCH  14  16
ENDBRANCH  11  14
ENDBRANCH   6   8
ENDBRANCH   2   6
ENDBRANCH   1   2
BRANCH   1  33
HETATM   33  N6  UNL     1       0.422 -46.063 -26.908  1.00  0.00    -0.055 N 
ATOM     34  H62 UNL     1       0.898 -46.798 -26.385  1.00  0.00     0.278 HD
ATOM     35  H61 UNL     1      -0.526 -46.196 -26.558  1.00  0.00     0.278 HD
BRANCH  33  36
HETATM   36  C18 UNL     1       0.489 -46.314 -28.328  1.00  0.00     0.235 C 
BRANCH  36  37
HETATM   37  C19 UNL     1      -0.892 -46.692 -28.800  1.00  0.00     0.047 C 
BRANCH  37  38
HETATM   38  C20 UNL     1      -1.145 -48.162 -28.771  1.00  0.00     0.127 C 
BRANCH  38  39
HETATM   39  N7  UNL     1      -2.294 -48.510 -29.559  1.00  0.00    -0.335 N 
HETATM   40  C21 UNL     1      -2.575 -49.861 -29.934  1.00  0.00     0.283 C 
HETATM   41  O4  UNL     1      -1.761 -50.762 -29.537  1.00  0.00    -0.630 OA
HETATM   42  O5  UNL     1      -3.660 -50.247 -30.688  1.00  0.00    -0.630 OA
ATOM     43  H7  UNL     1      -2.929 -47.771 -29.862  1.00  0.00     0.165 HD
ENDBRANCH  38  39
ENDBRANCH  37  38
ENDBRANCH  36  37
ENDBRANCH  33  36
ENDBRANCH   1  33
BRANCH   1  44
HETATM   44  C22 UNL     1       2.375 -44.714 -26.286  1.00  0.00     0.274 C 
HETATM   45  O6  UNL     1       3.018 -43.667 -26.566  1.00  0.00    -0.270 OA
HETATM   46  N8  UNL     1       3.044 -45.802 -25.738  1.00  0.00    -0.157 N 
ATOM     47  H8  UNL     1       2.586 -46.246 -24.942  1.00  0.00     0.187 HD
BRANCH  46  48
HETATM   48  C23 UNL     1       4.153 -46.321 -26.094  1.00  0.00     0.702 C 
HETATM   49  N9  UNL     1       4.323 -46.493 -27.446  1.00  0.00    -0.020 N 
HETATM   50  C24 UNL     1       4.937 -47.499 -28.085  1.00  0.00     0.719 C 
ATOM     51  H9  UNL     1       3.932 -45.763 -28.041  1.00  0.00     0.203 HD
HETATM   52  N11 UNL     1       5.781 -48.421 -27.583  1.00  0.00    -0.149 N 
HETATM   53  C25 UNL     1       6.287 -48.471 -26.329  1.00  0.00     0.328 C 
ATOM     54  H11 UNL     1       6.072 -49.164 -28.219  1.00  0.00     0.188 HD
HETATM   55  O8  UNL     1       7.029 -49.454 -26.127  1.00  0.00    -0.261 OA
HETATM   56  C26 UNL     1       6.066 -47.578 -25.304  1.00  0.00     0.328 C 
HETATM   57  O9  UNL     1       6.910 -47.637 -24.369  1.00  0.00    -0.261 OA
HETATM   58  N12 UNL     1       5.081 -46.664 -25.172  1.00  0.00    -0.151 N 
ATOM     59  H12 UNL     1       5.031 -46.178 -24.276  1.00  0.00     0.188 HD
BRANCH  50  60
HETATM   60  N10 UNL     1       4.694 -47.618 -29.348  1.00  0.00    -0.098 N 
ATOM     61  H10 UNL     1       5.174 -47.019 -30.020  1.00  0.00     0.213 HD
BRANCH  60  62
HETATM   62  O7  UNL     1       3.784 -48.560 -29.788  1.00  0.00    -0.276 OA
ATOM     63  H7  UNL     1       2.899 -48.560 -29.442  1.00  0.00     0.245 HD
ENDBRANCH  60  62
ENDBRANCH  50  60
ENDBRANCH  46  48
ENDBRANCH   1  44
TORSDOF 19
ENDMDL
MODEL 2
REMARK VINA RESULT: -11.015689578      1.667      1.951
REMARK  19 active torsions:
REMARK  status: ('A' for Active; 'I' for Inactive)
REMARK    1  A    between atoms: N1_1  and  C1_4 
REMARK    2  A    between atoms: C1_4  and  N2_5 
REMARK    3  A    between atoms: C1_4  and  C17_32 
REMARK    4  A    between atoms: N2_5  and  C2_7 
REMARK    5  A    between atoms: C5_10  and  N3_11 
REMARK    6  A    between atoms: N3_11  and  C6_13 
REMARK    7  A    between atoms: C6_13  and  C7_14 
REMARK       I    between atoms: C7_14  and  N4_16 
REMARK    8  A    between atoms: N4_16  and  N5_18 
REMARK       I    between atoms: N5_18  and  C8_20 
REMARK    9  A    between atoms: C8_20  and  C9_22 
REMARK   10  A    between atoms: C12_25  and  O3_26 
REMARK   11  A    between atoms: C17_32  and  N6_33 
REMARK   12  A    between atoms: C17_32  and  C22_44 
REMARK   13  A    between atoms: N6_33  and  C18_36 
REMARK   14  A    between atoms: C18_36  and  C19_37 
REMARK   15  A    between atoms: C19_37  and  C20_38 
REMARK   16  A    between atoms: C20_38  and  N7_39 
REMARK       I    between atoms: N7_39  and  C21_41 
REMARK       I    between atoms: C22_44  and  N8_46 
REMARK   17  A    between atoms: N8_46  and  C23_48 
REMARK   18  A    between atoms: C24_51  and  N10_52 
REMARK   19  A    between atoms: N10_52  and  O7_54 
ROOT
HETATM    1  C17 UNL     1       0.883 -44.333 -25.648  1.00  0.00     0.344 C 
ENDROOT
BRANCH   1   2
HETATM    2  C1  UNL     1       0.130 -43.694 -24.547  1.00  0.00     0.116 C 
BRANCH   2   3
HETATM    3  N1  UNL     1       0.640 -42.588 -24.084  1.00  0.00    -0.387 N 
ATOM      4  H12 UNL     1       0.513 -42.428 -23.084  1.00  0.00     0.157 HD
ATOM      5  H11 UNL     1       1.115 -41.930 -24.702  1.00  0.00     0.157 HD
ENDBRANCH   2   3
BRANCH   2   6
HETATM    6  N2  UNL     1      -1.039 -44.227 -24.002  1.00  0.00    -0.344 N 
ATOM      7  H2  UNL     1      -1.439 -45.034 -24.481  1.00  0.00     0.167 HD
BRANCH   6   8
HETATM    8  C2  UNL     1      -1.729 -43.767 -22.852  1.00  0.00     0.033 A 
HETATM    9  C3  UNL     1      -1.427 -44.255 -21.582  1.00  0.00     0.031 A 
HETATM   10  C4  UNL     1      -2.060 -43.839 -20.440  1.00  0.00     0.031 A 
HETATM   11  C5  UNL     1      -3.057 -42.886 -20.513  1.00  0.00     0.028 A 
HETATM   12  C15 UNL     1      -3.377 -42.388 -21.754  1.00  0.00     0.031 A 
HETATM   13  C16 UNL     1      -2.729 -42.818 -22.894  1.00  0.00     0.031 A 
BRANCH  11  14
HETATM   14  N3  UNL     1      -3.721 -42.446 -19.303  1.00  0.00    -0.381 N 
ATOM     15  H3  UNL     1      -4.182 -43.097 -18.669  1.00  0.00     0.160 HD
BRANCH  14  16
HETATM   16  C6  UNL     1      -3.688 -41.038 -19.056  1.00  0.00     0.224 C 
BRANCH  16  17
HETATM   17  C7  UNL     1      -2.427 -40.594 -18.491  1.00  0.00     0.253 C 
HETATM   18  O1  UNL     1      -2.333 -40.589 -17.216  1.00  0.00    -0.270 OA
HETATM   19  N4  UNL     1      -1.317 -40.179 -19.214  1.00  0.00    -0.266 N 
ATOM     20  H4  UNL     1      -1.369 -40.178 -20.233  1.00  0.00     0.190 HD
BRANCH  19  21
HETATM   21  N5  UNL     1      -0.119 -39.758 -18.598  1.00  0.00    -0.263 N 
HETATM   22  C8  UNL     1       0.944 -39.260 -19.363  1.00  0.00     0.270 C 
HETATM   23  O2  UNL     1       0.794 -39.204 -20.630  1.00  0.00    -0.266 OA
ATOM     24  H5  UNL     1      -0.026 -39.817 -17.584  1.00  0.00     0.190 HD
BRANCH  22  25
HETATM   25  C9  UNL     1       2.209 -38.804 -18.796  1.00  0.00     0.033 A 
HETATM   26  C10 UNL     1       2.245 -37.625 -18.080  1.00  0.00     0.020 A 
HETATM   27  C11 UNL     1       3.432 -37.195 -17.541  1.00  0.00     0.037 A 
HETATM   28  C12 UNL     1       4.572 -37.927 -17.710  1.00  0.00     0.065 A 
HETATM   29  C13 UNL     1       4.554 -39.120 -18.430  1.00  0.00     0.037 A 
HETATM   30  C14 UNL     1       3.355 -39.543 -18.967  1.00  0.00     0.020 A 
BRANCH  28  31
HETATM   31  O3  UNL     1       5.786 -37.507 -17.171  1.00  0.00    -0.361 OA
ATOM     32  H3  UNL     1       6.600 -37.615 -17.647  1.00  0.00     0.217 HD
ENDBRANCH  28  31
ENDBRANCH  22  25
ENDBRANCH  19  21
ENDBRANCH  16  17
ENDBRANCH  14  16
ENDBRANCH  11  14
ENDBRANCH   6   8
ENDBRANCH   2   6
ENDBRANCH   1   2
BRANCH   1  33
HETATM   33  N6  UNL     1       0.233 -45.558 -26.089  1.00  0.00    -0.055 N 
ATOM     34  H62 UNL     1       0.896 -46.332 -26.121  1.00  0.00     0.278 HD
ATOM     35  H61 UNL     1      -0.403 -45.913 -25.375  1.00  0.00     0.278 HD
BRANCH  33  36
HETATM   36  C18 UNL     1      -0.444 -45.405 -27.355  1.00  0.00     0.235 C 
BRANCH  36  37
HETATM   37  C19 UNL     1      -0.160 -46.629 -28.187  1.00  0.00     0.047 C 
BRANCH  37  38
HETATM   38  C20 UNL     1      -1.384 -47.231 -28.792  1.00  0.00     0.127 C 
BRANCH  38  39
HETATM   39  N7  UNL     1      -1.291 -48.664 -28.842  1.00  0.00    -0.335 N 
HETATM   40  C21 UNL     1      -2.268 -49.462 -29.516  1.00  0.00     0.283 C 
HETATM   41  O4  UNL     1      -3.237 -48.853 -30.081  1.00  0.00    -0.630 OA
HETATM   42  O5  UNL     1      -2.226 -50.836 -29.592  1.00  0.00    -0.630 OA
ATOM     43  H7  UNL     1      -0.506 -49.125 -28.383  1.00  0.00     0.165 HD
ENDBRANCH  38  39
ENDBRANCH  37  38
ENDBRANCH  36  37
ENDBRANCH  33  36
ENDBRANCH   1  33
BRANCH   1  44
HETATM   44  C22 UNL     1       2.326 -44.459 -25.434  1.00  0.00     0.274 C 
HETATM   45  O6  UNL     1       3.038 -43.420 -25.459  1.00  0.00    -0.270 OA
HETATM   46  N8  UNL     1       2.924 -45.692 -25.203  1.00  0.00    -0.157 N 
ATOM     47  H8  UNL     1       2.446 -46.295 -24.532  1.00  0.00     0.187 HD
BRANCH  46  48
HETATM   48  C23 UNL     1       3.988 -46.174 -25.714  1.00  0.00     0.702 C 
HETATM   49  N9  UNL     1       4.061 -46.135 -27.086  1.00  0.00    -0.020 N 
HETATM   50  C24 UNL     1       4.595 -47.041 -27.916  1.00  0.00     0.719 C 
ATOM     51  H9  UNL     1       3.656 -45.311 -27.529  1.00  0.00     0.203 HD
HETATM   52  N11 UNL     1       5.439 -48.050 -27.625  1.00  0.00    -0.149 N 
HETATM   53  C25 UNL     1       6.027 -48.309 -26.434  1.00  0.00     0.328 C 
ATOM     54  H11 UNL     1       5.661 -48.689 -28.388  1.00  0.00     0.188 HD
HETATM   55  O8  UNL     1       6.747 -49.328 -26.441  1.00  0.00    -0.261 OA
HETATM   56  C26 UNL     1       5.906 -47.584 -25.270  1.00  0.00     0.328 C 
HETATM   57  O9  UNL     1       6.809 -47.808 -24.418  1.00  0.00    -0.261 OA
HETATM   58  N12 UNL     1       4.964 -46.679 -24.926  1.00  0.00    -0.151 N 
ATOM     59  H12 UNL     1       4.991 -46.340 -23.964  1.00  0.00     0.188 HD
BRANCH  50  60
HETATM   60  N10 UNL     1       4.264 -46.954 -29.161  1.00  0.00    -0.098 N 
ATOM     61  H10 UNL     1       4.881 -47.329 -29.882  1.00  0.00     0.213 HD
BRANCH  60  62
HETATM   62  O7  UNL     1       3.072 -46.352 -29.516  1.00  0.00    -0.276 OA
ATOM     63  H7  UNL     1       2.886 -46.172 -30.430  1.00  0.00     0.245 HD
ENDBRANCH  60  62
ENDBRANCH  50  60
ENDBRANCH  46  48
ENDBRANCH   1  44
TORSDOF 19
ENDMDL
MODEL 3
REMARK VINA RESULT: -10.806617927      3.689      4.875
REMARK  19 active torsions:
REMARK  status: ('A' for Active; 'I' for Inactive)
REMARK    1  A    between atoms: N1_1  and  C1_4 
REMARK    2  A    between atoms: C1_4  and  N2_5 
REMARK    3  A    between atoms: C1_4  and  C17_32 
REMARK    4  A    between atoms: N2_5  and  C2_7 
REMARK    5  A    between atoms: C5_10  and  N3_11 
REMARK    6  A    between atoms: N3_11  and  C6_13 
REMARK    7  A    between atoms: C6_13  and  C7_14 
REMARK       I    between atoms: C7_14  and  N4_16 
REMARK    8  A    between atoms: N4_16  and  N5_18 
REMARK       I    between atoms: N5_18  and  C8_20 
REMARK    9  A    between atoms: C8_20  and  C9_22 
REMARK   10  A    between atoms: C12_25  and  O3_26 
REMARK   11  A    between atoms: C17_32  and  N6_33 
REMARK   12  A    between atoms: C17_32  and  C22_44 
REMARK   13  A    between atoms: N6_33  and  C18_36 
REMARK   14  A    between atoms: C18_36  and  C19_37 
REMARK   15  A    between atoms: C19_37  and  C20_38 
REMARK   16  A    between atoms: C20_38  and  N7_39 
REMARK       I    between atoms: N7_39  and  C21_41 
REMARK       I    between atoms: C22_44  and  N8_46 
REMARK   17  A    between atoms: N8_46  and  C23_48 
REMARK   18  A    between atoms: C24_51  and  N10_52 
REMARK   19  A    between atoms: N10_52  and  O7_54 
ROOT
HETATM    1  C17 UNL     1       0.944 -44.762 -26.586  1.00  0.00     0.344 C 
ENDROOT
BRANCH   1   2
HETATM    2  C1  UNL     1       0.010 -44.263 -25.555  1.00  0.00     0.116 C 
BRANCH   2   3
HETATM    3  N1  UNL     1      -0.094 -42.967 -25.467  1.00  0.00    -0.387 N 
ATOM      4  H12 UNL     1       0.748 -42.476 -25.164  1.00  0.00     0.157 HD
ATOM      5  H11 UNL     1      -0.974 -42.497 -25.676  1.00  0.00     0.157 HD
ENDBRANCH   2   3
BRANCH   2   6
HETATM    6  N2  UNL     1      -0.710 -45.098 -24.698  1.00  0.00    -0.344 N 
ATOM      7  H2  UNL     1      -0.983 -46.007 -25.070  1.00  0.00     0.167 HD
BRANCH   6   8
HETATM    8  C2  UNL     1      -1.101 -44.817 -23.364  1.00  0.00     0.033 A 
HETATM    9  C3  UNL     1      -0.227 -45.011 -22.296  1.00  0.00     0.031 A 
HETATM   10  C4  UNL     1      -0.555 -44.748 -20.992  1.00  0.00     0.031 A 
HETATM   11  C5  UNL     1      -1.811 -44.264 -20.681  1.00  0.00     0.028 A 
HETATM   12  C15 UNL     1      -2.694 -44.064 -21.715  1.00  0.00     0.031 A 
HETATM   13  C16 UNL     1      -2.347 -44.334 -23.024  1.00  0.00     0.031 A 
BRANCH  11  14
HETATM   14  N3  UNL     1      -2.152 -43.984 -19.301  1.00  0.00    -0.381 N 
ATOM     15  H3  UNL     1      -2.684 -44.639 -18.729  1.00  0.00     0.160 HD
BRANCH  14  16
HETATM   16  C6  UNL     1      -1.694 -42.729 -18.792  1.00  0.00     0.224 C 
BRANCH  16  17
HETATM   17  C7  UNL     1      -2.281 -41.594 -19.482  1.00  0.00     0.253 C 
HETATM   18  O1  UNL     1      -3.513 -41.349 -19.249  1.00  0.00    -0.270 OA
HETATM   19  N4  UNL     1      -1.619 -40.754 -20.368  1.00  0.00    -0.266 N 
ATOM     20  H4  UNL     1      -0.634 -40.931 -20.567  1.00  0.00     0.190 HD
BRANCH  19  21
HETATM   21  N5  UNL     1      -2.253 -39.667 -21.007  1.00  0.00    -0.263 N 
HETATM   22  C8  UNL     1      -2.609 -39.738 -22.359  1.00  0.00     0.270 C 
HETATM   23  O2  UNL     1      -2.338 -40.814 -22.993  1.00  0.00    -0.266 OA
ATOM     24  H5  UNL     1      -2.455 -38.820 -20.477  1.00  0.00     0.190 HD
BRANCH  22  25
HETATM   25  C9  UNL     1      -3.268 -38.657 -23.084  1.00  0.00     0.033 A 
HETATM   26  C10 UNL     1      -3.162 -37.363 -22.616  1.00  0.00     0.020 A 
HETATM   27  C11 UNL     1      -3.776 -36.343 -23.298  1.00  0.00     0.037 A 
HETATM   28  C12 UNL     1      -4.489 -36.601 -24.432  1.00  0.00     0.065 A 
HETATM   29  C13 UNL     1      -4.607 -37.902 -24.920  1.00  0.00     0.037 A 
HETATM   30  C14 UNL     1      -3.985 -38.920 -24.227  1.00  0.00     0.020 A 
BRANCH  28  31
HETATM   31  O3  UNL     1      -5.119 -35.579 -25.138  1.00  0.00    -0.361 OA
ATOM     32  H3  UNL     1      -5.507 -34.837 -24.690  1.00  0.00     0.217 HD
ENDBRANCH  28  31
ENDBRANCH  22  25
ENDBRANCH  19  21
ENDBRANCH  16  17
ENDBRANCH  14  16
ENDBRANCH  11  14
ENDBRANCH   6   8
ENDBRANCH   2   6
ENDBRANCH   1   2
BRANCH   1  33
HETATM   33  N6  UNL     1       0.551 -46.081 -27.060  1.00  0.00    -0.055 N 
ATOM     34  H62 UNL     1       1.045 -46.814 -26.552  1.00  0.00     0.278 HD
ATOM     35  H61 UNL     1      -0.405 -46.300 -26.781  1.00  0.00     0.278 HD
BRANCH  33  36
HETATM   36  C18 UNL     1       0.722 -46.235 -28.486  1.00  0.00     0.235 C 
BRANCH  36  37
HETATM   37  C19 UNL     1      -0.621 -46.569 -29.083  1.00  0.00     0.047 C 
BRANCH  37  38
HETATM   38  C20 UNL     1      -1.185 -47.858 -28.586  1.00  0.00     0.127 C 
BRANCH  38  39
HETATM   39  N7  UNL     1      -2.232 -48.336 -29.447  1.00  0.00    -0.335 N 
HETATM   40  C21 UNL     1      -2.285 -49.694 -29.892  1.00  0.00     0.283 C 
HETATM   41  O4  UNL     1      -1.361 -50.479 -29.493  1.00  0.00    -0.630 OA
HETATM   42  O5  UNL     1      -3.264 -50.200 -30.716  1.00  0.00    -0.630 OA
ATOM     43  H7  UNL     1      -2.958 -47.687 -29.749  1.00  0.00     0.165 HD
ENDBRANCH  38  39
ENDBRANCH  37  38
ENDBRANCH  36  37
ENDBRANCH  33  36
ENDBRANCH   1  33
BRANCH   1  44
HETATM   44  C22 UNL     1       2.367 -44.637 -26.262  1.00  0.00     0.274 C 
HETATM   45  O6  UNL     1       2.966 -43.567 -26.552  1.00  0.00    -0.270 OA
HETATM   46  N8  UNL     1       3.066 -45.666 -25.641  1.00  0.00    -0.157 N 
ATOM     47  H8  UNL     1       2.594 -46.106 -24.851  1.00  0.00     0.187 HD
BRANCH  46  48
HETATM   48  C23 UNL     1       4.218 -46.135 -25.924  1.00  0.00     0.702 C 
HETATM   49  N9  UNL     1       4.595 -46.033 -27.241  1.00  0.00    -0.020 N 
HETATM   50  C24 UNL     1       5.301 -46.906 -27.973  1.00  0.00     0.719 C 
ATOM     51  H9  UNL     1       4.300 -45.185 -27.724  1.00  0.00     0.203 HD
HETATM   52  N11 UNL     1       6.058 -47.936 -27.550  1.00  0.00    -0.149 N 
HETATM   53  C25 UNL     1       6.364 -48.257 -26.272  1.00  0.00     0.328 C 
ATOM     54  H11 UNL     1       6.444 -48.542 -28.274  1.00  0.00     0.188 HD
HETATM   55  O8  UNL     1       7.067 -49.282 -26.167  1.00  0.00    -0.261 OA
HETATM   56  C26 UNL     1       5.987 -47.586 -25.130  1.00  0.00     0.328 C 
HETATM   57  O9  UNL     1       6.675 -47.860 -24.110  1.00  0.00    -0.261 OA
HETATM   58  N12 UNL     1       4.991 -46.688 -24.963  1.00  0.00    -0.151 N 
ATOM     59  H12 UNL     1       4.803 -46.394 -24.004  1.00  0.00     0.188 HD
BRANCH  50  60
HETATM   60  N10 UNL     1       5.257 -46.757 -29.255  1.00  0.00    -0.098 N 
ATOM     61  H10 UNL     1       4.532 -47.226 -29.800  1.00  0.00     0.213 HD
BRANCH  60  62
HETATM   62  O7  UNL     1       6.193 -45.962 -29.889  1.00  0.00    -0.276 OA
ATOM     63  H7  UNL     1       6.018 -45.629 -30.761  1.00  0.00     0.245 HD
ENDBRANCH  60  62
ENDBRANCH  50  60
ENDBRANCH  46  48
ENDBRANCH   1  44
TORSDOF 19
ENDMDL
MODEL 4
REMARK VINA RESULT: -10.689647391      3.357      4.434
REMARK  19 active torsions:
REMARK  status: ('A' for Active; 'I' for Inactive)
REMARK    1  A    between atoms: N1_1  and  C1_4 
REMARK    2  A    between atoms: C1_4  and  N2_5 
REMARK    3  A    between atoms: C1_4  and  C17_32 
REMARK    4  A    between atoms: N2_5  and  C2_7 
REMARK    5  A    between atoms: C5_10  and  N3_11 
REMARK    6  A    between atoms: N3_11  and  C6_13 
REMARK    7  A    between atoms: C6_13  and  C7_14 
REMARK       I    between atoms: C7_14  and  N4_16 
REMARK    8  A    between atoms: N4_16  and  N5_18 
REMARK       I    between atoms: N5_18  and  C8_20 
REMARK    9  A    between atoms: C8_20  and  C9_22 
REMARK   10  A    between atoms: C12_25  and  O3_26 
REMARK   11  A    between atoms: C17_32  and  N6_33 
REMARK   12  A    between atoms: C17_32  and  C22_44 
REMARK   13  A    between atoms: N6_33  and  C18_36 
REMARK   14  A    between atoms: C18_36  and  C19_37 
REMARK   15  A    between atoms: C19_37  and  C20_38 
REMARK   16  A    between atoms: C20_38  and  N7_39 
REMARK       I    between atoms: N7_39  and  C21_41 
REMARK       I    between atoms: C22_44  and  N8_46 
REMARK   17  A    between atoms: N8_46  and  C23_48 
REMARK   18  A    between atoms: C24_51  and  N10_52 
REMARK   19  A    between atoms: N10_52  and  O7_54 
ROOT
HETATM    1  C17 UNL     1       0.701 -43.930 -25.821  1.00  0.00     0.344 C 
ENDROOT
BRANCH   1   2
HETATM    2  C1  UNL     1      -0.052 -43.038 -24.913  1.00  0.00     0.116 C 
BRANCH   2   3
HETATM    3  N1  UNL     1       0.099 -43.271 -23.640  1.00  0.00    -0.387 N 
ATOM      4  H12 UNL     1      -0.070 -42.476 -23.023  1.00  0.00     0.157 HD
ATOM      5  H11 UNL     1       0.385 -44.191 -23.307  1.00  0.00     0.157 HD
ENDBRANCH   2   3
BRANCH   2   6
HETATM    6  N2  UNL     1      -0.897 -42.020 -25.360  1.00  0.00    -0.344 N 
ATOM      7  H2  UNL     1      -1.050 -41.964 -26.367  1.00  0.00     0.167 HD
BRANCH   6   8
HETATM    8  C2  UNL     1      -1.564 -41.056 -24.563  1.00  0.00     0.033 A 
HETATM    9  C3  UNL     1      -0.926 -39.887 -24.153  1.00  0.00     0.031 A 
HETATM   10  C4  UNL     1      -1.529 -38.923 -23.388  1.00  0.00     0.031 A 
HETATM   11  C5  UNL     1      -2.839 -39.085 -22.982  1.00  0.00     0.028 A 
HETATM   12  C15 UNL     1      -3.493 -40.230 -23.371  1.00  0.00     0.031 A 
HETATM   13  C16 UNL     1      -2.870 -41.191 -24.141  1.00  0.00     0.031 A 
BRANCH  11  14
HETATM   14  N3  UNL     1      -3.474 -38.061 -22.177  1.00  0.00    -0.381 N 
ATOM     15  H3  UNL     1      -4.370 -37.648 -22.433  1.00  0.00     0.160 HD
BRANCH  14  16
HETATM   16  C6  UNL     1      -2.763 -37.669 -21.000  1.00  0.00     0.224 C 
BRANCH  16  17
HETATM   17  C7  UNL     1      -2.504 -38.779 -20.101  1.00  0.00     0.253 C 
HETATM   18  O1  UNL     1      -1.284 -39.124 -19.943  1.00  0.00    -0.270 OA
HETATM   19  N4  UNL     1      -3.466 -39.495 -19.401  1.00  0.00    -0.266 N 
ATOM     20  H4  UNL     1      -4.446 -39.235 -19.511  1.00  0.00     0.190 HD
BRANCH  19  21
HETATM   21  N5  UNL     1      -3.143 -40.568 -18.543  1.00  0.00    -0.263 N 
HETATM   22  C8  UNL     1      -3.495 -41.882 -18.875  1.00  0.00     0.270 C 
HETATM   23  O2  UNL     1      -4.118 -42.075 -19.974  1.00  0.00    -0.266 OA
ATOM     24  H5  UNL     1      -2.649 -40.384 -17.670  1.00  0.00     0.190 HD
BRANCH  22  25
HETATM   25  C9  UNL     1      -3.193 -43.040 -18.040  1.00  0.00     0.033 A 
HETATM   26  C10 UNL     1      -4.170 -43.549 -17.208  1.00  0.00     0.020 A 
HETATM   27  C11 UNL     1      -3.892 -44.642 -16.425  1.00  0.00     0.037 A 
HETATM   28  C12 UNL     1      -2.658 -45.224 -16.466  1.00  0.00     0.065 A 
HETATM   29  C13 UNL     1      -1.659 -44.724 -17.301  1.00  0.00     0.037 A 
HETATM   30  C14 UNL     1      -1.951 -43.625 -18.084  1.00  0.00     0.020 A 
BRANCH  28  31
HETATM   31  O3  UNL     1      -2.356 -46.333 -15.680  1.00  0.00    -0.361 OA
ATOM     32  H3  UNL     1      -1.465 -46.651 -15.597  1.00  0.00     0.217 HD
ENDBRANCH  28  31
ENDBRANCH  22  25
ENDBRANCH  19  21
ENDBRANCH  16  17
ENDBRANCH  14  16
ENDBRANCH  11  14
ENDBRANCH   6   8
ENDBRANCH   2   6
ENDBRANCH   1   2
BRANCH   1  33
HETATM   33  N6  UNL     1      -0.073 -45.115 -26.157  1.00  0.00    -0.055 N 
ATOM     34  H62 UNL     1       0.365 -45.957 -25.783  1.00  0.00     0.278 HD
ATOM     35  H61 UNL     1      -0.950 -45.139 -25.637  1.00  0.00     0.278 HD
BRANCH  33  36
HETATM   36  C18 UNL     1      -0.310 -45.242 -27.576  1.00  0.00     0.235 C 
BRANCH  36  37
HETATM   37  C19 UNL     1      -0.168 -46.697 -27.944  1.00  0.00     0.047 C 
BRANCH  37  38
HETATM   38  C20 UNL     1      -1.470 -47.363 -28.239  1.00  0.00     0.127 C 
BRANCH  38  39
HETATM   39  N7  UNL     1      -1.274 -48.635 -28.876  1.00  0.00    -0.335 N 
HETATM   40  C21 UNL     1      -2.325 -49.599 -28.983  1.00  0.00     0.283 C 
HETATM   41  O4  UNL     1      -3.460 -49.287 -28.489  1.00  0.00    -0.630 OA
HETATM   42  O5  UNL     1      -2.188 -50.831 -29.581  1.00  0.00    -0.630 OA
ATOM     43  H7  UNL     1      -0.357 -48.858 -29.263  1.00  0.00     0.165 HD
ENDBRANCH  38  39
ENDBRANCH  37  38
ENDBRANCH  36  37
ENDBRANCH  33  36
ENDBRANCH   1  33
BRANCH   1  44
HETATM   44  C22 UNL     1       2.085 -44.205 -25.429  1.00  0.00     0.274 C 
HETATM   45  O6  UNL     1       2.845 -43.237 -25.158  1.00  0.00    -0.270 OA
HETATM   46  N8  UNL     1       2.575 -45.504 -25.346  1.00  0.00    -0.157 N 
ATOM     47  H8  UNL     1       1.968 -46.175 -24.875  1.00  0.00     0.187 HD
BRANCH  46  48
HETATM   48  C23 UNL     1       3.680 -45.971 -25.780  1.00  0.00     0.702 C 
HETATM   49  N9  UNL     1       3.826 -45.985 -27.145  1.00  0.00    -0.020 N 
HETATM   50  C24 UNL     1       4.432 -46.906 -27.907  1.00  0.00     0.719 C 
ATOM     51  H9  UNL     1       3.421 -45.193 -27.644  1.00  0.00     0.203 HD
HETATM   52  N11 UNL     1       5.289 -47.874 -27.529  1.00  0.00    -0.149 N 
HETATM   53  C25 UNL     1       5.818 -48.065 -26.299  1.00  0.00     0.328 C 
ATOM     54  H11 UNL     1       5.571 -48.537 -28.252  1.00  0.00     0.188 HD
HETATM   55  O8  UNL     1       6.568 -49.060 -26.225  1.00  0.00    -0.261 OA
HETATM   56  C26 UNL     1       5.613 -47.298 -25.174  1.00  0.00     0.328 C 
HETATM   57  O9  UNL     1       6.474 -47.459 -24.267  1.00  0.00    -0.261 OA
HETATM   58  N12 UNL     1       4.626 -46.412 -24.920  1.00  0.00    -0.151 N 
ATOM     59  H12 UNL     1       4.590 -46.033 -23.973  1.00  0.00     0.188 HD
BRANCH  50  60
HETATM   60  N10 UNL     1       4.167 -46.881 -29.171  1.00  0.00    -0.098 N 
ATOM     61  H10 UNL     1       4.794 -47.336 -29.834  1.00  0.00     0.213 HD
BRANCH  60  62
HETATM   62  O7  UNL     1       3.032 -46.235 -29.622  1.00  0.00    -0.276 OA
ATOM     63  H7  UNL     1       2.948 -46.014 -30.543  1.00  0.00     0.245 HD
ENDBRANCH  60  62
ENDBRANCH  50  60
ENDBRANCH  46  48
ENDBRANCH   1  44
TORSDOF 19
ENDMDL
MODEL 5
REMARK VINA RESULT: -10.631730527      1.260      1.599
REMARK  19 active torsions:
REMARK  status: ('A' for Active; 'I' for Inactive)
REMARK    1  A    between atoms: N1_1  and  C1_4 
REMARK    2  A    between atoms: C1_4  and  N2_5 
REMARK    3  A    between atoms: C1_4  and  C17_32 
REMARK    4  A    between atoms: N2_5  and  C2_7 
REMARK    5  A    between atoms: C5_10  and  N3_11 
REMARK    6  A    between atoms: N3_11  and  C6_13 
REMARK    7  A    between atoms: C6_13  and  C7_14 
REMARK       I    between atoms: C7_14  and  N4_16 
REMARK    8  A    between atoms: N4_16  and  N5_18 
REMARK       I    between atoms: N5_18  and  C8_20 
REMARK    9  A    between atoms: C8_20  and  C9_22 
REMARK   10  A    between atoms: C12_25  and  O3_26 
REMARK   11  A    between atoms: C17_32  and  N6_33 
REMARK   12  A    between atoms: C17_32  and  C22_44 
REMARK   13  A    between atoms: N6_33  and  C18_36 
REMARK   14  A    between atoms: C18_36  and  C19_37 
REMARK   15  A    between atoms: C19_37  and  C20_38 
REMARK   16  A    between atoms: C20_38  and  N7_39 
REMARK       I    between atoms: N7_39  and  C21_41 
REMARK       I    between atoms: C22_44  and  N8_46 
REMARK   17  A    between atoms: N8_46  and  C23_48 
REMARK   18  A    between atoms: C24_51  and  N10_52 
REMARK   19  A    between atoms: N10_52  and  O7_54 
ROOT
HETATM    1  C17 UNL     1       1.214 -44.066 -25.861  1.00  0.00     0.344 C 
ENDROOT
BRANCH   1   2
HETATM    2  C1  UNL     1       0.640 -43.217 -24.795  1.00  0.00     0.116 C 
BRANCH   2   3
HETATM    3  N1  UNL     1       1.464 -42.375 -24.239  1.00  0.00    -0.387 N 
ATOM      4  H12 UNL     1       1.551 -42.446 -23.225  1.00  0.00     0.157 HD
ATOM      5  H11 UNL     1       1.966 -41.686 -24.799  1.00  0.00     0.157 HD
ENDBRANCH   2   3
BRANCH   2   6
HETATM    6  N2  UNL     1      -0.688 -43.305 -24.371  1.00  0.00    -0.344 N 
ATOM      7  H2  UNL     1      -1.099 -44.238 -24.353  1.00  0.00     0.167 HD
BRANCH   6   8
HETATM    8  C2  UNL     1      -1.524 -42.236 -23.964  1.00  0.00     0.033 A 
HETATM    9  C3  UNL     1      -2.121 -42.222 -22.704  1.00  0.00     0.031 A 
HETATM   10  C4  UNL     1      -2.932 -41.209 -22.262  1.00  0.00     0.031 A 
HETATM   11  C5  UNL     1      -3.194 -40.128 -23.081  1.00  0.00     0.028 A 
HETATM   12  C15 UNL     1      -2.619 -40.116 -24.330  1.00  0.00     0.031 A 
HETATM   13  C16 UNL     1      -1.805 -41.145 -24.760  1.00  0.00     0.031 A 
BRANCH  11  14
HETATM   14  N3  UNL     1      -4.049 -39.058 -22.608  1.00  0.00    -0.381 N 
ATOM     15  H3  UNL     1      -4.970 -39.235 -22.210  1.00  0.00     0.160 HD
BRANCH  14  16
HETATM   16  C6  UNL     1      -3.515 -37.738 -22.735  1.00  0.00     0.224 C 
BRANCH  16  17
HETATM   17  C7  UNL     1      -2.308 -37.540 -21.953  1.00  0.00     0.253 C 
HETATM   18  O1  UNL     1      -1.317 -36.992 -22.547  1.00  0.00    -0.270 OA
HETATM   19  N4  UNL     1      -2.138 -37.893 -20.621  1.00  0.00    -0.266 N 
ATOM     20  H4  UNL     1      -2.917 -38.330 -20.128  1.00  0.00     0.190 HD
BRANCH  19  21
HETATM   21  N5  UNL     1      -0.933 -37.673 -19.921  1.00  0.00    -0.263 N 
HETATM   22  C8  UNL     1       0.047 -38.672 -19.849  1.00  0.00     0.270 C 
HETATM   23  O2  UNL     1      -0.189 -39.783 -20.433  1.00  0.00    -0.266 OA
ATOM     24  H5  UNL     1      -0.773 -36.776 -19.462  1.00  0.00     0.190 HD
BRANCH  22  25
HETATM   25  C9  UNL     1       1.316 -38.515 -19.147  1.00  0.00     0.033 A 
HETATM   26  C10 UNL     1       1.551 -37.366 -18.419  1.00  0.00     0.020 A 
HETATM   27  C11 UNL     1       2.742 -37.218 -17.753  1.00  0.00     0.037 A 
HETATM   28  C12 UNL     1       3.691 -38.197 -17.808  1.00  0.00     0.065 A 
HETATM   29  C13 UNL     1       3.471 -39.364 -18.538  1.00  0.00     0.037 A 
HETATM   30  C14 UNL     1       2.269 -39.503 -19.203  1.00  0.00     0.020 A 
BRANCH  28  31
HETATM   31  O3  UNL     1       4.905 -38.065 -17.138  1.00  0.00    -0.361 OA
ATOM     32  H3  UNL     1       5.510 -38.794 -17.066  1.00  0.00     0.217 HD
ENDBRANCH  28  31
ENDBRANCH  22  25
ENDBRANCH  19  21
ENDBRANCH  16  17
ENDBRANCH  14  16
ENDBRANCH  11  14
ENDBRANCH   6   8
ENDBRANCH   2   6
ENDBRANCH   1   2
BRANCH   1  33
HETATM   33  N6  UNL     1       0.485 -45.319 -25.988  1.00  0.00    -0.055 N 
ATOM     34  H62 UNL     1       1.123 -46.115 -25.990  1.00  0.00     0.278 HD
ATOM     35  H61 UNL     1      -0.037 -45.527 -25.137  1.00  0.00     0.278 HD
BRANCH  33  36
HETATM   36  C18 UNL     1      -0.379 -45.346 -27.144  1.00  0.00     0.235 C 
BRANCH  36  37
HETATM   37  C19 UNL     1       0.019 -46.524 -27.997  1.00  0.00     0.047 C 
BRANCH  37  38
HETATM   38  C20 UNL     1      -1.108 -47.083 -28.798  1.00  0.00     0.127 C 
BRANCH  38  39
HETATM   39  N7  UNL     1      -1.056 -48.518 -28.843  1.00  0.00    -0.335 N 
HETATM   40  C21 UNL     1      -2.106 -49.295 -29.424  1.00  0.00     0.283 C 
HETATM   41  O4  UNL     1      -3.104 -48.665 -29.910  1.00  0.00    -0.630 OA
HETATM   42  O5  UNL     1      -2.104 -50.671 -29.492  1.00  0.00    -0.630 OA
ATOM     43  H7  UNL     1      -0.246 -48.995 -28.449  1.00  0.00     0.165 HD
ENDBRANCH  38  39
ENDBRANCH  37  38
ENDBRANCH  36  37
ENDBRANCH  33  36
ENDBRANCH   1  33
BRANCH   1  44
HETATM   44  C22 UNL     1       2.671 -44.217 -25.830  1.00  0.00     0.274 C 
HETATM   45  O6  UNL     1       3.391 -43.252 -26.203  1.00  0.00    -0.270 OA
HETATM   46  N8  UNL     1       3.274 -45.393 -25.399  1.00  0.00    -0.157 N 
ATOM     47  H8  UNL     1       2.891 -45.796 -24.543  1.00  0.00     0.187 HD
BRANCH  46  48
HETATM   48  C23 UNL     1       4.239 -46.037 -25.926  1.00  0.00     0.702 C 
HETATM   49  N9  UNL     1       4.262 -46.057 -27.300  1.00  0.00    -0.020 N 
HETATM   50  C24 UNL     1       4.632 -47.059 -28.110  1.00  0.00     0.719 C 
ATOM     51  H9  UNL     1       3.958 -45.201 -27.762  1.00  0.00     0.203 HD
HETATM   52  N11 UNL     1       5.338 -48.165 -27.808  1.00  0.00    -0.149 N 
HETATM   53  C25 UNL     1       5.930 -48.462 -26.628  1.00  0.00     0.328 C 
ATOM     54  H11 UNL     1       5.438 -48.856 -28.551  1.00  0.00     0.188 HD
HETATM   55  O8  UNL     1       6.501 -49.571 -26.619  1.00  0.00    -0.261 OA
HETATM   56  C26 UNL     1       5.958 -47.686 -25.491  1.00  0.00     0.328 C 
HETATM   57  O9  UNL     1       6.853 -48.005 -24.662  1.00  0.00    -0.261 OA
HETATM   58  N12 UNL     1       5.165 -46.647 -25.152  1.00  0.00    -0.151 N 
ATOM     59  H12 UNL     1       5.277 -46.281 -24.206  1.00  0.00     0.188 HD
BRANCH  50  60
HETATM   60  N10 UNL     1       4.267 -46.970 -29.346  1.00  0.00    -0.098 N 
ATOM     61  H10 UNL     1       4.912 -47.236 -30.090  1.00  0.00     0.213 HD
BRANCH  60  62
HETATM   62  O7  UNL     1       3.000 -46.515 -29.658  1.00  0.00    -0.276 OA
ATOM     63  H7  UNL     1       2.894 -45.784 -30.257  1.00  0.00     0.245 HD
ENDBRANCH  60  62
ENDBRANCH  50  60
ENDBRANCH  46  48
ENDBRANCH   1  44
TORSDOF 19
ENDMDL
