MODEL 1
REMARK VINA RESULT: -10.944503419      0.000      0.000
REMARK  17 active torsions:
REMARK  status: ('A' for Active; 'I' for Inactive)
REMARK    1  A    between atoms: N1_1  and  C1_4 
REMARK    2  A    between atoms: C2_7  and  N3_8 
REMARK    3  A    between atoms: C4_14  and  C5_15 
REMARK    4  A    between atoms: C5_15  and  N5_16 
REMARK       I    between atoms: N5_16  and  C6_18 
REMARK    5  A    between atoms: C6_18  and  C7_20 
REMARK    6  A    between atoms: C8_22  and  C9_23 
REMARK    7  A    between atoms: C11_27  and  C12_28 
REMARK    8  A    between atoms: C12_28  and  O4_29 
REMARK    9  A    between atoms: C12_28  and  N7_31 
REMARK   10  A    between atoms: N7_31  and  C13_33 
REMARK   11  A    between atoms: C13_33  and  C14_34 
REMARK   12  A    between atoms: C13_33  and  C18_42 
REMARK   13  A    between atoms: C14_34  and  C15_35 
REMARK   14  A    between atoms: C15_35  and  C16_36 
REMARK   15  A    between atoms: C16_36  and  N8_37 
REMARK       I    between atoms: C18_42  and  N11_44 
REMARK   16  A    between atoms: N11_44  and  N12_46 
REMARK   17  A    between atoms: C23_55  and  N15_56 
ROOT
HETATM    1  C7  UNL     1       0.012 -43.057 -23.929  1.00  0.00     0.158 A 
HETATM    2  O2  UNL     1      -0.329 -44.053 -23.092  1.00  0.00    -0.299 OA
HETATM    3  C8  UNL     1      -1.549 -43.930 -22.678  1.00  0.00     0.142 A 
HETATM    4  C10 UNL     1      -2.066 -42.805 -23.256  1.00  0.00     0.061 A 
HETATM    5  C11 UNL     1      -1.050 -42.239 -24.067  1.00  0.00     0.057 A 
ENDROOT
BRANCH   5   6
HETATM    6  C12 UNL     1      -1.211 -41.023 -24.837  1.00  0.00     0.150 C 
BRANCH   6   7
HETATM    7  O4  UNL     1      -1.112 -41.147 -26.139  1.00  0.00    -0.346 OA
ATOM      8  H4  UNL     1      -0.233 -41.253 -26.483  1.00  0.00     0.219 HD
ENDBRANCH   6   7
BRANCH   6   9
HETATM    9  N7  UNL     1      -1.462 -39.722 -24.424  1.00  0.00    -0.357 N 
ATOM     10  H7  UNL     1      -0.773 -38.998 -24.628  1.00  0.00     0.162 HD
BRANCH   9  11
HETATM   11  C13 UNL     1      -2.693 -39.349 -23.699  1.00  0.00     0.177 C 
BRANCH  11  12
HETATM   12  C14 UNL     1      -3.278 -38.103 -24.262  1.00  0.00     0.036 C 
BRANCH  12  13
HETATM   13  C15 UNL     1      -4.645 -38.309 -24.831  1.00  0.00     0.022 C 
BRANCH  13  14
HETATM   14  C16 UNL     1      -5.590 -37.262 -24.278  1.00  0.00     0.122 C 
BRANCH  14  15
HETATM   15  N8  UNL     1      -5.208 -36.999 -22.934  1.00  0.00    -0.367 N 
HETATM   16  C17 UNL     1      -5.686 -36.070 -22.219  1.00  0.00     0.196 C 
HETATM   17  N9  UNL     1      -6.671 -35.186 -22.710  1.00  0.00    -0.067 NA
HETATM   18  N10 UNL     1      -5.220 -35.922 -20.891  1.00  0.00    -0.067 NA
ATOM     19  H8  UNL     1      -4.498 -37.602 -22.516  1.00  0.00     0.161 HD
ENDBRANCH  14  15
ENDBRANCH  13  14
ENDBRANCH  12  13
ENDBRANCH  11  12
BRANCH  11  20
HETATM   20  C18 UNL     1      -2.294 -39.052 -22.270  1.00  0.00     0.259 C 
HETATM   21  O5  UNL     1      -2.405 -37.895 -21.878  1.00  0.00    -0.269 OA
HETATM   22  N11 UNL     1      -1.822 -40.099 -21.478  1.00  0.00    -0.261 N 
ATOM     23  H11 UNL     1      -1.766 -41.020 -21.913  1.00  0.00     0.190 HD
BRANCH  22  24
HETATM   24  N12 UNL     1      -1.413 -40.000 -20.128  1.00  0.00    -0.259 N 
HETATM   25  C19 UNL     1      -0.268 -39.440 -19.690  1.00  0.00     0.119 A 
HETATM   26  C20 UNL     1      -0.192 -39.531 -18.294  1.00  0.00     0.051 A 
HETATM   27  C21 UNL     1      -1.339 -40.168 -17.913  1.00  0.00     0.067 A 
HETATM   28  N13 UNL     1      -1.744 -40.504 -16.664  1.00  0.00    -0.350 N 
HETATM   29  C24 UNL     1      -2.067 -40.444 -19.038  1.00  0.00     0.126 A 
HETATM   30  C22 UNL     1      -2.918 -41.136 -16.535  1.00  0.00     0.182 A 
ATOM     31  H13 UNL     1      -1.174 -40.282 -15.848  1.00  0.00     0.166 HD
HETATM   32  N14 UNL     1      -3.644 -41.417 -17.598  1.00  0.00    -0.337 N 
HETATM   33  C23 UNL     1      -3.282 -41.100 -18.899  1.00  0.00     0.131 A 
ATOM     34  H14 UNL     1      -4.531 -41.900 -17.455  1.00  0.00     0.168 HD
BRANCH  33  35
HETATM   35  N15 UNL     1      -4.027 -41.412 -19.802  1.00  0.00    -0.383 N 
ATOM     36 2H15 UNL     1      -5.041 -41.501 -19.735  1.00  0.00     0.157 HD
ATOM     37 1H15 UNL     1      -3.628 -41.602 -20.721  1.00  0.00     0.157 HD
ENDBRANCH  33  35
ENDBRANCH  22  24
ENDBRANCH  11  20
ENDBRANCH   9  11
ENDBRANCH   6   9
ENDBRANCH   5   6
BRANCH   1  38
HETATM   38  C6  UNL     1       1.343 -43.028 -24.509  1.00  0.00     0.276 C 
HETATM   39  N5  UNL     1       1.860 -43.756 -25.572  1.00  0.00    -0.350 N 
ATOM     40  H5  UNL     1       1.252 -44.417 -26.055  1.00  0.00     0.163 HD
HETATM   41  O1  UNL     1       2.165 -42.195 -23.953  1.00  0.00    -0.265 OA
BRANCH  39  42
HETATM   42  C5  UNL     1       3.221 -43.616 -26.021  1.00  0.00     0.181 C 
BRANCH  42  43
HETATM   43  C4  UNL     1       3.842 -44.830 -26.551  1.00  0.00     0.043 A 
HETATM   44  N4  UNL     1       4.582 -45.618 -25.758  1.00  0.00    -0.351 N 
HETATM   45  C3  UNL     1       5.143 -46.732 -26.237  1.00  0.00     0.122 A 
ATOM     46  H4  UNL     1       4.718 -45.364 -24.779  1.00  0.00     0.166 HD
HETATM   47  C2  UNL     1       5.910 -47.538 -25.402  1.00  0.00     0.145 A 
HETATM   48  C26 UNL     1       4.998 -47.129 -27.546  1.00  0.00     0.151 A 
HETATM   49  N2  UNL     1       6.479 -48.668 -25.891  1.00  0.00    -0.175 N 
HETATM   50  C1  UNL     1       6.325 -49.038 -27.172  1.00  0.00     0.679 A 
ATOM     51  H2  UNL     1       7.039 -49.251 -25.270  1.00  0.00     0.186 HD
HETATM   52  N17 UNL     1       5.587 -48.270 -27.994  1.00  0.00    -0.174 N 
ATOM     53  H17 UNL     1       5.467 -48.549 -28.967  1.00  0.00     0.186 HD
HETATM   54  N16 UNL     1       4.254 -46.340 -28.355  1.00  0.00    -0.348 N 
HETATM   55  C25 UNL     1       3.685 -45.205 -27.856  1.00  0.00     0.116 A 
ATOM     56  H16 UNL     1       4.119 -46.593 -29.334  1.00  0.00     0.167 HD
BRANCH  47  57
HETATM   57  N3  UNL     1       6.029 -47.145 -24.188  1.00  0.00    -0.383 N 
ATOM     58  H32 UNL     1       5.177 -47.149 -23.627  1.00  0.00     0.157 HD
ATOM     59  H31 UNL     1       6.909 -46.838 -23.773  1.00  0.00     0.157 HD
ENDBRANCH  47  57
BRANCH  50  60
HETATM   60  N1  UNL     1       6.875 -50.117 -27.613  1.00  0.00    -0.234 N 
ATOM     61  H12 UNL     1       7.129 -50.864 -26.967  1.00  0.00     0.174 HD
ATOM     62  H11 UNL     1       7.063 -50.233 -28.609  1.00  0.00     0.174 HD
ENDBRANCH  50  60
ENDBRANCH  42  43
ENDBRANCH  39  42
ENDBRANCH   1  38
BRANCH   3  63
HETATM   63  C9  UNL     1      -2.237 -44.852 -21.752  1.00  0.00     0.288 C 
HETATM   64  N6  UNL     1      -2.615 -44.425 -20.470  1.00  0.00    -0.055 NA
HETATM   65  O3  UNL     1      -2.480 -46.017 -22.117  1.00  0.00    -0.269 OA
ENDBRANCH   3  63
TORSDOF 17
ENDMDL
MODEL 2
REMARK VINA RESULT: -10.918918749      1.191      1.740
REMARK  17 active torsions:
REMARK  status: ('A' for Active; 'I' for Inactive)
REMARK    1  A    between atoms: N1_1  and  C1_4 
REMARK    2  A    between atoms: C2_7  and  N3_8 
REMARK    3  A    between atoms: C4_14  and  C5_15 
REMARK    4  A    between atoms: C5_15  and  N5_16 
REMARK       I    between atoms: N5_16  and  C6_18 
REMARK    5  A    between atoms: C6_18  and  C7_20 
REMARK    6  A    between atoms: C8_22  and  C9_23 
REMARK    7  A    between atoms: C11_27  and  C12_28 
REMARK    8  A    between atoms: C12_28  and  O4_29 
REMARK    9  A    between atoms: C12_28  and  N7_31 
REMARK   10  A    between atoms: N7_31  and  C13_33 
REMARK   11  A    between atoms: C13_33  and  C14_34 
REMARK   12  A    between atoms: C13_33  and  C18_42 
REMARK   13  A    between atoms: C14_34  and  C15_35 
REMARK   14  A    between atoms: C15_35  and  C16_36 
REMARK   15  A    between atoms: C16_36  and  N8_37 
REMARK       I    between atoms: C18_42  and  N11_44 
REMARK   16  A    between atoms: N11_44  and  N12_46 
REMARK   17  A    between atoms: C23_55  and  N15_56 
ROOT
HETATM    1  C7  UNL     1       0.244 -42.867 -23.721  1.00  0.00     0.158 A 
HETATM    2  O2  UNL     1      -0.147 -43.994 -23.101  1.00  0.00    -0.299 OA
HETATM    3  C8  UNL     1      -1.295 -43.846 -22.524  1.00  0.00     0.142 A 
HETATM    4  C10 UNL     1      -1.709 -42.565 -22.759  1.00  0.00     0.061 A 
HETATM    5  C11 UNL     1      -0.707 -41.930 -23.536  1.00  0.00     0.057 A 
ENDROOT
BRANCH   5   6
HETATM    6  C12 UNL     1      -0.775 -40.553 -23.979  1.00  0.00     0.150 C 
BRANCH   6   7
HETATM    7  O4  UNL     1      -1.160 -40.365 -25.219  1.00  0.00    -0.346 OA
ATOM      8  H4  UNL     1      -0.932 -39.527 -25.604  1.00  0.00     0.219 HD
ENDBRANCH   6   7
BRANCH   6   9
HETATM    9  N7  UNL     1      -0.503 -39.375 -23.300  1.00  0.00    -0.357 N 
ATOM     10  H7  UNL     1       0.396 -38.916 -23.449  1.00  0.00     0.162 HD
BRANCH   9  11
HETATM   11  C13 UNL     1      -1.469 -38.761 -22.367  1.00  0.00     0.177 C 
BRANCH  11  12
HETATM   12  C14 UNL     1      -1.271 -37.288 -22.299  1.00  0.00     0.036 C 
BRANCH  12  13
HETATM   13  C15 UNL     1      -2.501 -36.519 -22.661  1.00  0.00     0.022 C 
BRANCH  13  14
HETATM   14  C16 UNL     1      -3.718 -37.410 -22.521  1.00  0.00     0.122 C 
BRANCH  14  15
HETATM   15  N8  UNL     1      -4.564 -37.166 -23.637  1.00  0.00    -0.367 N 
HETATM   16  C17 UNL     1      -4.702 -37.952 -24.621  1.00  0.00     0.196 C 
HETATM   17  N9  UNL     1      -4.005 -39.176 -24.698  1.00  0.00    -0.067 NA
HETATM   18  N10 UNL     1      -5.584 -37.589 -25.665  1.00  0.00    -0.067 NA
ATOM     19  H8  UNL     1      -5.099 -36.297 -23.646  1.00  0.00     0.161 HD
ENDBRANCH  14  15
ENDBRANCH  13  14
ENDBRANCH  12  13
ENDBRANCH  11  12
BRANCH  11  20
HETATM   20  C18 UNL     1      -1.174 -39.316 -20.992  1.00  0.00     0.259 C 
HETATM   21  O5  UNL     1      -0.030 -39.696 -20.765  1.00  0.00    -0.269 OA
HETATM   22  N11 UNL     1      -2.210 -39.371 -20.059  1.00  0.00    -0.261 N 
ATOM     23  H11 UNL     1      -3.124 -39.033 -20.361  1.00  0.00     0.190 HD
BRANCH  22  24
HETATM   24  N12 UNL     1      -2.110 -39.853 -18.734  1.00  0.00    -0.259 N 
HETATM   25  C19 UNL     1      -1.371 -39.305 -17.750  1.00  0.00     0.119 A 
HETATM   26  C20 UNL     1      -1.504 -40.054 -16.573  1.00  0.00     0.051 A 
HETATM   27  C21 UNL     1      -2.354 -41.075 -16.893  1.00  0.00     0.067 A 
HETATM   28  N13 UNL     1      -2.800 -42.082 -16.103  1.00  0.00    -0.350 N 
HETATM   29  C24 UNL     1      -2.711 -40.936 -18.207  1.00  0.00     0.126 A 
HETATM   30  C22 UNL     1      -3.633 -42.981 -16.644  1.00  0.00     0.182 A 
ATOM     31  H13 UNL     1      -2.511 -42.153 -15.128  1.00  0.00     0.166 HD
HETATM   32  N14 UNL     1      -3.997 -42.876 -17.906  1.00  0.00    -0.337 N 
HETATM   33  C23 UNL     1      -3.574 -41.870 -18.762  1.00  0.00     0.131 A 
ATOM     34  H14 UNL     1      -4.633 -43.581 -18.279  1.00  0.00     0.168 HD
BRANCH  33  35
HETATM   35  N15 UNL     1      -3.971 -41.876 -19.907  1.00  0.00    -0.383 N 
ATOM     36 2H15 UNL     1      -4.716 -42.465 -20.277  1.00  0.00     0.157 HD
ATOM     37 1H15 UNL     1      -3.538 -41.241 -20.578  1.00  0.00     0.157 HD
ENDBRANCH  33  35
ENDBRANCH  22  24
ENDBRANCH  11  20
ENDBRANCH   9  11
ENDBRANCH   6   9
ENDBRANCH   5   6
BRANCH   1  38
HETATM   38  C6  UNL     1       1.507 -42.841 -24.438  1.00  0.00     0.276 C 
HETATM   39  N5  UNL     1       1.997 -43.715 -25.399  1.00  0.00    -0.350 N 
ATOM     40  H5  UNL     1       1.418 -44.505 -25.682  1.00  0.00     0.163 HD
HETATM   41  O1  UNL     1       2.287 -41.850 -24.137  1.00  0.00    -0.265 OA
BRANCH  39  42
HETATM   42  C5  UNL     1       3.290 -43.552 -26.012  1.00  0.00     0.181 C 
BRANCH  42  43
HETATM   43  C4  UNL     1       3.899 -44.772 -26.541  1.00  0.00     0.043 A 
HETATM   44  N4  UNL     1       4.628 -45.569 -25.747  1.00  0.00    -0.351 N 
HETATM   45  C3  UNL     1       5.178 -46.688 -26.226  1.00  0.00     0.122 A 
ATOM     46  H4  UNL     1       4.765 -45.318 -24.768  1.00  0.00     0.166 HD
HETATM   47  C2  UNL     1       5.934 -47.504 -25.390  1.00  0.00     0.145 A 
HETATM   48  C26 UNL     1       5.032 -47.082 -27.536  1.00  0.00     0.151 A 
HETATM   49  N2  UNL     1       6.492 -48.639 -25.880  1.00  0.00    -0.175 N 
HETATM   50  C1  UNL     1       6.337 -49.006 -27.161  1.00  0.00     0.679 A 
ATOM     51  H2  UNL     1       7.044 -49.230 -25.257  1.00  0.00     0.186 HD
HETATM   52  N17 UNL     1       5.610 -48.230 -27.984  1.00  0.00    -0.174 N 
ATOM     53  H17 UNL     1       5.489 -48.506 -28.958  1.00  0.00     0.186 HD
HETATM   54  N16 UNL     1       4.299 -46.284 -28.346  1.00  0.00    -0.348 N 
HETATM   55  C25 UNL     1       3.742 -45.143 -27.847  1.00  0.00     0.116 A 
ATOM     56  H16 UNL     1       4.163 -46.535 -29.326  1.00  0.00     0.167 HD
BRANCH  47  57
HETATM   57  N3  UNL     1       6.055 -47.114 -24.176  1.00  0.00    -0.383 N 
ATOM     58  H32 UNL     1       6.293 -47.832 -23.493  1.00  0.00     0.157 HD
ATOM     59  H31 UNL     1       5.927 -46.148 -23.872  1.00  0.00     0.157 HD
ENDBRANCH  47  57
BRANCH  50  60
HETATM   60  N1  UNL     1       6.877 -50.091 -27.603  1.00  0.00    -0.234 N 
ATOM     61  H12 UNL     1       7.254 -50.778 -26.950  1.00  0.00     0.174 HD
ATOM     62  H11 UNL     1       6.933 -50.271 -28.605  1.00  0.00     0.174 HD
ENDBRANCH  50  60
ENDBRANCH  42  43
ENDBRANCH  39  42
ENDBRANCH   1  38
BRANCH   3  63
HETATM   63  C9  UNL     1      -2.010 -44.886 -21.758  1.00  0.00     0.288 C 
HETATM   64  N6  UNL     1      -2.606 -44.581 -20.524  1.00  0.00    -0.055 NA
HETATM   65  O3  UNL     1      -2.081 -46.042 -22.215  1.00  0.00    -0.269 OA
ENDBRANCH   3  63
TORSDOF 17
ENDMDL
MODEL 3
REMARK VINA RESULT: -10.767878211      1.954      2.901
REMARK  17 active torsions:
REMARK  status: ('A' for Active; 'I' for Inactive)
REMARK    1  A    between atoms: N1_1  and  C1_4 
REMARK    2  A    between atoms: C2_7  and  N3_8 
REMARK    3  A    between atoms: C4_14  and  C5_15 
REMARK    4  A    between atoms: C5_15  and  N5_16 
REMARK       I    between atoms: N5_16  and  C6_18 
REMARK    5  A    between atoms: C6_18  and  C7_20 
REMARK    6  A    between atoms: C8_22  and  C9_23 
REMARK    7  A    between atoms: C11_27  and  C12_28 
REMARK    8  A    between atoms: C12_28  and  O4_29 
REMARK    9  A    between atoms: C12_28  and  N7_31 
REMARK   10  A    between atoms: N7_31  and  C13_33 
REMARK   11  A    between atoms: C13_33  and  C14_34 
REMARK   12  A    between atoms: C13_33  and  C18_42 
REMARK   13  A    between atoms: C14_34  and  C15_35 
REMARK   14  A    between atoms: C15_35  and  C16_36 
REMARK   15  A    between atoms: C16_36  and  N8_37 
REMARK       I    between atoms: C18_42  and  N11_44 
REMARK   16  A    between atoms: N11_44  and  N12_46 
REMARK   17  A    between atoms: C23_55  and  N15_56 
ROOT
HETATM    1  C7  UNL     1       0.263 -42.875 -23.810  1.00  0.00     0.158 A 
HETATM    2  O2  UNL     1      -0.114 -43.964 -23.118  1.00  0.00    -0.299 OA
HETATM    3  C8  UNL     1      -1.281 -43.807 -22.582  1.00  0.00     0.142 A 
HETATM    4  C10 UNL     1      -1.721 -42.558 -22.921  1.00  0.00     0.061 A 
HETATM    5  C11 UNL     1      -0.717 -41.955 -23.719  1.00  0.00     0.057 A 
ENDROOT
BRANCH   5   6
HETATM    6  C12 UNL     1      -0.809 -40.617 -24.264  1.00  0.00     0.150 C 
BRANCH   6   7
HETATM    7  O4  UNL     1      -1.372 -40.513 -25.445  1.00  0.00    -0.346 OA
ATOM      8  H4  UNL     1      -2.105 -39.913 -25.507  1.00  0.00     0.219 HD
ENDBRANCH   6   7
BRANCH   6   9
HETATM    9  N7  UNL     1      -0.402 -39.400 -23.737  1.00  0.00    -0.357 N 
ATOM     10  H7  UNL     1       0.321 -38.869 -24.224  1.00  0.00     0.162 HD
BRANCH   9  11
HETATM   11  C13 UNL     1      -0.978 -38.845 -22.496  1.00  0.00     0.177 C 
BRANCH  11  12
HETATM   12  C14 UNL     1      -1.132 -37.369 -22.601  1.00  0.00     0.036 C 
BRANCH  12  13
HETATM   13  C15 UNL     1      -2.500 -36.899 -22.223  1.00  0.00     0.022 C 
BRANCH  13  14
HETATM   14  C16 UNL     1      -3.506 -38.002 -22.479  1.00  0.00     0.122 C 
BRANCH  14  15
HETATM   15  N8  UNL     1      -4.446 -37.520 -23.430  1.00  0.00    -0.367 N 
HETATM   16  C17 UNL     1      -4.656 -38.046 -24.563  1.00  0.00     0.196 C 
HETATM   17  N9  UNL     1      -3.953 -39.191 -24.993  1.00  0.00    -0.067 NA
HETATM   18  N10 UNL     1      -5.627 -37.467 -25.414  1.00  0.00    -0.067 NA
ATOM     19  H8  UNL     1      -4.990 -36.693 -23.183  1.00  0.00     0.161 HD
ENDBRANCH  14  15
ENDBRANCH  13  14
ENDBRANCH  12  13
ENDBRANCH  11  12
BRANCH  11  20
HETATM   20  C18 UNL     1       0.013 -39.114 -21.387  1.00  0.00     0.259 C 
HETATM   21  O5  UNL     1       1.105 -39.576 -21.700  1.00  0.00    -0.269 OA
HETATM   22  N11 UNL     1      -0.362 -38.828 -20.073  1.00  0.00    -0.261 N 
ATOM     23  H11 UNL     1      -1.300 -38.452 -19.931  1.00  0.00     0.190 HD
BRANCH  22  24
HETATM   24  N12 UNL     1       0.438 -39.012 -18.922  1.00  0.00    -0.259 N 
HETATM   25  C19 UNL     1       0.617 -40.175 -18.265  1.00  0.00     0.119 A 
HETATM   26  C20 UNL     1       1.464 -39.980 -17.166  1.00  0.00     0.051 A 
HETATM   27  C21 UNL     1       1.785 -38.652 -17.192  1.00  0.00     0.067 A 
HETATM   28  N13 UNL     1       2.576 -37.957 -16.338  1.00  0.00    -0.350 N 
HETATM   29  C24 UNL     1       1.155 -38.082 -18.264  1.00  0.00     0.126 A 
HETATM   30  C22 UNL     1       2.743 -36.647 -16.564  1.00  0.00     0.182 A 
ATOM     31  H13 UNL     1       3.030 -38.416 -15.549  1.00  0.00     0.166 HD
HETATM   32  N14 UNL     1       2.149 -36.067 -17.588  1.00  0.00    -0.337 N 
HETATM   33  C23 UNL     1       1.330 -36.725 -18.493  1.00  0.00     0.131 A 
ATOM     34  H14 UNL     1       2.302 -35.068 -17.723  1.00  0.00     0.168 HD
BRANCH  33  35
HETATM   35  N15 UNL     1       0.833 -36.088 -19.396  1.00  0.00    -0.383 N 
ATOM     36 2H15 UNL     1       1.300 -35.810 -20.259  1.00  0.00     0.157 HD
ATOM     37 1H15 UNL     1      -0.141 -35.796 -19.310  1.00  0.00     0.157 HD
ENDBRANCH  33  35
ENDBRANCH  22  24
ENDBRANCH  11  20
ENDBRANCH   9  11
ENDBRANCH   6   9
ENDBRANCH   5   6
BRANCH   1  38
HETATM   38  C6  UNL     1       1.544 -42.866 -24.496  1.00  0.00     0.276 C 
HETATM   39  N5  UNL     1       2.024 -43.715 -25.485  1.00  0.00    -0.350 N 
ATOM     40  H5  UNL     1       1.422 -44.468 -25.817  1.00  0.00     0.163 HD
HETATM   41  O1  UNL     1       2.353 -41.921 -24.133  1.00  0.00    -0.265 OA
BRANCH  39  42
HETATM   42  C5  UNL     1       3.337 -43.574 -26.060  1.00  0.00     0.181 C 
BRANCH  42  43
HETATM   43  C4  UNL     1       3.936 -44.805 -26.579  1.00  0.00     0.043 A 
HETATM   44  N4  UNL     1       4.660 -45.600 -25.779  1.00  0.00    -0.351 N 
HETATM   45  C3  UNL     1       5.201 -46.727 -26.248  1.00  0.00     0.122 A 
ATOM     46  H4  UNL     1       4.799 -45.341 -24.802  1.00  0.00     0.166 HD
HETATM   47  C2  UNL     1       5.951 -47.541 -25.406  1.00  0.00     0.145 A 
HETATM   48  C26 UNL     1       5.050 -47.132 -27.554  1.00  0.00     0.151 A 
HETATM   49  N2  UNL     1       6.500 -48.685 -25.886  1.00  0.00    -0.175 N 
HETATM   50  C1  UNL     1       6.341 -49.062 -27.164  1.00  0.00     0.679 A 
ATOM     51  H2  UNL     1       7.048 -49.274 -25.259  1.00  0.00     0.186 HD
HETATM   52  N17 UNL     1       5.618 -48.288 -27.992  1.00  0.00    -0.174 N 
ATOM     53  H17 UNL     1       5.495 -48.572 -28.964  1.00  0.00     0.186 HD
HETATM   54  N16 UNL     1       4.322 -46.336 -28.370  1.00  0.00    -0.348 N 
HETATM   55  C25 UNL     1       3.774 -45.186 -27.882  1.00  0.00     0.116 A 
ATOM     56  H16 UNL     1       4.183 -46.594 -29.348  1.00  0.00     0.167 HD
BRANCH  47  57
HETATM   57  N3  UNL     1       6.076 -47.141 -24.195  1.00  0.00    -0.383 N 
ATOM     58  H32 UNL     1       5.210 -46.944 -23.694  1.00  0.00     0.157 HD
ATOM     59  H31 UNL     1       6.973 -47.014 -23.727  1.00  0.00     0.157 HD
ENDBRANCH  47  57
BRANCH  50  60
HETATM   60  N1  UNL     1       6.871 -50.155 -27.596  1.00  0.00    -0.234 N 
ATOM     61  H12 UNL     1       7.448 -50.725 -26.977  1.00  0.00     0.174 HD
ATOM     62  H11 UNL     1       6.723 -50.458 -28.558  1.00  0.00     0.174 HD
ENDBRANCH  50  60
ENDBRANCH  42  43
ENDBRANCH  39  42
ENDBRANCH   1  38
BRANCH   3  63
HETATM   63  C9  UNL     1      -1.988 -44.807 -21.758  1.00  0.00     0.288 C 
HETATM   64  N6  UNL     1      -2.598 -44.436 -20.550  1.00  0.00    -0.055 NA
HETATM   65  O3  UNL     1      -2.039 -45.990 -22.144  1.00  0.00    -0.269 OA
ENDBRANCH   3  63
TORSDOF 17
ENDMDL
MODEL 4
REMARK VINA RESULT: -10.621876198      1.148      1.944
REMARK  17 active torsions:
REMARK  status: ('A' for Active; 'I' for Inactive)
REMARK    1  A    between atoms: N1_1  and  C1_4 
REMARK    2  A    between atoms: C2_7  and  N3_8 
REMARK    3  A    between atoms: C4_14  and  C5_15 
REMARK    4  A    between atoms: C5_15  and  N5_16 
REMARK       I    between atoms: N5_16  and  C6_18 
REMARK    5  A    between atoms: C6_18  and  C7_20 
REMARK    6  A    between atoms: C8_22  and  C9_23 
REMARK    7  A    between atoms: C11_27  and  C12_28 
REMARK    8  A    between atoms: C12_28  and  O4_29 
REMARK    9  A    between atoms: C12_28  and  N7_31 
REMARK   10  A    between atoms: N7_31  and  C13_33 
REMARK   11  A    between atoms: C13_33  and  C14_34 
REMARK   12  A    between atoms: C13_33  and  C18_42 
REMARK   13  A    between atoms: C14_34  and  C15_35 
REMARK   14  A    between atoms: C15_35  and  C16_36 
REMARK   15  A    between atoms: C16_36  and  N8_37 
REMARK       I    between atoms: C18_42  and  N11_44 
REMARK   16  A    between atoms: N11_44  and  N12_46 
REMARK   17  A    between atoms: C23_55  and  N15_56 
ROOT
HETATM    1  C7  UNL     1       0.112 -43.002 -23.897  1.00  0.00     0.158 A 
HETATM    2  O2  UNL     1      -0.194 -43.969 -23.014  1.00  0.00    -0.299 OA
HETATM    3  C8  UNL     1      -1.410 -43.855 -22.587  1.00  0.00     0.142 A 
HETATM    4  C10 UNL     1      -1.959 -42.765 -23.202  1.00  0.00     0.061 A 
HETATM    5  C11 UNL     1      -0.969 -42.212 -24.052  1.00  0.00     0.057 A 
ENDROOT
BRANCH   5   6
HETATM    6  C12 UNL     1      -1.167 -41.032 -24.868  1.00  0.00     0.150 C 
BRANCH   6   7
HETATM    7  O4  UNL     1      -1.156 -41.221 -26.167  1.00  0.00    -0.346 OA
ATOM      8  H4  UNL     1      -1.586 -40.555 -26.689  1.00  0.00     0.219 HD
ENDBRANCH   6   7
BRANCH   6   9
HETATM    9  N7  UNL     1      -1.378 -39.710 -24.504  1.00  0.00    -0.357 N 
ATOM     10  H7  UNL     1      -0.706 -39.003 -24.804  1.00  0.00     0.162 HD
BRANCH   9  11
HETATM   11  C13 UNL     1      -2.540 -39.290 -23.696  1.00  0.00     0.177 C 
BRANCH  11  12
HETATM   12  C14 UNL     1      -3.203 -38.106 -24.305  1.00  0.00     0.036 C 
BRANCH  12  13
HETATM   13  C15 UNL     1      -4.587 -38.399 -24.787  1.00  0.00     0.022 C 
BRANCH  13  14
HETATM   14  C16 UNL     1      -5.553 -37.386 -24.208  1.00  0.00     0.122 C 
BRANCH  14  15
HETATM   15  N8  UNL     1      -5.088 -37.034 -22.912  1.00  0.00    -0.367 N 
HETATM   16  C17 UNL     1      -5.605 -36.139 -22.180  1.00  0.00     0.196 C 
HETATM   17  N9  UNL     1      -6.723 -35.389 -22.602  1.00  0.00    -0.067 NA
HETATM   18  N10 UNL     1      -5.045 -35.893 -20.904  1.00  0.00    -0.067 NA
ATOM     19  H8  UNL     1      -4.280 -37.539 -22.545  1.00  0.00     0.161 HD
ENDBRANCH  14  15
ENDBRANCH  13  14
ENDBRANCH  12  13
ENDBRANCH  11  12
BRANCH  11  20
HETATM   20  C18 UNL     1      -2.012 -38.863 -22.345  1.00  0.00     0.259 C 
HETATM   21  O5  UNL     1      -2.054 -37.669 -22.070  1.00  0.00    -0.269 OA
HETATM   22  N11 UNL     1      -1.506 -39.841 -21.488  1.00  0.00    -0.261 N 
ATOM     23  H11 UNL     1      -1.516 -40.804 -21.826  1.00  0.00     0.190 HD
BRANCH  22  24
HETATM   24  N12 UNL     1      -0.981 -39.620 -20.194  1.00  0.00    -0.259 N 
HETATM   25  C19 UNL     1      -1.702 -39.392 -19.079  1.00  0.00     0.119 A 
HETATM   26  C20 UNL     1      -0.848 -39.207 -17.983  1.00  0.00     0.051 A 
HETATM   27  C21 UNL     1       0.415 -39.333 -18.488  1.00  0.00     0.067 A 
HETATM   28  N13 UNL     1       1.600 -39.234 -17.836  1.00  0.00    -0.350 N 
HETATM   29  C24 UNL     1       0.315 -39.584 -19.830  1.00  0.00     0.126 A 
HETATM   30  C22 UNL     1       2.722 -39.392 -18.549  1.00  0.00     0.182 A 
ATOM     31  H13 UNL     1       1.635 -39.045 -16.835  1.00  0.00     0.166 HD
HETATM   32  N14 UNL     1       2.661 -39.635 -19.843  1.00  0.00    -0.337 N 
HETATM   33  C23 UNL     1       1.481 -39.747 -20.564  1.00  0.00     0.131 A 
ATOM     34  H14 UNL     1       3.539 -39.748 -20.349  1.00  0.00     0.168 HD
BRANCH  33  35
HETATM   35  N15 UNL     1       1.545 -39.968 -21.753  1.00  0.00    -0.383 N 
ATOM     36 2H15 UNL     1       2.122 -39.461 -22.424  1.00  0.00     0.157 HD
ATOM     37 1H15 UNL     1       0.984 -40.726 -22.140  1.00  0.00     0.157 HD
ENDBRANCH  33  35
ENDBRANCH  22  24
ENDBRANCH  11  20
ENDBRANCH   9  11
ENDBRANCH   6   9
ENDBRANCH   5   6
BRANCH   1  38
HETATM   38  C6  UNL     1       1.433 -42.970 -24.500  1.00  0.00     0.276 C 
HETATM   39  N5  UNL     1       1.946 -43.723 -25.548  1.00  0.00    -0.350 N 
ATOM     40  H5  UNL     1       1.342 -44.411 -25.998  1.00  0.00     0.163 HD
HETATM   41  O1  UNL     1       2.249 -42.105 -23.985  1.00  0.00    -0.265 OA
BRANCH  39  42
HETATM   42  C5  UNL     1       3.297 -43.575 -26.023  1.00  0.00     0.181 C 
BRANCH  42  43
HETATM   43  C4  UNL     1       3.918 -44.788 -26.556  1.00  0.00     0.043 A 
HETATM   44  N4  UNL     1       4.626 -45.598 -25.755  1.00  0.00    -0.351 N 
HETATM   45  C3  UNL     1       5.187 -46.710 -26.236  1.00  0.00     0.122 A 
ATOM     46  H4  UNL     1       4.737 -45.362 -24.769  1.00  0.00     0.166 HD
HETATM   47  C2  UNL     1       5.920 -47.540 -25.393  1.00  0.00     0.145 A 
HETATM   48  C26 UNL     1       5.075 -47.084 -27.555  1.00  0.00     0.151 A 
HETATM   49  N2  UNL     1       6.489 -48.668 -25.885  1.00  0.00    -0.175 N 
HETATM   50  C1  UNL     1       6.368 -49.015 -27.175  1.00  0.00     0.679 A 
ATOM     51  H2  UNL     1       7.024 -49.269 -25.257  1.00  0.00     0.186 HD
HETATM   52  N17 UNL     1       5.663 -48.225 -28.005  1.00  0.00    -0.174 N 
ATOM     53  H17 UNL     1       5.568 -48.487 -28.986  1.00  0.00     0.186 HD
HETATM   54  N16 UNL     1       4.364 -46.273 -28.372  1.00  0.00    -0.348 N 
HETATM   55  C25 UNL     1       3.795 -45.139 -27.871  1.00  0.00     0.116 A 
ATOM     56  H16 UNL     1       4.254 -46.508 -29.358  1.00  0.00     0.167 HD
BRANCH  47  57
HETATM   57  N3  UNL     1       6.009 -47.168 -24.170  1.00  0.00    -0.383 N 
ATOM     58  H32 UNL     1       6.380 -47.856 -23.515  1.00  0.00     0.157 HD
ATOM     59  H31 UNL     1       5.734 -46.245 -23.834  1.00  0.00     0.157 HD
ENDBRANCH  47  57
BRANCH  50  60
HETATM   60  N1  UNL     1       6.918 -50.094 -27.619  1.00  0.00    -0.234 N 
ATOM     61  H12 UNL     1       7.932 -50.196 -27.602  1.00  0.00     0.174 HD
ATOM     62  H11 UNL     1       6.346 -50.851 -27.992  1.00  0.00     0.174 HD
ENDBRANCH  50  60
ENDBRANCH  42  43
ENDBRANCH  39  42
ENDBRANCH   1  38
BRANCH   3  63
HETATM   63  C9  UNL     1      -2.063 -44.751 -21.612  1.00  0.00     0.288 C 
HETATM   64  N6  UNL     1      -1.970 -44.497 -20.234  1.00  0.00    -0.055 NA
HETATM   65  O3  UNL     1      -2.700 -45.739 -22.022  1.00  0.00    -0.269 OA
ENDBRANCH   3  63
TORSDOF 17
ENDMDL
MODEL 5
REMARK VINA RESULT: -10.506336227      2.082      3.348
REMARK  17 active torsions:
REMARK  status: ('A' for Active; 'I' for Inactive)
REMARK    1  A    between atoms: N1_1  and  C1_4 
REMARK    2  A    between atoms: C2_7  and  N3_8 
REMARK    3  A    between atoms: C4_14  and  C5_15 
REMARK    4  A    between atoms: C5_15  and  N5_16 
REMARK       I    between atoms: N5_16  and  C6_18 
REMARK    5  A    between atoms: C6_18  and  C7_20 
REMARK    6  A    between atoms: C8_22  and  C9_23 
REMARK    7  A    between atoms: C11_27  and  C12_28 
REMARK    8  A    between atoms: C12_28  and  O4_29 
REMARK    9  A    between atoms: C12_28  and  N7_31 
REMARK   10  A    between atoms: N7_31  and  C13_33 
REMARK   11  A    between atoms: C13_33  and  C14_34 
REMARK   12  A    between atoms: C13_33  and  C18_42 
REMARK   13  A    between atoms: C14_34  and  C15_35 
REMARK   14  A    between atoms: C15_35  and  C16_36 
REMARK   15  A    between atoms: C16_36  and  N8_37 
REMARK       I    between atoms: C18_42  and  N11_44 
REMARK   16  A    between atoms: N11_44  and  N12_46 
REMARK   17  A    between atoms: C23_55  and  N15_56 
ROOT
HETATM    1  C7  UNL     1       0.164 -42.985 -23.829  1.00  0.00     0.158 A 
HETATM    2  O2  UNL     1      -0.207 -44.056 -23.107  1.00  0.00    -0.299 OA
HETATM    3  C8  UNL     1      -1.397 -43.911 -22.619  1.00  0.00     0.142 A 
HETATM    4  C10 UNL     1      -1.859 -42.690 -23.024  1.00  0.00     0.061 A 
HETATM    5  C11 UNL     1      -0.844 -42.090 -23.810  1.00  0.00     0.057 A 
ENDROOT
BRANCH   5   6
HETATM    6  C12 UNL     1      -0.953 -40.778 -24.412  1.00  0.00     0.150 C 
BRANCH   6   7
HETATM    7  O4  UNL     1      -1.353 -40.749 -25.661  1.00  0.00    -0.346 OA
ATOM      8  H4  UNL     1      -1.652 -39.907 -25.984  1.00  0.00     0.219 HD
ENDBRANCH   6   7
BRANCH   6   9
HETATM    9  N7  UNL     1      -0.708 -39.520 -23.881  1.00  0.00    -0.357 N 
ATOM     10  H7  UNL     1      -0.379 -38.779 -24.501  1.00  0.00     0.162 HD
BRANCH   9  11
HETATM   11  C13 UNL     1      -0.905 -39.216 -22.450  1.00  0.00     0.177 C 
BRANCH  11  12
HETATM   12  C14 UNL     1      -1.467 -37.850 -22.274  1.00  0.00     0.036 C 
BRANCH  12  13
HETATM   13  C15 UNL     1      -2.859 -37.860 -21.730  1.00  0.00     0.022 C 
BRANCH  13  14
HETATM   14  C16 UNL     1      -2.814 -37.923 -20.217  1.00  0.00     0.122 C 
BRANCH  14  15
HETATM   15  N8  UNL     1      -3.332 -39.186 -19.820  1.00  0.00    -0.367 N 
HETATM   16  C17 UNL     1      -2.784 -39.955 -18.976  1.00  0.00     0.196 C 
HETATM   17  N9  UNL     1      -1.574 -39.615 -18.337  1.00  0.00    -0.067 NA
HETATM   18  N10 UNL     1      -3.411 -41.185 -18.666  1.00  0.00    -0.067 NA
ATOM     19  H8  UNL     1      -4.208 -39.494 -20.245  1.00  0.00     0.161 HD
ENDBRANCH  14  15
ENDBRANCH  13  14
ENDBRANCH  12  13
ENDBRANCH  11  12
BRANCH  11  20
HETATM   20  C18 UNL     1       0.461 -39.226 -21.801  1.00  0.00     0.259 C 
HETATM   21  O5  UNL     1       1.438 -39.333 -22.534  1.00  0.00    -0.269 OA
HETATM   22  N11 UNL     1       0.540 -39.116 -20.412  1.00  0.00    -0.261 N 
ATOM     23  H11 UNL     1      -0.341 -39.039 -19.902  1.00  0.00     0.190 HD
BRANCH  22  24
HETATM   24  N12 UNL     1       1.728 -39.102 -19.646  1.00  0.00    -0.259 N 
HETATM   25  C19 UNL     1       2.801 -39.893 -19.842  1.00  0.00     0.119 A 
HETATM   26  C20 UNL     1       3.788 -39.610 -18.888  1.00  0.00     0.051 A 
HETATM   27  C21 UNL     1       3.262 -38.616 -18.112  1.00  0.00     0.067 A 
HETATM   28  N13 UNL     1       3.819 -37.992 -17.045  1.00  0.00    -0.350 N 
HETATM   29  C24 UNL     1       2.013 -38.321 -18.587  1.00  0.00     0.126 A 
HETATM   30  C22 UNL     1       3.103 -37.040 -16.433  1.00  0.00     0.182 A 
ATOM     31  H13 UNL     1       4.753 -38.240 -16.720  1.00  0.00     0.166 HD
HETATM   32  N14 UNL     1       1.897 -36.731 -16.865  1.00  0.00    -0.337 N 
HETATM   33  C23 UNL     1       1.276 -37.334 -17.949  1.00  0.00     0.131 A 
ATOM     34  H14 UNL     1       1.386 -36.001 -16.369  1.00  0.00     0.168 HD
BRANCH  33  35
HETATM   35  N15 UNL     1       0.161 -36.972 -18.254  1.00  0.00    -0.383 N 
ATOM     36 2H15 UNL     1      -0.654 -37.576 -18.359  1.00  0.00     0.157 HD
ATOM     37 1H15 UNL     1      -0.002 -35.980 -18.422  1.00  0.00     0.157 HD
ENDBRANCH  33  35
ENDBRANCH  22  24
ENDBRANCH  11  20
ENDBRANCH   9  11
ENDBRANCH   6   9
ENDBRANCH   5   6
BRANCH   1  38
HETATM   38  C6  UNL     1       1.468 -42.966 -24.470  1.00  0.00     0.276 C 
HETATM   39  N5  UNL     1       1.942 -43.721 -25.535  1.00  0.00    -0.350 N 
ATOM     40  H5  UNL     1       1.316 -44.398 -25.970  1.00  0.00     0.163 HD
HETATM   41  O1  UNL     1       2.309 -42.113 -23.975  1.00  0.00    -0.265 OA
BRANCH  39  42
HETATM   42  C5  UNL     1       3.280 -43.586 -26.049  1.00  0.00     0.181 C 
BRANCH  42  43
HETATM   43  C4  UNL     1       3.885 -44.813 -26.569  1.00  0.00     0.043 A 
HETATM   44  N4  UNL     1       4.620 -45.601 -25.771  1.00  0.00    -0.351 N 
HETATM   45  C3  UNL     1       5.167 -46.725 -26.241  1.00  0.00     0.122 A 
ATOM     46  H4  UNL     1       4.763 -45.339 -24.796  1.00  0.00     0.166 HD
HETATM   47  C2  UNL     1       5.928 -47.532 -25.401  1.00  0.00     0.145 A 
HETATM   48  C26 UNL     1       5.012 -47.134 -27.545  1.00  0.00     0.151 A 
HETATM   49  N2  UNL     1       6.483 -48.673 -25.882  1.00  0.00    -0.175 N 
HETATM   50  C1  UNL     1       6.319 -49.053 -27.158  1.00  0.00     0.679 A 
ATOM     51  H2  UNL     1       7.039 -49.256 -25.257  1.00  0.00     0.186 HD
HETATM   52  N17 UNL     1       5.586 -48.286 -27.984  1.00  0.00    -0.174 N 
ATOM     53  H17 UNL     1       5.459 -48.573 -28.954  1.00  0.00     0.186 HD
HETATM   54  N16 UNL     1       4.273 -46.345 -28.359  1.00  0.00    -0.348 N 
HETATM   55  C25 UNL     1       3.719 -45.199 -27.869  1.00  0.00     0.116 A 
ATOM     56  H16 UNL     1       4.130 -46.606 -29.335  1.00  0.00     0.167 HD
BRANCH  47  57
HETATM   57  N3  UNL     1       6.057 -47.128 -24.192  1.00  0.00    -0.383 N 
ATOM     58  H32 UNL     1       5.365 -47.470 -23.526  1.00  0.00     0.157 HD
ATOM     59  H31 UNL     1       6.796 -46.499 -23.877  1.00  0.00     0.157 HD
ENDBRANCH  47  57
BRANCH  50  60
HETATM   60  N1  UNL     1       6.855 -50.143 -27.591  1.00  0.00    -0.234 N 
ATOM     61  H12 UNL     1       7.712 -50.497 -27.165  1.00  0.00     0.174 HD
ATOM     62  H11 UNL     1       6.432 -50.659 -28.362  1.00  0.00     0.174 HD
ENDBRANCH  50  60
ENDBRANCH  42  43
ENDBRANCH  39  42
ENDBRANCH   1  38
BRANCH   3  63
HETATM   63  C9  UNL     1      -2.106 -44.898 -21.780  1.00  0.00     0.288 C 
HETATM   64  N6  UNL     1      -2.551 -44.554 -20.494  1.00  0.00    -0.055 NA
HETATM   65  O3  UNL     1      -2.307 -46.045 -22.223  1.00  0.00    -0.269 OA
ENDBRANCH   3  63
TORSDOF 17
ENDMDL
