MODEL 1
REMARK VINA RESULT: -5.784588345      0.000      0.000
REMARK  8 active torsions:
REMARK  status: ('A' for Active; 'I' for Inactive)
REMARK    1  A    between atoms: C2_2  and  C3_3 
REMARK    2  A    between atoms: C3_3  and  C4_4 
REMARK    3  A    between atoms: C4_4  and  C5_5 
REMARK    4  A    between atoms: C5_5  and  N1_6 
REMARK    5  A    between atoms: C5_5  and  C6_10 
REMARK    6  A    between atoms: C5_5  and  C9_13 
REMARK    7  A    between atoms: C6_10  and  C7_11 
REMARK    8  A    between atoms: C9_13  and  N2_14 
ROOT
HETATM    1  C5  UNL     1      -4.639   2.603  13.904  1.00  0.00     0.143 C 
ENDROOT
BRANCH   1   2
HETATM    2  C4  UNL     1      -4.502   1.348  14.688  1.00  0.00     0.044 C 
BRANCH   2   3
HETATM    3  C3  UNL     1      -4.673   1.643  16.159  1.00  0.00     0.029 C 
BRANCH   3   4
HETATM    4  C2  UNL     1      -5.636   0.682  16.788  1.00  0.00    -0.037 C 
HETATM    5  C1  UNL     1      -6.874   1.024  17.082  1.00  0.00     0.007 C 
ENDBRANCH   3   4
ENDBRANCH   2   3
ENDBRANCH   1   2
BRANCH   1   6
HETATM    6  N1  UNL     1      -3.423   3.349  14.007  1.00  0.00    -0.069 N 
ATOM      7  H13 UNL     1      -3.075   3.394  14.966  1.00  0.00     0.275 HD
ATOM      8  H12 UNL     1      -2.630   2.861  13.591  1.00  0.00     0.275 HD
ATOM      9  H11 UNL     1      -3.567   4.274  13.602  1.00  0.00     0.275 HD
ENDBRANCH   1   6
BRANCH   1  10
HETATM   10  C6  UNL     1      -5.850   3.370  14.380  1.00  0.00     0.066 C 
BRANCH  10  11
HETATM   11  C7  UNL     1      -5.665   4.841  14.370  1.00  0.00    -0.034 C 
HETATM   12  C8  UNL     1      -6.428   5.599  13.593  1.00  0.00     0.007 C 
ENDBRANCH  10  11
ENDBRANCH   1  10
BRANCH   1  13
HETATM   13  C9  UNL     1      -4.860   2.352  12.422  1.00  0.00     0.168 C 
BRANCH  13  14
HETATM   14  N2  UNL     1      -3.875   1.464  11.852  1.00  0.00    -0.349 N 
HETATM   15  C10 UNL     1      -2.684   1.810  11.367  1.00  0.00     0.108 A 
HETATM   16  C11 UNL     1      -2.077   0.664  10.925  1.00  0.00     0.106 A 
HETATM   17  N3  UNL     1      -2.932  -0.341  11.160  1.00  0.00    -0.361 N 
HETATM   18  C12 UNL     1      -4.044   0.141  11.731  1.00  0.00     0.182 A 
ATOM     19  H3  UNL     1      -2.762  -1.322  10.939  1.00  0.00     0.166 HD
ENDBRANCH  13  14
ENDBRANCH   1  13
TORSDOF 8
ENDMDL
MODEL 2
REMARK VINA RESULT: -5.527514945      1.338      1.509
REMARK  8 active torsions:
REMARK  status: ('A' for Active; 'I' for Inactive)
REMARK    1  A    between atoms: C2_2  and  C3_3 
REMARK    2  A    between atoms: C3_3  and  C4_4 
REMARK    3  A    between atoms: C4_4  and  C5_5 
REMARK    4  A    between atoms: C5_5  and  N1_6 
REMARK    5  A    between atoms: C5_5  and  C6_10 
REMARK    6  A    between atoms: C5_5  and  C9_13 
REMARK    7  A    between atoms: C6_10  and  C7_11 
REMARK    8  A    between atoms: C9_13  and  N2_14 
ROOT
HETATM    1  C5  UNL     1      -4.434   2.570  14.780  1.00  0.00     0.143 C 
ENDROOT
BRANCH   1   2
HETATM    2  C4  UNL     1      -4.433   2.018  16.160  1.00  0.00     0.044 C 
BRANCH   2   3
HETATM    3  C3  UNL     1      -5.066   0.646  16.162  1.00  0.00     0.029 C 
BRANCH   3   4
HETATM    4  C2  UNL     1      -6.147   0.559  17.197  1.00  0.00    -0.037 C 
HETATM    5  C1  UNL     1      -7.336   1.094  17.012  1.00  0.00     0.007 C 
ENDBRANCH   3   4
ENDBRANCH   2   3
ENDBRANCH   1   2
BRANCH   1   6
HETATM    6  N1  UNL     1      -3.328   3.467  14.639  1.00  0.00    -0.069 N 
ATOM      7  H13 UNL     1      -3.244   3.835  13.691  1.00  0.00     0.275 HD
ATOM      8  H12 UNL     1      -3.481   4.352  15.122  1.00  0.00     0.275 HD
ATOM      9  H11 UNL     1      -2.478   2.995  14.950  1.00  0.00     0.275 HD
ENDBRANCH   1   6
BRANCH   1  10
HETATM   10  C6  UNL     1      -5.767   3.222  14.495  1.00  0.00     0.066 C 
BRANCH  10  11
HETATM   11  C7  UNL     1      -5.746   4.699  14.614  1.00  0.00    -0.034 C 
HETATM   12  C8  UNL     1      -6.318   5.448  13.680  1.00  0.00     0.007 C 
ENDBRANCH  10  11
ENDBRANCH   1  10
BRANCH   1  13
HETATM   13  C9  UNL     1      -4.256   1.502  13.717  1.00  0.00     0.168 C 
BRANCH  13  14
HETATM   14  N2  UNL     1      -4.134   2.050  12.387  1.00  0.00    -0.349 N 
HETATM   15  C10 UNL     1      -3.196   2.896  11.962  1.00  0.00     0.108 A 
HETATM   16  C11 UNL     1      -3.454   3.161  10.644  1.00  0.00     0.106 A 
HETATM   17  N3  UNL     1      -4.550   2.461  10.317  1.00  0.00    -0.361 N 
HETATM   18  C12 UNL     1      -4.977   1.773  11.385  1.00  0.00     0.182 A 
ATOM     19  H3  UNL     1      -4.991   2.453   9.397  1.00  0.00     0.166 HD
ENDBRANCH  13  14
ENDBRANCH   1  13
TORSDOF 8
ENDMDL
MODEL 3
REMARK VINA RESULT: -5.467782844      0.913      1.133
REMARK  8 active torsions:
REMARK  status: ('A' for Active; 'I' for Inactive)
REMARK    1  A    between atoms: C2_2  and  C3_3 
REMARK    2  A    between atoms: C3_3  and  C4_4 
REMARK    3  A    between atoms: C4_4  and  C5_5 
REMARK    4  A    between atoms: C5_5  and  N1_6 
REMARK    5  A    between atoms: C5_5  and  C6_10 
REMARK    6  A    between atoms: C5_5  and  C9_13 
REMARK    7  A    between atoms: C6_10  and  C7_11 
REMARK    8  A    between atoms: C9_13  and  N2_14 
ROOT
HETATM    1  C5  UNL     1      -4.785   3.297  14.445  1.00  0.00     0.143 C 
ENDROOT
BRANCH   1   2
HETATM    2  C4  UNL     1      -5.075   2.255  15.464  1.00  0.00     0.044 C 
BRANCH   2   3
HETATM    3  C3  UNL     1      -6.427   2.509  16.086  1.00  0.00     0.029 C 
BRANCH   3   4
HETATM    4  C2  UNL     1      -6.844   1.356  16.949  1.00  0.00    -0.037 C 
HETATM    5  C1  UNL     1      -5.994   0.423  17.325  1.00  0.00     0.007 C 
ENDBRANCH   3   4
ENDBRANCH   2   3
ENDBRANCH   1   2
BRANCH   1   6
HETATM    6  N1  UNL     1      -3.375   3.540  14.419  1.00  0.00    -0.069 N 
ATOM      7  H13 UNL     1      -2.888   2.933  13.759  1.00  0.00     0.275 HD
ATOM      8  H12 UNL     1      -3.143   4.434  13.986  1.00  0.00     0.275 HD
ATOM      9  H11 UNL     1      -3.007   3.459  15.367  1.00  0.00     0.275 HD
ENDBRANCH   1   6
BRANCH   1  10
HETATM   10  C6  UNL     1      -5.596   4.537  14.742  1.00  0.00     0.066 C 
BRANCH  10  11
HETATM   11  C7  UNL     1      -5.729   5.452  13.584  1.00  0.00    -0.034 C 
HETATM   12  C8  UNL     1      -6.917   5.949  13.264  1.00  0.00     0.007 C 
ENDBRANCH  10  11
ENDBRANCH   1  10
BRANCH   1  13
HETATM   13  C9  UNL     1      -5.171   2.872  13.040  1.00  0.00     0.168 C 
BRANCH  13  14
HETATM   14  N2  UNL     1      -4.092   2.220  12.336  1.00  0.00    -0.349 N 
HETATM   15  C10 UNL     1      -3.160   2.813  11.591  1.00  0.00     0.108 A 
HETATM   16  C11 UNL     1      -2.338   1.829  11.109  1.00  0.00     0.106 A 
HETATM   17  N3  UNL     1      -2.809   0.667  11.583  1.00  0.00    -0.361 N 
HETATM   18  C12 UNL     1      -3.890   0.896  12.340  1.00  0.00     0.182 A 
ATOM     19  H3  UNL     1      -2.405  -0.251  11.396  1.00  0.00     0.166 HD
ENDBRANCH  13  14
ENDBRANCH   1  13
TORSDOF 8
ENDMDL
MODEL 4
REMARK VINA RESULT: -5.345828254      1.255      1.476
REMARK  8 active torsions:
REMARK  status: ('A' for Active; 'I' for Inactive)
REMARK    1  A    between atoms: C2_2  and  C3_3 
REMARK    2  A    between atoms: C3_3  and  C4_4 
REMARK    3  A    between atoms: C4_4  and  C5_5 
REMARK    4  A    between atoms: C5_5  and  N1_6 
REMARK    5  A    between atoms: C5_5  and  C6_10 
REMARK    6  A    between atoms: C5_5  and  C9_13 
REMARK    7  A    between atoms: C6_10  and  C7_11 
REMARK    8  A    between atoms: C9_13  and  N2_14 
ROOT
HETATM    1  C5  UNL     1      -4.876   3.489  14.517  1.00  0.00     0.143 C 
ENDROOT
BRANCH   1   2
HETATM    2  C4  UNL     1      -5.728   2.840  15.548  1.00  0.00     0.044 C 
BRANCH   2   3
HETATM    3  C3  UNL     1      -4.959   1.727  16.219  1.00  0.00     0.029 C 
BRANCH   3   4
HETATM    4  C2  UNL     1      -5.865   0.895  17.077  1.00  0.00    -0.037 C 
HETATM    5  C1  UNL     1      -7.175   1.026  17.043  1.00  0.00     0.007 C 
ENDBRANCH   3   4
ENDBRANCH   2   3
ENDBRANCH   1   2
BRANCH   1   6
HETATM    6  N1  UNL     1      -3.517   3.090  14.720  1.00  0.00    -0.069 N 
ATOM      7  H13 UNL     1      -3.378   2.624  15.617  1.00  0.00     0.275 HD
ATOM      8  H12 UNL     1      -3.245   2.316  14.114  1.00  0.00     0.275 HD
ATOM      9  H11 UNL     1      -2.913   3.904  14.606  1.00  0.00     0.275 HD
ENDBRANCH   1   6
BRANCH   1  10
HETATM   10  C6  UNL     1      -5.070   4.987  14.568  1.00  0.00     0.066 C 
BRANCH  10  11
HETATM   11  C7  UNL     1      -3.811   5.755  14.420  1.00  0.00    -0.034 C 
HETATM   12  C8  UNL     1      -3.580   6.441  13.307  1.00  0.00     0.007 C 
ENDBRANCH  10  11
ENDBRANCH   1  10
BRANCH   1  13
HETATM   13  C9  UNL     1      -5.238   3.069  13.103  1.00  0.00     0.168 C 
BRANCH  13  14
HETATM   14  N2  UNL     1      -4.142   2.433  12.411  1.00  0.00    -0.349 N 
HETATM   15  C10 UNL     1      -3.185   3.043  11.713  1.00  0.00     0.108 A 
HETATM   16  C11 UNL     1      -2.355   2.070  11.224  1.00  0.00     0.106 A 
HETATM   17  N3  UNL     1      -2.846   0.896  11.647  1.00  0.00    -0.361 N 
HETATM   18  C12 UNL     1      -3.948   1.109  12.379  1.00  0.00     0.182 A 
ATOM     19  H3  UNL     1      -2.443  -0.018  11.443  1.00  0.00     0.166 HD
ENDBRANCH  13  14
ENDBRANCH   1  13
TORSDOF 8
ENDMDL
MODEL 5
REMARK VINA RESULT: -5.268610558      1.167      1.490
REMARK  8 active torsions:
REMARK  status: ('A' for Active; 'I' for Inactive)
REMARK    1  A    between atoms: C2_2  and  C3_3 
REMARK    2  A    between atoms: C3_3  and  C4_4 
REMARK    3  A    between atoms: C4_4  and  C5_5 
REMARK    4  A    between atoms: C5_5  and  N1_6 
REMARK    5  A    between atoms: C5_5  and  C6_10 
REMARK    6  A    between atoms: C5_5  and  C9_13 
REMARK    7  A    between atoms: C6_10  and  C7_11 
REMARK    8  A    between atoms: C9_13  and  N2_14 
ROOT
HETATM    1  C5  UNL     1      -4.525   2.751  13.912  1.00  0.00     0.143 C 
ENDROOT
BRANCH   1   2
HETATM    2  C4  UNL     1      -5.728   3.146  14.690  1.00  0.00     0.044 C 
BRANCH   2   3
HETATM    3  C3  UNL     1      -5.624   2.611  16.099  1.00  0.00     0.029 C 
BRANCH   3   4
HETATM    4  C2  UNL     1      -6.955   2.119  16.583  1.00  0.00    -0.037 C 
HETATM    5  C1  UNL     1      -7.118   0.904  17.064  1.00  0.00     0.007 C 
ENDBRANCH   3   4
ENDBRANCH   2   3
ENDBRANCH   1   2
BRANCH   1   6
HETATM    6  N1  UNL     1      -4.019   1.518  14.434  1.00  0.00    -0.069 N 
ATOM      7  H13 UNL     1      -3.041   1.364  14.186  1.00  0.00     0.275 HD
ATOM      8  H12 UNL     1      -3.906   1.542  15.447  1.00  0.00     0.275 HD
ATOM      9  H11 UNL     1      -4.624   0.757  14.127  1.00  0.00     0.275 HD
ENDBRANCH   1   6
BRANCH   1  10
HETATM   10  C6  UNL     1      -3.511   3.871  13.943  1.00  0.00     0.066 C 
BRANCH  10  11
HETATM   11  C7  UNL     1      -4.115   5.224  13.891  1.00  0.00    -0.034 C 
HETATM   12  C8  UNL     1      -3.411   6.279  14.280  1.00  0.00     0.007 C 
ENDBRANCH  10  11
ENDBRANCH   1  10
BRANCH   1  13
HETATM   13  C9  UNL     1      -4.827   2.502  12.445  1.00  0.00     0.168 C 
BRANCH  13  14
HETATM   14  N2  UNL     1      -3.882   1.605  11.824  1.00  0.00    -0.349 N 
HETATM   15  C10 UNL     1      -2.689   1.931  11.328  1.00  0.00     0.108 A 
HETATM   16  C11 UNL     1      -2.127   0.784  10.834  1.00  0.00     0.106 A 
HETATM   17  N3  UNL     1      -3.009  -0.202  11.050  1.00  0.00    -0.361 N 
HETATM   18  C12 UNL     1      -4.094   0.293  11.659  1.00  0.00     0.182 A 
ATOM     19  H3  UNL     1      -2.874  -1.179  10.790  1.00  0.00     0.166 HD
ENDBRANCH  13  14
ENDBRANCH   1  13
TORSDOF 8
ENDMDL
