MODEL 1
REMARK VINA RESULT: -6.288159886      0.000      0.000
REMARK  7 active torsions:
REMARK  status: ('A' for Active; 'I' for Inactive)
REMARK    1  A    between atoms: O1_2  and  C2_3 
REMARK    2  A    between atoms: C2_3  and  C3_4 
REMARK    3  A    between atoms: C2_3  and  O2_16 
REMARK    4  A    between atoms: C3_4  and  N1_5 
REMARK    5  A    between atoms: N1_5  and  C4_8 
REMARK    6  A    between atoms: C4_8  and  C5_9 
REMARK    7  A    between atoms: C5_9  and  C6_10 
ROOT
HETATM    1  N1  UNL     1      -4.038   1.317  13.075  1.00  0.00    -0.070 N 
ATOM      2  H11 UNL     1      -3.096   1.024  13.332  1.00  0.00     0.277 HD
ATOM      3  H12 UNL     1      -4.576   0.696  13.680  1.00  0.00     0.277 HD
ENDROOT
BRANCH   1   4
HETATM    4  C3  UNL     1      -4.302   1.041  11.688  1.00  0.00     0.292 C 
BRANCH   4   5
HETATM    5  C2  UNL     1      -3.250   0.050  11.217  1.00  0.00     0.283 C 
BRANCH   5   6
HETATM    6  O1  UNL     1      -3.764  -1.179  10.905  1.00  0.00    -0.364 OA
HETATM    7  C1  UNL     1      -2.956  -2.246  11.255  1.00  0.00     0.204 C 
ENDBRANCH   5   6
BRANCH   5   8
HETATM    8  O2  UNL     1      -2.601   0.550  10.089  1.00  0.00    -0.364 OA
HETATM    9  C12 UNL     1      -1.437   1.241  10.425  1.00  0.00     0.204 C 
ENDBRANCH   5   8
ENDBRANCH   4   5
ENDBRANCH   1   4
BRANCH   1  10
HETATM   10  C4  UNL     1      -4.263   2.705  13.423  1.00  0.00     0.237 C 
BRANCH  10  11
HETATM   11  C5  UNL     1      -3.991   2.880  14.902  1.00  0.00     0.066 C 
BRANCH  11  12
HETATM   12  C6  UNL     1      -5.021   2.211  15.723  1.00  0.00    -0.057 A 
HETATM   13  C7  UNL     1      -4.798   1.020  16.386  1.00  0.00     0.007 A 
HETATM   14  C8  UNL     1      -5.795   0.437  17.140  1.00  0.00     0.001 A 
HETATM   15  C9  UNL     1      -7.017   1.048  17.230  1.00  0.00     0.000 A 
HETATM   16  C10 UNL     1      -7.290   2.237  16.587  1.00  0.00     0.001 A 
HETATM   17  C11 UNL     1      -6.263   2.796  15.836  1.00  0.00     0.007 A 
ENDBRANCH  11  12
ENDBRANCH  10  11
ENDBRANCH   1  10
TORSDOF 7
ENDMDL
MODEL 2
REMARK VINA RESULT: -6.255910214      0.035      1.233
REMARK  7 active torsions:
REMARK  status: ('A' for Active; 'I' for Inactive)
REMARK    1  A    between atoms: O1_2  and  C2_3 
REMARK    2  A    between atoms: C2_3  and  C3_4 
REMARK    3  A    between atoms: C2_3  and  O2_16 
REMARK    4  A    between atoms: C3_4  and  N1_5 
REMARK    5  A    between atoms: N1_5  and  C4_8 
REMARK    6  A    between atoms: C4_8  and  C5_9 
REMARK    7  A    between atoms: C5_9  and  C6_10 
ROOT
HETATM    1  N1  UNL     1      -4.056   1.294  13.068  1.00  0.00    -0.070 N 
ATOM      2  H11 UNL     1      -3.135   0.954  13.346  1.00  0.00     0.277 HD
ATOM      3  H12 UNL     1      -4.637   0.695  13.655  1.00  0.00     0.277 HD
ENDROOT
BRANCH   1   4
HETATM    4  C3  UNL     1      -4.298   1.040  11.673  1.00  0.00     0.292 C 
BRANCH   4   5
HETATM    5  C2  UNL     1      -3.250   0.043  11.208  1.00  0.00     0.283 C 
BRANCH   5   6
HETATM    6  O1  UNL     1      -3.769  -1.185  10.897  1.00  0.00    -0.364 OA
HETATM    7  C1  UNL     1      -2.970  -2.255  11.260  1.00  0.00     0.204 C 
ENDBRANCH   5   6
BRANCH   5   8
HETATM    8  O2  UNL     1      -2.596   0.536  10.079  1.00  0.00    -0.364 OA
HETATM    9  C12 UNL     1      -1.462   1.272  10.419  1.00  0.00     0.204 C 
ENDBRANCH   5   8
ENDBRANCH   4   5
ENDBRANCH   1   4
BRANCH   1  10
HETATM   10  C4  UNL     1      -4.223   2.688  13.422  1.00  0.00     0.237 C 
BRANCH  10  11
HETATM   11  C5  UNL     1      -3.974   2.841  14.907  1.00  0.00     0.066 C 
BRANCH  11  12
HETATM   12  C6  UNL     1      -5.063   2.238  15.702  1.00  0.00    -0.057 A 
HETATM   13  C7  UNL     1      -6.314   2.812  15.821  1.00  0.00     0.007 A 
HETATM   14  C8  UNL     1      -7.296   2.207  16.577  1.00  0.00     0.001 A 
HETATM   15  C9  UNL     1      -7.025   1.027  17.216  1.00  0.00     0.000 A 
HETATM   16  C10 UNL     1      -5.792   0.415  17.130  1.00  0.00     0.001 A 
HETATM   17  C11 UNL     1      -4.826   1.051  16.360  1.00  0.00     0.007 A 
ENDBRANCH  11  12
ENDBRANCH  10  11
ENDBRANCH   1  10
TORSDOF 7
ENDMDL
MODEL 3
REMARK VINA RESULT: -6.239454842      0.677      1.660
REMARK  7 active torsions:
REMARK  status: ('A' for Active; 'I' for Inactive)
REMARK    1  A    between atoms: O1_2  and  C2_3 
REMARK    2  A    between atoms: C2_3  and  C3_4 
REMARK    3  A    between atoms: C2_3  and  O2_16 
REMARK    4  A    between atoms: C3_4  and  N1_5 
REMARK    5  A    between atoms: N1_5  and  C4_8 
REMARK    6  A    between atoms: C4_8  and  C5_9 
REMARK    7  A    between atoms: C5_9  and  C6_10 
ROOT
HETATM    1  N1  UNL     1      -3.887   1.500  13.100  1.00  0.00    -0.070 N 
ATOM      2  H11 UNL     1      -2.875   1.380  13.126  1.00  0.00     0.277 HD
ATOM      3  H12 UNL     1      -4.154   0.813  13.805  1.00  0.00     0.277 HD
ENDROOT
BRANCH   1   4
HETATM    4  C3  UNL     1      -4.414   1.145  11.809  1.00  0.00     0.292 C 
BRANCH   4   5
HETATM    5  C2  UNL     1      -3.243   1.093  10.842  1.00  0.00     0.283 C 
BRANCH   5   6
HETATM    6  O1  UNL     1      -2.024   1.115  11.465  1.00  0.00    -0.364 OA
HETATM    7  C1  UNL     1      -1.075   1.907  10.844  1.00  0.00     0.204 C 
ENDBRANCH   5   6
BRANCH   5   8
HETATM    8  O2  UNL     1      -3.316  -0.066  10.071  1.00  0.00    -0.364 OA
HETATM    9  C12 UNL     1      -3.247  -1.215  10.857  1.00  0.00     0.204 C 
ENDBRANCH   5   8
ENDBRANCH   4   5
ENDBRANCH   1   4
BRANCH   1  10
HETATM   10  C4  UNL     1      -4.262   2.838  13.510  1.00  0.00     0.237 C 
BRANCH  10  11
HETATM   11  C5  UNL     1      -4.014   2.972  14.997  1.00  0.00     0.066 C 
BRANCH  11  12
HETATM   12  C6  UNL     1      -5.041   2.257  15.782  1.00  0.00    -0.057 A 
HETATM   13  C7  UNL     1      -4.799   1.056  16.421  1.00  0.00     0.007 A 
HETATM   14  C8  UNL     1      -5.794   0.429  17.141  1.00  0.00     0.001 A 
HETATM   15  C9  UNL     1      -7.033   1.006  17.223  1.00  0.00     0.000 A 
HETATM   16  C10 UNL     1      -7.325   2.203  16.603  1.00  0.00     0.001 A 
HETATM   17  C11 UNL     1      -6.300   2.807  15.886  1.00  0.00     0.007 A 
ENDBRANCH  11  12
ENDBRANCH  10  11
ENDBRANCH   1  10
TORSDOF 7
ENDMDL
MODEL 4
REMARK VINA RESULT: -6.174299938      0.403      2.066
REMARK  7 active torsions:
REMARK  status: ('A' for Active; 'I' for Inactive)
REMARK    1  A    between atoms: O1_2  and  C2_3 
REMARK    2  A    between atoms: C2_3  and  C3_4 
REMARK    3  A    between atoms: C2_3  and  O2_16 
REMARK    4  A    between atoms: C3_4  and  N1_5 
REMARK    5  A    between atoms: N1_5  and  C4_8 
REMARK    6  A    between atoms: C4_8  and  C5_9 
REMARK    7  A    between atoms: C5_9  and  C6_10 
ROOT
HETATM    1  N1  UNL     1      -4.032   1.309  12.832  1.00  0.00    -0.070 N 
ATOM      2  H11 UNL     1      -3.049   1.107  13.015  1.00  0.00     0.277 HD
ATOM      3  H12 UNL     1      -4.460   0.599  13.426  1.00  0.00     0.277 HD
ENDROOT
BRANCH   1   4
HETATM    4  C3  UNL     1      -4.355   1.085  11.448  1.00  0.00     0.292 C 
BRANCH   4   5
HETATM    5  C2  UNL     1      -3.462  -0.041  10.954  1.00  0.00     0.283 C 
BRANCH   5   6
HETATM    6  O1  UNL     1      -2.133   0.172  11.199  1.00  0.00    -0.364 OA
HETATM    7  C1  UNL     1      -1.541   1.115  10.378  1.00  0.00     0.204 C 
ENDBRANCH   5   6
BRANCH   5   8
HETATM    8  O2  UNL     1      -3.830  -1.240  11.564  1.00  0.00    -0.364 OA
HETATM    9  C12 UNL     1      -2.964  -2.279  11.227  1.00  0.00     0.204 C 
ENDBRANCH   5   8
ENDBRANCH   4   5
ENDBRANCH   1   4
BRANCH   1  10
HETATM   10  C4  UNL     1      -4.381   2.642  13.281  1.00  0.00     0.237 C 
BRANCH  10  11
HETATM   11  C5  UNL     1      -4.012   2.768  14.743  1.00  0.00     0.066 C 
BRANCH  11  12
HETATM   12  C6  UNL     1      -5.065   2.210  15.616  1.00  0.00    -0.057 A 
HETATM   13  C7  UNL     1      -6.279   2.837  15.825  1.00  0.00     0.007 A 
HETATM   14  C8  UNL     1      -7.229   2.273  16.651  1.00  0.00     0.001 A 
HETATM   15  C9  UNL     1      -6.963   1.080  17.269  1.00  0.00     0.000 A 
HETATM   16  C10 UNL     1      -5.767   0.416  17.094  1.00  0.00     0.001 A 
HETATM   17  C11 UNL     1      -4.833   1.012  16.255  1.00  0.00     0.007 A 
ENDBRANCH  11  12
ENDBRANCH  10  11
ENDBRANCH   1  10
TORSDOF 7
ENDMDL
MODEL 5
REMARK VINA RESULT: -6.040303793      1.769      2.487
REMARK  7 active torsions:
REMARK  status: ('A' for Active; 'I' for Inactive)
REMARK    1  A    between atoms: O1_2  and  C2_3 
REMARK    2  A    between atoms: C2_3  and  C3_4 
REMARK    3  A    between atoms: C2_3  and  O2_16 
REMARK    4  A    between atoms: C3_4  and  N1_5 
REMARK    5  A    between atoms: N1_5  and  C4_8 
REMARK    6  A    between atoms: C4_8  and  C5_9 
REMARK    7  A    between atoms: C5_9  and  C6_10 
ROOT
HETATM    1  N1  UNL     1      -2.780   3.692  13.277  1.00  0.00    -0.070 N 
ATOM      2  H11 UNL     1      -2.062   4.388  13.074  1.00  0.00     0.277 HD
ATOM      3  H12 UNL     1      -2.188   2.864  13.361  1.00  0.00     0.277 HD
ENDROOT
BRANCH   1   4
HETATM    4  C3  UNL     1      -3.695   3.560  12.175  1.00  0.00     0.292 C 
BRANCH   4   5
HETATM    5  C2  UNL     1      -3.031   2.665  11.142  1.00  0.00     0.283 C 
BRANCH   5   6
HETATM    6  O1  UNL     1      -2.167   1.755  11.688  1.00  0.00    -0.364 OA
HETATM    7  C1  UNL     1      -1.418   1.047  10.764  1.00  0.00     0.204 C 
ENDBRANCH   5   6
BRANCH   5   8
HETATM    8  O2  UNL     1      -4.002   1.966  10.426  1.00  0.00    -0.364 OA
HETATM    9  C12 UNL     1      -5.009   1.481  11.259  1.00  0.00     0.204 C 
ENDBRANCH   5   8
ENDBRANCH   4   5
ENDBRANCH   1   4
BRANCH   1  10
HETATM   10  C4  UNL     1      -3.447   3.983  14.529  1.00  0.00     0.237 C 
BRANCH  10  11
HETATM   11  C5  UNL     1      -4.925   3.706  14.362  1.00  0.00     0.066 C 
BRANCH  11  12
HETATM   12  C6  UNL     1      -5.395   2.683  15.319  1.00  0.00    -0.057 A 
HETATM   13  C7  UNL     1      -6.526   2.844  16.097  1.00  0.00     0.007 A 
HETATM   14  C8  UNL     1      -6.921   1.858  16.976  1.00  0.00     0.001 A 
HETATM   15  C9  UNL     1      -6.184   0.708  17.076  1.00  0.00     0.000 A 
HETATM   16  C10 UNL     1      -5.048   0.500  16.322  1.00  0.00     0.001 A 
HETATM   17  C11 UNL     1      -4.679   1.514  15.447  1.00  0.00     0.007 A 
ENDBRANCH  11  12
ENDBRANCH  10  11
ENDBRANCH   1  10
TORSDOF 7
ENDMDL
