MODEL 1
REMARK VINA RESULT: -6.646290900      0.000      0.000
REMARK  14 active torsions:
REMARK  status: ('A' for Active; 'I' for Inactive)
REMARK    1  A    between atoms: C2_2  and  C3_3 
REMARK    2  A    between atoms: C3_3  and  N1_4 
REMARK    3  A    between atoms: N1_4  and  C5_6 
REMARK    4  A    between atoms: C5_6  and  C6_7 
REMARK    5  A    between atoms: C6_7  and  O1_8 
REMARK    6  A    between atoms: O1_8  and  N2_9 
REMARK    7  A    between atoms: N2_9  and  C7_10 
REMARK    8  A    between atoms: C7_10  and  C8_11 
REMARK    9  A    between atoms: C7_10  and  C15_22 
REMARK   10  A    between atoms: C8_11  and  C9_12 
REMARK   11  A    between atoms: C9_12  and  O2_13 
REMARK   12  A    between atoms: C9_12  and  C10_15 
REMARK   13  A    between atoms: C10_15  and  C11_16 
REMARK   14  A    between atoms: C11_16  and  C12_18 
ROOT
HETATM    1  C15 UNL     1      -5.097   2.908  15.263  1.00  0.00     0.110 C 
HETATM    2  C16 UNL     1      -6.467   2.634  15.999  1.00  0.00     0.027 C 
HETATM    3  C17 UNL     1      -4.319   1.717  15.770  1.00  0.00     0.065 C 
HETATM    4  N3  UNL     1      -3.746   0.769  16.188  1.00  0.00    -0.197 NA
ENDROOT
BRANCH   1   5
HETATM    5  C7  UNL     1      -5.337   2.872  13.819  1.00  0.00     0.126 C 
BRANCH   5   6
HETATM    6  N2  UNL     1      -6.192   4.109  13.493  1.00  0.00    -0.095 NA
BRANCH   6   7
HETATM    7  O1  UNL     1      -5.370   4.913  12.827  1.00  0.00    -0.284 OA
BRANCH   7   8
HETATM    8  C6  UNL     1      -5.822   6.207  12.716  1.00  0.00     0.226 C 
BRANCH   8   9
HETATM    9  C5  UNL     1      -5.249   6.885  11.461  1.00  0.00     0.300 C 
BRANCH   9  10
HETATM   10  N1  UNL     1      -6.312   7.684  10.928  1.00  0.00     0.089 N 
HETATM   11  C4  UNL     1      -7.424   7.844  11.802  1.00  0.00     0.310 C 
BRANCH  10  12
HETATM   12  C3  UNL     1      -6.662   7.394   9.568  1.00  0.00     0.298 C 
BRANCH  12  13
HETATM   13  C2  UNL     1      -7.968   7.922   9.163  1.00  0.00    -0.007 C 
HETATM   14  C1  UNL     1      -8.166   8.295   7.901  1.00  0.00     0.008 C 
ENDBRANCH  12  13
ENDBRANCH  10  12
ENDBRANCH   9  10
ENDBRANCH   8   9
ENDBRANCH   7   8
ENDBRANCH   6   7
ENDBRANCH   5   6
BRANCH   5  15
HETATM   15  C8  UNL     1      -4.213   2.970  12.863  1.00  0.00     0.057 C 
BRANCH  15  16
HETATM   16  C9  UNL     1      -4.272   2.218  11.604  1.00  0.00     0.126 C 
BRANCH  16  17
HETATM   17  O2  UNL     1      -5.209   2.679  10.677  1.00  0.00    -0.395 OA
ATOM     18  H2  UNL     1      -5.469   2.049  10.015  1.00  0.00     0.210 HD
ENDBRANCH  16  17
BRANCH  16  19
HETATM   19  C10 UNL     1      -4.466   0.737  11.738  1.00  0.00     0.110 C 
BRANCH  19  20
HETATM   20  C11 UNL     1      -4.316  -0.023  10.482  1.00  0.00     0.137 C 
HETATM   21  O3  UNL     1      -5.060   0.067   9.531  1.00  0.00    -0.297 OA
BRANCH  20  22
HETATM   22  C12 UNL     1      -3.170  -0.985  10.342  1.00  0.00     0.103 C 
HETATM   23  C13 UNL     1      -1.937  -0.563  11.105  1.00  0.00     0.181 C 
HETATM   24  O4  UNL     1      -1.744  -1.923  11.407  1.00  0.00    -0.389 OA
HETATM   25  C14 UNL     1      -3.144  -2.050  11.414  1.00  0.00     0.181 C 
ENDBRANCH  20  22
ENDBRANCH  19  20
ENDBRANCH  16  19
ENDBRANCH  15  16
ENDBRANCH   5  15
ENDBRANCH   1   5
TORSDOF 14
ENDMDL
MODEL 2
REMARK VINA RESULT: -6.535299738      2.580      3.474
REMARK  14 active torsions:
REMARK  status: ('A' for Active; 'I' for Inactive)
REMARK    1  A    between atoms: C2_2  and  C3_3 
REMARK    2  A    between atoms: C3_3  and  N1_4 
REMARK    3  A    between atoms: N1_4  and  C5_6 
REMARK    4  A    between atoms: C5_6  and  C6_7 
REMARK    5  A    between atoms: C6_7  and  O1_8 
REMARK    6  A    between atoms: O1_8  and  N2_9 
REMARK    7  A    between atoms: N2_9  and  C7_10 
REMARK    8  A    between atoms: C7_10  and  C8_11 
REMARK    9  A    between atoms: C7_10  and  C15_22 
REMARK   10  A    between atoms: C8_11  and  C9_12 
REMARK   11  A    between atoms: C9_12  and  O2_13 
REMARK   12  A    between atoms: C9_12  and  C10_15 
REMARK   13  A    between atoms: C10_15  and  C11_16 
REMARK   14  A    between atoms: C11_16  and  C12_18 
ROOT
HETATM    1  C15 UNL     1      -5.732   2.377  16.439  1.00  0.00     0.110 C 
HETATM    2  C16 UNL     1      -7.229   2.725  16.800  1.00  0.00     0.027 C 
HETATM    3  C17 UNL     1      -5.721   0.928  16.867  1.00  0.00     0.065 C 
HETATM    4  N3  UNL     1      -5.756  -0.204  17.212  1.00  0.00    -0.197 NA
ENDROOT
BRANCH   1   5
HETATM    5  C7  UNL     1      -5.554   2.557  14.997  1.00  0.00     0.126 C 
BRANCH   5   6
HETATM    6  N2  UNL     1      -5.192   4.037  14.789  1.00  0.00    -0.095 NA
BRANCH   6   7
HETATM    7  O1  UNL     1      -6.172   4.514  14.031  1.00  0.00    -0.284 OA
BRANCH   7   8
HETATM    8  C6  UNL     1      -5.854   5.680  13.373  1.00  0.00     0.226 C 
BRANCH   8   9
HETATM    9  C5  UNL     1      -4.432   5.614  12.792  1.00  0.00     0.300 C 
BRANCH   9  10
HETATM   10  N1  UNL     1      -3.810   6.857  13.137  1.00  0.00     0.089 N 
HETATM   11  C4  UNL     1      -3.365   7.623  12.023  1.00  0.00     0.310 C 
BRANCH  10  12
HETATM   12  C3  UNL     1      -2.873   6.783  14.220  1.00  0.00     0.298 C 
BRANCH  12  13
HETATM   13  C2  UNL     1      -1.967   7.932  14.303  1.00  0.00    -0.007 C 
HETATM   14  C1  UNL     1      -1.928   8.662  15.415  1.00  0.00     0.008 C 
ENDBRANCH  12  13
ENDBRANCH  10  12
ENDBRANCH   9  10
ENDBRANCH   8   9
ENDBRANCH   7   8
ENDBRANCH   6   7
ENDBRANCH   5   6
BRANCH   5  15
HETATM   15  C8  UNL     1      -4.484   1.837  14.272  1.00  0.00     0.057 C 
BRANCH  15  16
HETATM   16  C9  UNL     1      -4.504   1.808  12.805  1.00  0.00     0.126 C 
BRANCH  16  17
HETATM   17  O2  UNL     1      -5.679   2.279  12.215  1.00  0.00    -0.395 OA
ATOM     18  H2  UNL     1      -6.482   1.888  12.542  1.00  0.00     0.210 HD
ENDBRANCH  16  17
BRANCH  16  19
HETATM   19  C10 UNL     1      -4.185   0.485  12.175  1.00  0.00     0.110 C 
BRANCH  19  20
HETATM   20  C11 UNL     1      -4.058   0.514  10.704  1.00  0.00     0.137 C 
HETATM   21  O3  UNL     1      -4.982   0.392   9.932  1.00  0.00    -0.297 OA
BRANCH  20  22
HETATM   22  C12 UNL     1      -2.699   0.707  10.093  1.00  0.00     0.103 C 
HETATM   23  C13 UNL     1      -2.176   2.117  10.227  1.00  0.00     0.181 C 
HETATM   24  O4  UNL     1      -0.906   1.550  10.438  1.00  0.00    -0.389 OA
HETATM   25  C14 UNL     1      -1.564   0.477  11.064  1.00  0.00     0.181 C 
ENDBRANCH  20  22
ENDBRANCH  19  20
ENDBRANCH  16  19
ENDBRANCH  15  16
ENDBRANCH   5  15
ENDBRANCH   1   5
TORSDOF 14
ENDMDL
MODEL 3
REMARK VINA RESULT: -6.532192233      2.679      3.983
REMARK  14 active torsions:
REMARK  status: ('A' for Active; 'I' for Inactive)
REMARK    1  A    between atoms: C2_2  and  C3_3 
REMARK    2  A    between atoms: C3_3  and  N1_4 
REMARK    3  A    between atoms: N1_4  and  C5_6 
REMARK    4  A    between atoms: C5_6  and  C6_7 
REMARK    5  A    between atoms: C6_7  and  O1_8 
REMARK    6  A    between atoms: O1_8  and  N2_9 
REMARK    7  A    between atoms: N2_9  and  C7_10 
REMARK    8  A    between atoms: C7_10  and  C8_11 
REMARK    9  A    between atoms: C7_10  and  C15_22 
REMARK   10  A    between atoms: C8_11  and  C9_12 
REMARK   11  A    between atoms: C9_12  and  O2_13 
REMARK   12  A    between atoms: C9_12  and  C10_15 
REMARK   13  A    between atoms: C10_15  and  C11_16 
REMARK   14  A    between atoms: C11_16  and  C12_18 
ROOT
HETATM    1  C15 UNL     1      -5.375   2.858  15.457  1.00  0.00     0.110 C 
HETATM    2  C16 UNL     1      -6.633   2.330  16.251  1.00  0.00     0.027 C 
HETATM    3  C17 UNL     1      -4.376   1.805  15.878  1.00  0.00     0.065 C 
HETATM    4  N3  UNL     1      -3.626   0.959  16.230  1.00  0.00    -0.197 NA
ENDROOT
BRANCH   1   5
HETATM    5  C7  UNL     1      -5.686   2.823  14.027  1.00  0.00     0.126 C 
BRANCH   5   6
HETATM    6  N2  UNL     1      -6.212   4.223  13.666  1.00  0.00    -0.095 NA
BRANCH   6   7
HETATM    7  O1  UNL     1      -5.244   4.761  12.933  1.00  0.00    -0.284 OA
BRANCH   7   8
HETATM    8  C6  UNL     1      -4.961   6.069  13.253  1.00  0.00     0.226 C 
BRANCH   8   9
HETATM    9  C5  UNL     1      -3.998   6.146  14.448  1.00  0.00     0.300 C 
BRANCH   9  10
HETATM   10  N1  UNL     1      -2.681   6.024  13.898  1.00  0.00     0.089 N 
HETATM   11  C4  UNL     1      -1.963   4.875  14.336  1.00  0.00     0.310 C 
BRANCH  10  12
HETATM   12  C3  UNL     1      -1.914   7.236  13.891  1.00  0.00     0.298 C 
BRANCH  12  13
HETATM   13  C2  UNL     1      -2.069   8.046  15.102  1.00  0.00    -0.007 C 
HETATM   14  C1  UNL     1      -1.619   9.299  15.120  1.00  0.00     0.008 C 
ENDBRANCH  12  13
ENDBRANCH  10  12
ENDBRANCH   9  10
ENDBRANCH   8   9
ENDBRANCH   7   8
ENDBRANCH   6   7
ENDBRANCH   5   6
BRANCH   5  15
HETATM   15  C8  UNL     1      -4.622   2.587  13.027  1.00  0.00     0.057 C 
BRANCH  15  16
HETATM   16  C9  UNL     1      -4.732   1.442  12.116  1.00  0.00     0.126 C 
BRANCH  16  17
HETATM   17  O2  UNL     1      -4.405   0.203  12.672  1.00  0.00    -0.395 OA
ATOM     18  H2  UNL     1      -3.609   0.189  13.191  1.00  0.00     0.210 HD
ENDBRANCH  16  17
BRANCH  16  19
HETATM   19  C10 UNL     1      -3.983   1.564  10.822  1.00  0.00     0.110 C 
BRANCH  19  20
HETATM   20  C11 UNL     1      -2.838   0.643  10.681  1.00  0.00     0.137 C 
HETATM   21  O3  UNL     1      -2.934  -0.556  10.537  1.00  0.00    -0.297 OA
BRANCH  20  22
HETATM   22  C12 UNL     1      -1.444   1.200  10.715  1.00  0.00     0.103 C 
HETATM   23  C13 UNL     1      -1.126   2.092   9.539  1.00  0.00     0.181 C 
HETATM   24  O4  UNL     1      -0.404   2.900  10.436  1.00  0.00    -0.389 OA
HETATM   25  C14 UNL     1      -1.346   2.536  11.414  1.00  0.00     0.181 C 
ENDBRANCH  20  22
ENDBRANCH  19  20
ENDBRANCH  16  19
ENDBRANCH  15  16
ENDBRANCH   5  15
ENDBRANCH   1   5
TORSDOF 14
ENDMDL
MODEL 4
REMARK VINA RESULT: -6.502334276      3.187      5.907
REMARK  14 active torsions:
REMARK  status: ('A' for Active; 'I' for Inactive)
REMARK    1  A    between atoms: C2_2  and  C3_3 
REMARK    2  A    between atoms: C3_3  and  N1_4 
REMARK    3  A    between atoms: N1_4  and  C5_6 
REMARK    4  A    between atoms: C5_6  and  C6_7 
REMARK    5  A    between atoms: C6_7  and  O1_8 
REMARK    6  A    between atoms: O1_8  and  N2_9 
REMARK    7  A    between atoms: N2_9  and  C7_10 
REMARK    8  A    between atoms: C7_10  and  C8_11 
REMARK    9  A    between atoms: C7_10  and  C15_22 
REMARK   10  A    between atoms: C8_11  and  C9_12 
REMARK   11  A    between atoms: C9_12  and  O2_13 
REMARK   12  A    between atoms: C9_12  and  C10_15 
REMARK   13  A    between atoms: C10_15  and  C11_16 
REMARK   14  A    between atoms: C11_16  and  C12_18 
ROOT
HETATM    1  C15 UNL     1      -5.123   2.120  16.062  1.00  0.00     0.110 C 
HETATM    2  C16 UNL     1      -6.537   1.851  16.710  1.00  0.00     0.027 C 
HETATM    3  C17 UNL     1      -4.819   0.721  15.580  1.00  0.00     0.065 C 
HETATM    4  N3  UNL     1      -4.621  -0.389  15.215  1.00  0.00    -0.197 NA
ENDROOT
BRANCH   1   5
HETATM    5  C7  UNL     1      -5.293   3.084  14.974  1.00  0.00     0.126 C 
BRANCH   5   6
HETATM    6  N2  UNL     1      -5.959   2.317  13.819  1.00  0.00    -0.095 NA
BRANCH   6   7
HETATM    7  O1  UNL     1      -5.383   2.801  12.724  1.00  0.00    -0.284 OA
BRANCH   7   8
HETATM    8  C6  UNL     1      -5.010   1.837  11.815  1.00  0.00     0.226 C 
BRANCH   8   9
HETATM    9  C5  UNL     1      -3.613   1.285  12.140  1.00  0.00     0.300 C 
BRANCH   9  10
HETATM   10  N1  UNL     1      -3.338   0.304  11.133  1.00  0.00     0.089 N 
HETATM   11  C4  UNL     1      -3.825  -1.001  11.432  1.00  0.00     0.310 C 
BRANCH  10  12
HETATM   12  C3  UNL     1      -2.003   0.334  10.610  1.00  0.00     0.298 C 
BRANCH  12  13
HETATM   13  C2  UNL     1      -1.306   1.604  10.827  1.00  0.00    -0.007 C 
HETATM   14  C1  UNL     1      -0.965   2.357   9.783  1.00  0.00     0.008 C 
ENDBRANCH  12  13
ENDBRANCH  10  12
ENDBRANCH   9  10
ENDBRANCH   8   9
ENDBRANCH   7   8
ENDBRANCH   6   7
ENDBRANCH   5   6
BRANCH   5  15
HETATM   15  C8  UNL     1      -6.159   4.271  15.143  1.00  0.00     0.057 C 
BRANCH  15  16
HETATM   16  C9  UNL     1      -5.874   5.485  14.369  1.00  0.00     0.126 C 
BRANCH  16  17
HETATM   17  O2  UNL     1      -6.363   5.488  13.061  1.00  0.00    -0.395 OA
ATOM     18  H2  UNL     1      -6.355   6.333  12.626  1.00  0.00     0.210 HD
ENDBRANCH  16  17
BRANCH  16  19
HETATM   19  C10 UNL     1      -4.433   5.897  14.310  1.00  0.00     0.110 C 
BRANCH  19  20
HETATM   20  C11 UNL     1      -3.925   6.176  12.953  1.00  0.00     0.137 C 
HETATM   21  O3  UNL     1      -4.280   7.105  12.263  1.00  0.00    -0.297 OA
BRANCH  20  22
HETATM   22  C12 UNL     1      -2.894   5.260  12.357  1.00  0.00     0.103 C 
HETATM   23  C13 UNL     1      -1.540   5.908  12.191  1.00  0.00     0.181 C 
HETATM   24  O4  UNL     1      -0.981   4.672  12.563  1.00  0.00    -0.389 OA
HETATM   25  C14 UNL     1      -2.103   4.490  13.391  1.00  0.00     0.181 C 
ENDBRANCH  20  22
ENDBRANCH  19  20
ENDBRANCH  16  19
ENDBRANCH  15  16
ENDBRANCH   5  15
ENDBRANCH   1   5
TORSDOF 14
ENDMDL
MODEL 5
REMARK VINA RESULT: -6.496334268      3.205      6.299
REMARK  14 active torsions:
REMARK  status: ('A' for Active; 'I' for Inactive)
REMARK    1  A    between atoms: C2_2  and  C3_3 
REMARK    2  A    between atoms: C3_3  and  N1_4 
REMARK    3  A    between atoms: N1_4  and  C5_6 
REMARK    4  A    between atoms: C5_6  and  C6_7 
REMARK    5  A    between atoms: C6_7  and  O1_8 
REMARK    6  A    between atoms: O1_8  and  N2_9 
REMARK    7  A    between atoms: N2_9  and  C7_10 
REMARK    8  A    between atoms: C7_10  and  C8_11 
REMARK    9  A    between atoms: C7_10  and  C15_22 
REMARK   10  A    between atoms: C8_11  and  C9_12 
REMARK   11  A    between atoms: C9_12  and  O2_13 
REMARK   12  A    between atoms: C9_12  and  C10_15 
REMARK   13  A    between atoms: C10_15  and  C11_16 
REMARK   14  A    between atoms: C11_16  and  C12_18 
ROOT
HETATM    1  C15 UNL     1      -5.063   2.161  15.986  1.00  0.00     0.110 C 
HETATM    2  C16 UNL     1      -6.512   1.980  16.585  1.00  0.00     0.027 C 
HETATM    3  C17 UNL     1      -4.791   0.727  15.596  1.00  0.00     0.065 C 
HETATM    4  N3  UNL     1      -4.620  -0.408  15.303  1.00  0.00    -0.197 NA
ENDROOT
BRANCH   1   5
HETATM    5  C7  UNL     1      -5.150   3.067  14.839  1.00  0.00     0.126 C 
BRANCH   5   6
HETATM    6  N2  UNL     1      -5.731   2.239  13.680  1.00  0.00    -0.095 NA
BRANCH   6   7
HETATM    7  O1  UNL     1      -4.911   2.473  12.662  1.00  0.00    -0.284 OA
BRANCH   7   8
HETATM    8  C6  UNL     1      -5.089   1.625  11.593  1.00  0.00     0.226 C 
BRANCH   8   9
HETATM    9  C5  UNL     1      -3.858   1.633  10.673  1.00  0.00     0.300 C 
BRANCH   9  10
HETATM   10  N1  UNL     1      -2.974   0.635  11.195  1.00  0.00     0.089 N 
HETATM   11  C4  UNL     1      -1.630   0.739  10.735  1.00  0.00     0.310 C 
BRANCH  10  12
HETATM   12  C3  UNL     1      -3.500  -0.699  11.192  1.00  0.00     0.298 C 
BRANCH  12  13
HETATM   13  C2  UNL     1      -2.475  -1.745  11.135  1.00  0.00    -0.007 C 
HETATM   14  C1  UNL     1      -2.836  -3.026  11.167  1.00  0.00     0.008 C 
ENDBRANCH  12  13
ENDBRANCH  10  12
ENDBRANCH   9  10
ENDBRANCH   8   9
ENDBRANCH   7   8
ENDBRANCH   6   7
ENDBRANCH   5   6
BRANCH   5  15
HETATM   15  C8  UNL     1      -6.024   4.259  14.882  1.00  0.00     0.057 C 
BRANCH  15  16
HETATM   16  C9  UNL     1      -5.646   5.456  14.120  1.00  0.00     0.126 C 
BRANCH  16  17
HETATM   17  O2  UNL     1      -5.692   5.317  12.731  1.00  0.00    -0.395 OA
ATOM     18  H2  UNL     1      -5.608   6.127  12.239  1.00  0.00     0.210 HD
ENDBRANCH  16  17
BRANCH  16  19
HETATM   19  C10 UNL     1      -4.316   6.056  14.467  1.00  0.00     0.110 C 
BRANCH  19  20
HETATM   20  C11 UNL     1      -3.508   6.482  13.307  1.00  0.00     0.137 C 
HETATM   21  O3  UNL     1      -3.824   7.360  12.535  1.00  0.00    -0.297 OA
BRANCH  20  22
HETATM   22  C12 UNL     1      -2.198   5.798  13.039  1.00  0.00     0.103 C 
HETATM   23  C13 UNL     1      -1.844   4.755  14.072  1.00  0.00     0.181 C 
HETATM   24  O4  UNL     1      -1.327   3.985  13.014  1.00  0.00    -0.389 OA
HETATM   25  C14 UNL     1      -2.332   4.545  12.206  1.00  0.00     0.181 C 
ENDBRANCH  20  22
ENDBRANCH  19  20
ENDBRANCH  16  19
ENDBRANCH  15  16
ENDBRANCH   5  15
ENDBRANCH   1   5
TORSDOF 14
ENDMDL
