MODEL 1
REMARK VINA RESULT: -7.153368367      0.000      0.000
REMARK  13 active torsions:
REMARK  status: ('A' for Active; 'I' for Inactive)
REMARK    1  A    between atoms: C2_2  and  O1_3 
REMARK    2  A    between atoms: O1_3  and  N1_4 
REMARK    3  A    between atoms: C3_6  and  O2_7 
REMARK    4  A    between atoms: C3_6  and  C17_38 
REMARK    5  A    between atoms: O2_7  and  C4_8 
REMARK    6  A    between atoms: C6_11  and  N2_12 
REMARK    7  A    between atoms: C8_14  and  O4_15 
REMARK    8  A    between atoms: C9_17  and  N3_18 
REMARK       I    between atoms: N4_20  and  C10_22 
REMARK       I    between atoms: C10_22  and  N5_24 
REMARK    9  A    between atoms: C16_33  and  O6_34 
REMARK   10  A    between atoms: C17_38  and  N8_39 
REMARK   11  A    between atoms: C17_38  and  C18_43 
REMARK   12  A    between atoms: C18_43  and  S3_44 
REMARK   13  A    between atoms: S3_44  and  C19_45 
ROOT
HETATM    1  C4  UNL     1     -32.583  13.305 -13.084  1.00  0.00     0.343 C 
HETATM    2  O3  UNL     1     -32.636  14.646 -12.708  1.00  0.00    -0.348 OA
HETATM    3  C5  UNL     1     -31.848  14.941 -11.630  1.00  0.00     0.209 C 
HETATM    4  C6  UNL     1     -32.545  14.946 -10.286  1.00  0.00     0.188 C 
HETATM    5  S1  UNL     1     -34.076  13.911 -10.431  1.00  0.00    -0.065 SA
HETATM    6  S2  UNL     1     -33.422  12.349 -11.798  1.00  0.00    -0.035 SA
ENDROOT
BRANCH   4   7
HETATM    7  N2  UNL     1     -31.726  14.255  -9.267  1.00  0.00    -0.316 N 
HETATM    8  C7  UNL     1     -31.601  12.937  -9.062  1.00  0.00     0.133 A 
HETATM    9  C8  UNL     1     -30.800  12.666  -8.006  1.00  0.00     0.113 A 
HETATM   10  C9  UNL     1     -30.381  13.910  -7.502  1.00  0.00     0.134 A 
HETATM   11  C16 UNL     1     -30.979  14.844  -8.307  1.00  0.00     0.175 A 
BRANCH   9  12
HETATM   12  O4  UNL     1     -30.463  11.410  -7.527  1.00  0.00    -0.357 OA
ATOM     13  H4  UNL     1     -30.123  11.207  -6.665  1.00  0.00     0.218 HD
ENDBRANCH   9  12
BRANCH  10  14
HETATM   14  N3  UNL     1     -29.540  13.978  -6.377  1.00  0.00    -0.290 N 
HETATM   15  N4  UNL     1     -28.337  13.854  -6.480  1.00  0.00    -0.251 N 
HETATM   16  C10 UNL     1     -27.521  13.637  -7.602  1.00  0.00     0.344 C 
ATOM     17  H4  UNL     1     -27.830  13.919  -5.598  1.00  0.00     0.191 HD
HETATM   18  O5  UNL     1     -27.851  12.736  -8.393  1.00  0.00    -0.245 OA
HETATM   19  N5  UNL     1     -26.352  14.380  -7.882  1.00  0.00    -0.261 N 
HETATM   20  C11 UNL     1     -25.873  15.565  -7.182  1.00  0.00     0.195 C 
HETATM   21  C13 UNL     1     -25.280  14.118  -8.827  1.00  0.00     0.053 C 
HETATM   22  N6  UNL     1     -26.754  16.573  -6.692  1.00  0.00    -0.063 NA
HETATM   23  N7  UNL     1     -24.564  15.491  -7.128  1.00  0.00    -0.362 N 
HETATM   24  C12 UNL     1     -24.118  14.263  -7.794  1.00  0.00     0.153 C 
ATOM     25  H7  UNL     1     -23.952  16.179  -6.691  1.00  0.00     0.162 HD
HETATM   26  C14 UNL     1     -25.030  15.168  -9.847  1.00  0.00     0.040 C 
HETATM   27  C15 UNL     1     -25.297  12.722  -9.366  1.00  0.00     0.040 C 
ATOM     28  H3  UNL     1     -29.949  14.134  -5.455  1.00  0.00     0.187 HD
ENDBRANCH  10  14
BRANCH  11  29
HETATM   29  O6  UNL     1     -30.849  16.227  -8.163  1.00  0.00    -0.344 OA
ATOM     30  H6  UNL     1     -30.090  16.649  -7.778  1.00  0.00     0.219 HD
ENDBRANCH  11  29
ENDBRANCH   4   7
BRANCH   1  31
HETATM   31  O2  UNL     1     -31.300  12.900 -13.390  1.00  0.00    -0.294 OA
BRANCH  31  32
HETATM   32  C3  UNL     1     -30.721  11.743 -12.949  1.00  0.00     0.172 C 
HETATM   33  N1  UNL     1     -29.849  11.912 -12.090  1.00  0.00    -0.247 N 
ATOM     34  H1  UNL     1     -29.548  10.963 -11.870  1.00  0.00     0.196 HD
BRANCH  33  35
HETATM   35  O1  UNL     1     -29.131  12.625 -11.340  1.00  0.00    -0.279 OA
BRANCH  35  36
HETATM   36  C2  UNL     1     -28.152  13.579 -11.922  1.00  0.00     0.197 C 
HETATM   37  C1  UNL     1     -28.369  14.838 -11.087  1.00  0.00     0.036 C 
ENDBRANCH  35  36
ENDBRANCH  33  35
BRANCH  32  38
HETATM   38  C17 UNL     1     -30.944  10.310 -13.332  1.00  0.00     0.269 C 
BRANCH  38  39
HETATM   39  N8  UNL     1     -31.234   9.497 -12.192  1.00  0.00    -0.067 N 
ATOM     40  H83 UNL     1     -30.507   9.578 -11.482  1.00  0.00     0.275 HD
ATOM     41  H82 UNL     1     -32.020   9.870 -11.660  1.00  0.00     0.275 HD
ATOM     42  H81 UNL     1     -31.392   8.523 -12.454  1.00  0.00     0.275 HD
ENDBRANCH  38  39
BRANCH  38  43
HETATM   43  C18 UNL     1     -32.206  10.334 -14.242  1.00  0.00     0.123 C 
BRANCH  43  44
HETATM   44  S3  UNL     1     -31.707  10.177 -15.974  1.00  0.00    -0.092 SA
BRANCH  44  45
HETATM   45  C19 UNL     1     -31.187   8.451 -16.286  1.00  0.00     0.136 C 
HETATM   46  N9  UNL     1     -31.277   7.869 -17.414  1.00  0.00    -0.369 N 
HETATM   47  C20 UNL     1     -30.797   6.500 -17.376  1.00  0.00     0.141 C 
ATOM     48  H9  UNL     1     -31.647   8.317 -18.252  1.00  0.00     0.161 HD
HETATM   49  C21 UNL     1     -30.686   6.226 -15.903  1.00  0.00     0.141 C 
HETATM   50  N10 UNL     1     -30.683   7.553 -15.337  1.00  0.00    -0.369 N 
ATOM     51  H10 UNL     1     -30.364   7.797 -14.399  1.00  0.00     0.161 HD
ENDBRANCH  44  45
ENDBRANCH  43  44
ENDBRANCH  38  43
ENDBRANCH  32  38
ENDBRANCH  31  32
ENDBRANCH   1  31
TORSDOF 13
ENDMDL
MODEL 2
REMARK VINA RESULT: -7.074326519      2.985      5.466
REMARK  13 active torsions:
REMARK  status: ('A' for Active; 'I' for Inactive)
REMARK    1  A    between atoms: C2_2  and  O1_3 
REMARK    2  A    between atoms: O1_3  and  N1_4 
REMARK    3  A    between atoms: C3_6  and  O2_7 
REMARK    4  A    between atoms: C3_6  and  C17_38 
REMARK    5  A    between atoms: O2_7  and  C4_8 
REMARK    6  A    between atoms: C6_11  and  N2_12 
REMARK    7  A    between atoms: C8_14  and  O4_15 
REMARK    8  A    between atoms: C9_17  and  N3_18 
REMARK       I    between atoms: N4_20  and  C10_22 
REMARK       I    between atoms: C10_22  and  N5_24 
REMARK    9  A    between atoms: C16_33  and  O6_34 
REMARK   10  A    between atoms: C17_38  and  N8_39 
REMARK   11  A    between atoms: C17_38  and  C18_43 
REMARK   12  A    between atoms: C18_43  and  S3_44 
REMARK   13  A    between atoms: S3_44  and  C19_45 
ROOT
HETATM    1  C4  UNL     1     -29.677  13.267 -15.625  1.00  0.00     0.343 C 
HETATM    2  O3  UNL     1     -28.313  13.518 -15.493  1.00  0.00    -0.348 OA
HETATM    3  C5  UNL     1     -27.877  13.490 -14.197  1.00  0.00     0.209 C 
HETATM    4  C6  UNL     1     -27.789  14.831 -13.502  1.00  0.00     0.188 C 
HETATM    5  S1  UNL     1     -28.917  16.008 -14.383  1.00  0.00    -0.065 SA
HETATM    6  S2  UNL     1     -30.558  14.698 -14.955  1.00  0.00    -0.035 SA
ENDROOT
BRANCH   4   7
HETATM    7  N2  UNL     1     -28.337  14.749 -12.131  1.00  0.00    -0.316 N 
HETATM    8  C7  UNL     1     -29.187  13.840 -11.634  1.00  0.00     0.133 A 
HETATM    9  C8  UNL     1     -29.510  14.106 -10.346  1.00  0.00     0.113 A 
HETATM   10  C9  UNL     1     -28.808  15.273  -9.998  1.00  0.00     0.134 A 
HETATM   11  C16 UNL     1     -28.112  15.624 -11.126  1.00  0.00     0.175 A 
BRANCH   9  12
HETATM   12  O4  UNL     1     -30.360  13.366  -9.541  1.00  0.00    -0.357 OA
ATOM     13  H4  UNL     1     -31.290  13.229  -9.676  1.00  0.00     0.218 HD
ENDBRANCH   9  12
BRANCH  10  14
HETATM   14  N3  UNL     1     -28.942  15.830  -8.714  1.00  0.00    -0.290 N 
HETATM   15  N4  UNL     1     -29.954  16.412  -8.381  1.00  0.00    -0.251 N 
HETATM   16  C10 UNL     1     -31.145  16.672  -9.077  1.00  0.00     0.344 C 
ATOM     17  H4  UNL     1     -29.936  16.776  -7.428  1.00  0.00     0.191 HD
HETATM   18  O5  UNL     1     -31.054  17.139 -10.226  1.00  0.00    -0.245 OA
HETATM   19  N5  UNL     1     -32.435  16.437  -8.550  1.00  0.00    -0.261 N 
HETATM   20  C11 UNL     1     -32.765  15.762  -7.301  1.00  0.00     0.195 C 
HETATM   21  C13 UNL     1     -33.734  16.886  -9.019  1.00  0.00     0.053 C 
HETATM   22  N6  UNL     1     -32.041  14.629  -6.829  1.00  0.00    -0.063 NA
HETATM   23  N7  UNL     1     -33.796  16.382  -6.777  1.00  0.00    -0.362 N 
HETATM   24  C12 UNL     1     -34.198  17.486  -7.654  1.00  0.00     0.153 C 
ATOM     25  H7  UNL     1     -34.247  16.135  -5.897  1.00  0.00     0.162 HD
HETATM   26  C14 UNL     1     -34.723  15.824  -9.335  1.00  0.00     0.040 C 
HETATM   27  C15 UNL     1     -33.649  17.977 -10.040  1.00  0.00     0.040 C 
ATOM     28  H3  UNL     1     -28.173  15.744  -8.048  1.00  0.00     0.187 HD
ENDBRANCH  10  14
BRANCH  11  29
HETATM   29  O6  UNL     1     -27.281  16.740 -11.238  1.00  0.00    -0.344 OA
ATOM     30  H6  UNL     1     -26.664  17.011 -10.567  1.00  0.00     0.219 HD
ENDBRANCH  11  29
ENDBRANCH   4   7
BRANCH   1  31
HETATM   31  O2  UNL     1     -30.036  12.043 -15.098  1.00  0.00    -0.294 OA
BRANCH  31  32
HETATM   32  C3  UNL     1     -31.303  11.698 -14.719  1.00  0.00     0.172 C 
HETATM   33  N1  UNL     1     -32.047  11.403 -15.662  1.00  0.00    -0.247 N 
ATOM     34  H1  UNL     1     -32.924  11.160 -15.202  1.00  0.00     0.196 HD
BRANCH  33  35
HETATM   35  O1  UNL     1     -32.306  11.240 -16.883  1.00  0.00    -0.279 OA
BRANCH  35  36
HETATM   36  C2  UNL     1     -32.561  12.413 -17.759  1.00  0.00     0.197 C 
HETATM   37  C1  UNL     1     -32.658  11.782 -19.146  1.00  0.00     0.036 C 
ENDBRANCH  35  36
ENDBRANCH  33  35
BRANCH  32  38
HETATM   38  C17 UNL     1     -31.955  11.630 -13.371  1.00  0.00     0.269 C 
BRANCH  38  39
HETATM   39  N8  UNL     1     -33.138  12.431 -13.314  1.00  0.00    -0.067 N 
ATOM     40  H83 UNL     1     -32.955  13.387 -13.617  1.00  0.00     0.275 HD
ATOM     41  H82 UNL     1     -33.805  12.160 -14.036  1.00  0.00     0.275 HD
ATOM     42  H81 UNL     1     -33.564  12.410 -12.387  1.00  0.00     0.275 HD
ENDBRANCH  38  39
BRANCH  38  43
HETATM   43  C18 UNL     1     -32.372  10.140 -13.206  1.00  0.00     0.123 C 
BRANCH  43  44
HETATM   44  S3  UNL     1     -30.893   9.110 -13.051  1.00  0.00    -0.092 SA
BRANCH  44  45
HETATM   45  C19 UNL     1     -30.783   8.009 -14.509  1.00  0.00     0.136 C 
HETATM   46  N9  UNL     1     -31.196   8.319 -15.671  1.00  0.00    -0.369 N 
HETATM   47  C20 UNL     1     -30.989   7.256 -16.638  1.00  0.00     0.141 C 
ATOM     48  H9  UNL     1     -31.625   9.215 -15.899  1.00  0.00     0.161 HD
HETATM   49  C21 UNL     1     -30.654   6.076 -15.770  1.00  0.00     0.141 C 
HETATM   50  N10 UNL     1     -30.289   6.699 -14.522  1.00  0.00    -0.369 N 
ATOM     51  H10 UNL     1     -29.758   6.257 -13.772  1.00  0.00     0.161 HD
ENDBRANCH  44  45
ENDBRANCH  43  44
ENDBRANCH  38  43
ENDBRANCH  32  38
ENDBRANCH  31  32
ENDBRANCH   1  31
TORSDOF 13
ENDMDL
MODEL 3
REMARK VINA RESULT: -6.986360808      1.518      1.931
REMARK  13 active torsions:
REMARK  status: ('A' for Active; 'I' for Inactive)
REMARK    1  A    between atoms: C2_2  and  O1_3 
REMARK    2  A    between atoms: O1_3  and  N1_4 
REMARK    3  A    between atoms: C3_6  and  O2_7 
REMARK    4  A    between atoms: C3_6  and  C17_38 
REMARK    5  A    between atoms: O2_7  and  C4_8 
REMARK    6  A    between atoms: C6_11  and  N2_12 
REMARK    7  A    between atoms: C8_14  and  O4_15 
REMARK    8  A    between atoms: C9_17  and  N3_18 
REMARK       I    between atoms: N4_20  and  C10_22 
REMARK       I    between atoms: C10_22  and  N5_24 
REMARK    9  A    between atoms: C16_33  and  O6_34 
REMARK   10  A    between atoms: C17_38  and  N8_39 
REMARK   11  A    between atoms: C17_38  and  C18_43 
REMARK   12  A    between atoms: C18_43  and  S3_44 
REMARK   13  A    between atoms: S3_44  and  C19_45 
ROOT
HETATM    1  C4  UNL     1     -32.539  13.150 -13.153  1.00  0.00     0.343 C 
HETATM    2  O3  UNL     1     -32.604  14.500 -12.818  1.00  0.00    -0.348 OA
HETATM    3  C5  UNL     1     -31.819  14.836 -11.749  1.00  0.00     0.209 C 
HETATM    4  C6  UNL     1     -32.516  14.874 -10.406  1.00  0.00     0.188 C 
HETATM    5  S1  UNL     1     -34.037  13.823 -10.519  1.00  0.00    -0.065 SA
HETATM    6  S2  UNL     1     -33.369  12.225 -11.838  1.00  0.00    -0.035 SA
ENDROOT
BRANCH   4   7
HETATM    7  N2  UNL     1     -31.691  14.222  -9.367  1.00  0.00    -0.316 N 
HETATM    8  C7  UNL     1     -31.573  12.913  -9.106  1.00  0.00     0.133 A 
HETATM    9  C8  UNL     1     -30.762  12.682  -8.047  1.00  0.00     0.113 A 
HETATM   10  C9  UNL     1     -30.330  13.943  -7.602  1.00  0.00     0.134 A 
HETATM   11  C16 UNL     1     -30.930  14.847  -8.440  1.00  0.00     0.175 A 
BRANCH   9  12
HETATM   12  O4  UNL     1     -30.429  11.446  -7.519  1.00  0.00    -0.357 OA
ATOM     13  H4  UNL     1     -30.871  10.996  -6.809  1.00  0.00     0.218 HD
ENDBRANCH   9  12
BRANCH  10  14
HETATM   14  N3  UNL     1     -29.476  14.053  -6.489  1.00  0.00    -0.290 N 
HETATM   15  N4  UNL     1     -28.274  13.931  -6.602  1.00  0.00    -0.251 N 
HETATM   16  C10 UNL     1     -27.470  13.679  -7.724  1.00  0.00     0.344 C 
ATOM     17  H4  UNL     1     -27.757  14.028  -5.728  1.00  0.00     0.191 HD
HETATM   18  O5  UNL     1     -27.805  12.750  -8.480  1.00  0.00    -0.245 OA
HETATM   19  N5  UNL     1     -26.307  14.415  -8.044  1.00  0.00    -0.261 N 
HETATM   20  C11 UNL     1     -25.826  15.626  -7.390  1.00  0.00     0.195 C 
HETATM   21  C13 UNL     1     -25.245  14.125  -8.990  1.00  0.00     0.053 C 
HETATM   22  N6  UNL     1     -26.705  16.647  -6.925  1.00  0.00    -0.063 NA
HETATM   23  N7  UNL     1     -24.515  15.559  -7.348  1.00  0.00    -0.362 N 
HETATM   24  C12 UNL     1     -24.072  14.310  -7.977  1.00  0.00     0.153 C 
ATOM     25  H7  UNL     1     -23.901  16.264  -6.942  1.00  0.00     0.162 HD
HETATM   26  C14 UNL     1     -25.010  15.140 -10.049  1.00  0.00     0.040 C 
HETATM   27  C15 UNL     1     -25.261  12.711  -9.481  1.00  0.00     0.040 C 
ATOM     28  H3  UNL     1     -29.876  14.240  -5.569  1.00  0.00     0.187 HD
ENDBRANCH  10  14
BRANCH  11  29
HETATM   29  O6  UNL     1     -30.789  16.233  -8.357  1.00  0.00    -0.344 OA
ATOM     30  H6  UNL     1     -29.962  16.672  -8.192  1.00  0.00     0.219 HD
ENDBRANCH  11  29
ENDBRANCH   4   7
BRANCH   1  31
HETATM   31  O2  UNL     1     -31.252  12.747 -13.446  1.00  0.00    -0.294 OA
BRANCH  31  32
HETATM   32  C3  UNL     1     -30.655  11.621 -12.951  1.00  0.00     0.172 C 
HETATM   33  N1  UNL     1     -29.815  11.842 -12.072  1.00  0.00    -0.247 N 
ATOM     34  H1  UNL     1     -29.495  10.910 -11.813  1.00  0.00     0.196 HD
BRANCH  33  35
HETATM   35  O1  UNL     1     -29.142  12.598 -11.323  1.00  0.00    -0.279 OA
BRANCH  35  36
HETATM   36  C2  UNL     1     -28.110  13.500 -11.898  1.00  0.00     0.197 C 
HETATM   37  C1  UNL     1     -28.403  14.830 -11.210  1.00  0.00     0.036 C 
ENDBRANCH  35  36
ENDBRANCH  33  35
BRANCH  32  38
HETATM   38  C17 UNL     1     -30.825  10.172 -13.296  1.00  0.00     0.269 C 
BRANCH  38  39
HETATM   39  N8  UNL     1     -31.054   9.374 -12.131  1.00  0.00    -0.067 N 
ATOM     40  H83 UNL     1     -30.179   9.031 -11.736  1.00  0.00     0.275 HD
ATOM     41  H82 UNL     1     -31.370   9.945 -11.346  1.00  0.00     0.275 HD
ATOM     42  H81 UNL     1     -31.703   8.610 -12.319  1.00  0.00     0.275 HD
ENDBRANCH  38  39
BRANCH  38  43
HETATM   43  C18 UNL     1     -32.107  10.120 -14.176  1.00  0.00     0.123 C 
BRANCH  43  44
HETATM   44  S3  UNL     1     -31.650   9.774 -15.892  1.00  0.00    -0.092 SA
BRANCH  44  45
HETATM   45  C19 UNL     1     -31.856  11.302 -16.879  1.00  0.00     0.136 C 
HETATM   46  N9  UNL     1     -32.466  11.356 -17.993  1.00  0.00    -0.369 N 
HETATM   47  C20 UNL     1     -32.474  12.692 -18.560  1.00  0.00     0.141 C 
ATOM     48  H9  UNL     1     -32.902  10.550 -18.439  1.00  0.00     0.161 HD
HETATM   49  C21 UNL     1     -31.453  13.414 -17.727  1.00  0.00     0.141 C 
HETATM   50  N10 UNL     1     -31.338  12.565 -16.568  1.00  0.00    -0.369 N 
ATOM     51  H10 UNL     1     -30.944  12.840 -15.668  1.00  0.00     0.161 HD
ENDBRANCH  44  45
ENDBRANCH  43  44
ENDBRANCH  38  43
ENDBRANCH  32  38
ENDBRANCH  31  32
ENDBRANCH   1  31
TORSDOF 13
ENDMDL
MODEL 4
REMARK VINA RESULT: -6.981074464      3.420      9.462
REMARK  13 active torsions:
REMARK  status: ('A' for Active; 'I' for Inactive)
REMARK    1  A    between atoms: C2_2  and  O1_3 
REMARK    2  A    between atoms: O1_3  and  N1_4 
REMARK    3  A    between atoms: C3_6  and  O2_7 
REMARK    4  A    between atoms: C3_6  and  C17_38 
REMARK    5  A    between atoms: O2_7  and  C4_8 
REMARK    6  A    between atoms: C6_11  and  N2_12 
REMARK    7  A    between atoms: C8_14  and  O4_15 
REMARK    8  A    between atoms: C9_17  and  N3_18 
REMARK       I    between atoms: N4_20  and  C10_22 
REMARK       I    between atoms: C10_22  and  N5_24 
REMARK    9  A    between atoms: C16_33  and  O6_34 
REMARK   10  A    between atoms: C17_38  and  N8_39 
REMARK   11  A    between atoms: C17_38  and  C18_43 
REMARK   12  A    between atoms: C18_43  and  S3_44 
REMARK   13  A    between atoms: S3_44  and  C19_45 
ROOT
HETATM    1  C4  UNL     1     -26.782  14.863  -7.958  1.00  0.00     0.343 C 
HETATM    2  O3  UNL     1     -27.720  14.797  -6.930  1.00  0.00    -0.348 OA
HETATM    3  C5  UNL     1     -28.518  13.687  -6.990  1.00  0.00     0.209 C 
HETATM    4  C6  UNL     1     -29.858  13.875  -7.668  1.00  0.00     0.188 C 
HETATM    5  S1  UNL     1     -29.735  15.349  -8.783  1.00  0.00    -0.065 SA
HETATM    6  S2  UNL     1     -27.683  15.193  -9.492  1.00  0.00    -0.035 SA
ENDROOT
BRANCH   4   7
HETATM    7  N2  UNL     1     -30.150  12.746  -8.576  1.00  0.00    -0.316 N 
HETATM    8  C7  UNL     1     -29.287  11.868  -9.107  1.00  0.00     0.133 A 
HETATM    9  C8  UNL     1     -29.905  10.994  -9.935  1.00  0.00     0.113 A 
HETATM   10  C9  UNL     1     -31.267  11.342  -9.927  1.00  0.00     0.134 A 
HETATM   11  C16 UNL     1     -31.359  12.419  -9.084  1.00  0.00     0.175 A 
BRANCH   9  12
HETATM   12  O4  UNL     1     -29.307   9.963 -10.641  1.00  0.00    -0.357 OA
ATOM     13  H4  UNL     1     -29.281   9.048 -10.391  1.00  0.00     0.218 HD
ENDBRANCH   9  12
BRANCH  10  14
HETATM   14  N3  UNL     1     -32.192  10.627 -10.710  1.00  0.00    -0.290 N 
HETATM   15  N4  UNL     1     -32.364  10.891 -11.882  1.00  0.00    -0.251 N 
HETATM   16  C10 UNL     1     -31.773  11.859 -12.709  1.00  0.00     0.344 C 
ATOM     17  H4  UNL     1     -33.059  10.308 -12.347  1.00  0.00     0.191 HD
HETATM   18  O5  UNL     1     -31.707  13.025 -12.282  1.00  0.00    -0.245 OA
HETATM   19  N5  UNL     1     -31.251  11.586 -13.994  1.00  0.00    -0.261 N 
HETATM   20  C11 UNL     1     -31.088  10.278 -14.618  1.00  0.00     0.195 C 
HETATM   21  C13 UNL     1     -30.860  12.494 -15.058  1.00  0.00     0.053 C 
HETATM   22  N6  UNL     1     -30.686   9.125 -13.884  1.00  0.00    -0.063 NA
HETATM   23  N7  UNL     1     -31.362  10.412 -15.895  1.00  0.00    -0.362 N 
HETATM   24  C12 UNL     1     -31.710  11.809 -16.174  1.00  0.00     0.153 C 
ATOM     25  H7  UNL     1     -31.337   9.662 -16.585  1.00  0.00     0.162 HD
HETATM   26  C14 UNL     1     -29.453  12.395 -15.523  1.00  0.00     0.040 C 
HETATM   27  C15 UNL     1     -31.346  13.894 -14.849  1.00  0.00     0.040 C 
ATOM     28  H3  UNL     1     -32.728   9.871 -10.284  1.00  0.00     0.187 HD
ENDBRANCH  10  14
BRANCH  11  29
HETATM   29  O6  UNL     1     -32.538  13.104  -8.785  1.00  0.00    -0.344 OA
ATOM     30  H6  UNL     1     -32.972  13.697  -9.388  1.00  0.00     0.219 HD
ENDBRANCH  11  29
ENDBRANCH   4   7
BRANCH   1  31
HETATM   31  O2  UNL     1     -25.951  13.761  -7.978  1.00  0.00    -0.294 OA
BRANCH  31  32
HETATM   32  C3  UNL     1     -24.693  13.723  -7.444  1.00  0.00     0.172 C 
HETATM   33  N1  UNL     1     -23.863  13.144  -8.153  1.00  0.00    -0.247 N 
ATOM     34  H1  UNL     1     -22.999  13.227  -7.619  1.00  0.00     0.196 HD
BRANCH  33  35
HETATM   35  O1  UNL     1     -23.509  12.508  -9.180  1.00  0.00    -0.279 OA
BRANCH  35  36
HETATM   36  C2  UNL     1     -23.528  11.022  -9.187  1.00  0.00     0.197 C 
HETATM   37  C1  UNL     1     -22.575  10.668  -8.048  1.00  0.00     0.036 C 
ENDBRANCH  35  36
ENDBRANCH  33  35
BRANCH  32  38
HETATM   38  C17 UNL     1     -24.147  14.241  -6.147  1.00  0.00     0.269 C 
BRANCH  38  39
HETATM   39  N8  UNL     1     -22.822  13.762  -5.902  1.00  0.00    -0.067 N 
ATOM     40  H83 UNL     1     -22.831  12.926  -5.318  1.00  0.00     0.275 HD
ATOM     41  H82 UNL     1     -22.409  13.363  -6.745  1.00  0.00     0.275 HD
ATOM     42  H81 UNL     1     -22.226  14.488  -5.504  1.00  0.00     0.275 HD
ENDBRANCH  38  39
BRANCH  38  43
HETATM   43  C18 UNL     1     -24.074  15.784  -6.336  1.00  0.00     0.123 C 
BRANCH  43  44
HETATM   44  S3  UNL     1     -24.898  16.603  -4.949  1.00  0.00    -0.092 SA
BRANCH  44  45
HETATM   45  C19 UNL     1     -25.027  15.423  -3.556  1.00  0.00     0.136 C 
HETATM   46  N9  UNL     1     -24.316  15.479  -2.503  1.00  0.00    -0.369 N 
HETATM   47  C20 UNL     1     -24.624  14.416  -1.564  1.00  0.00     0.141 C 
ATOM     48  H9  UNL     1     -23.608  16.194  -2.336  1.00  0.00     0.161 HD
HETATM   49  C21 UNL     1     -25.455  13.473  -2.389  1.00  0.00     0.141 C 
HETATM   50  N10 UNL     1     -25.867  14.304  -3.493  1.00  0.00    -0.369 N 
ATOM     51  H10 UNL     1     -26.643  14.109  -4.125  1.00  0.00     0.161 HD
ENDBRANCH  44  45
ENDBRANCH  43  44
ENDBRANCH  38  43
ENDBRANCH  32  38
ENDBRANCH  31  32
ENDBRANCH   1  31
TORSDOF 13
ENDMDL
MODEL 5
REMARK VINA RESULT: -6.971496735      1.436      2.047
REMARK  13 active torsions:
REMARK  status: ('A' for Active; 'I' for Inactive)
REMARK    1  A    between atoms: C2_2  and  O1_3 
REMARK    2  A    between atoms: O1_3  and  N1_4 
REMARK    3  A    between atoms: C3_6  and  O2_7 
REMARK    4  A    between atoms: C3_6  and  C17_38 
REMARK    5  A    between atoms: O2_7  and  C4_8 
REMARK    6  A    between atoms: C6_11  and  N2_12 
REMARK    7  A    between atoms: C8_14  and  O4_15 
REMARK    8  A    between atoms: C9_17  and  N3_18 
REMARK       I    between atoms: N4_20  and  C10_22 
REMARK       I    between atoms: C10_22  and  N5_24 
REMARK    9  A    between atoms: C16_33  and  O6_34 
REMARK   10  A    between atoms: C17_38  and  N8_39 
REMARK   11  A    between atoms: C17_38  and  C18_43 
REMARK   12  A    between atoms: C18_43  and  S3_44 
REMARK   13  A    between atoms: S3_44  and  C19_45 
ROOT
HETATM    1  C4  UNL     1     -32.521  13.541 -13.056  1.00  0.00     0.343 C 
HETATM    2  O3  UNL     1     -32.620  14.858 -12.613  1.00  0.00    -0.348 OA
HETATM    3  C5  UNL     1     -31.852  15.123 -11.512  1.00  0.00     0.209 C 
HETATM    4  C6  UNL     1     -32.561  15.037 -10.178  1.00  0.00     0.188 C 
HETATM    5  S1  UNL     1     -34.056  13.964 -10.391  1.00  0.00    -0.065 SA
HETATM    6  S2  UNL     1     -33.341  12.494 -11.829  1.00  0.00    -0.035 SA
ENDROOT
BRANCH   4   7
HETATM    7  N2  UNL     1     -31.730  14.322  -9.187  1.00  0.00    -0.316 N 
HETATM    8  C7  UNL     1     -31.659  13.002  -8.966  1.00  0.00     0.133 A 
HETATM    9  C8  UNL     1     -30.824  12.707  -7.943  1.00  0.00     0.113 A 
HETATM   10  C9  UNL     1     -30.323  13.936  -7.479  1.00  0.00     0.134 A 
HETATM   11  C16 UNL     1     -30.912  14.887  -8.271  1.00  0.00     0.175 A 
BRANCH   9  12
HETATM   12  O4  UNL     1     -30.526  11.443  -7.460  1.00  0.00    -0.357 OA
ATOM     13  H4  UNL     1     -29.748  10.934  -7.652  1.00  0.00     0.218 HD
ENDBRANCH   9  12
BRANCH  10  14
HETATM   14  N3  UNL     1     -29.428  13.978  -6.395  1.00  0.00    -0.290 N 
HETATM   15  N4  UNL     1     -28.231  13.859  -6.560  1.00  0.00    -0.251 N 
HETATM   16  C10 UNL     1     -27.471  13.670  -7.724  1.00  0.00     0.344 C 
ATOM     17  H4  UNL     1     -27.682  13.904  -5.702  1.00  0.00     0.191 HD
HETATM   18  O5  UNL     1     -27.838  12.788  -8.519  1.00  0.00    -0.245 OA
HETATM   19  N5  UNL     1     -26.317  14.421  -8.043  1.00  0.00    -0.261 N 
HETATM   20  C11 UNL     1     -25.805  15.590  -7.339  1.00  0.00     0.195 C 
HETATM   21  C13 UNL     1     -25.292  14.183  -9.045  1.00  0.00     0.053 C 
HETATM   22  N6  UNL     1     -26.661  16.584  -6.783  1.00  0.00    -0.063 NA
HETATM   23  N7  UNL     1     -24.494  15.516  -7.350  1.00  0.00    -0.362 N 
HETATM   24  C12 UNL     1     -24.081  14.305  -8.067  1.00  0.00     0.153 C 
ATOM     25  H7  UNL     1     -23.862  16.195  -6.927  1.00  0.00     0.162 HD
HETATM   26  C14 UNL     1     -25.092  15.258 -10.051  1.00  0.00     0.040 C 
HETATM   27  C15 UNL     1     -25.334  12.800  -9.616  1.00  0.00     0.040 C 
ATOM     28  H3  UNL     1     -29.791  14.112  -5.451  1.00  0.00     0.187 HD
ENDBRANCH  10  14
BRANCH  11  29
HETATM   29  O6  UNL     1     -30.708  16.263  -8.156  1.00  0.00    -0.344 OA
ATOM     30  H6  UNL     1     -30.109  16.659  -7.534  1.00  0.00     0.219 HD
ENDBRANCH  11  29
ENDBRANCH   4   7
BRANCH   1  31
HETATM   31  O2  UNL     1     -31.222  13.192 -13.367  1.00  0.00    -0.294 OA
BRANCH  31  32
HETATM   32  C3  UNL     1     -30.860  12.393 -14.416  1.00  0.00     0.172 C 
HETATM   33  N1  UNL     1     -30.665  13.006 -15.471  1.00  0.00    -0.247 N 
ATOM     34  H1  UNL     1     -30.391  12.271 -16.123  1.00  0.00     0.196 HD
BRANCH  33  35
HETATM   35  O1  UNL     1     -30.621  14.049 -16.176  1.00  0.00    -0.279 OA
BRANCH  35  36
HETATM   36  C2  UNL     1     -30.576  13.952 -17.658  1.00  0.00     0.197 C 
HETATM   37  C1  UNL     1     -31.794  13.089 -17.977  1.00  0.00     0.036 C 
ENDBRANCH  35  36
ENDBRANCH  33  35
BRANCH  32  38
HETATM   38  C17 UNL     1     -30.673  10.909 -14.517  1.00  0.00     0.269 C 
BRANCH  38  39
HETATM   39  N8  UNL     1     -30.473  10.312 -13.234  1.00  0.00    -0.067 N 
ATOM     40  H83 UNL     1     -29.602   9.783 -13.202  1.00  0.00     0.275 HD
ATOM     41  H82 UNL     1     -30.258  11.015 -12.526  1.00  0.00     0.275 HD
ATOM     42  H81 UNL     1     -31.268   9.736 -12.957  1.00  0.00     0.275 HD
ENDBRANCH  38  39
BRANCH  38  43
HETATM   43  C18 UNL     1     -32.019  10.378 -15.092  1.00  0.00     0.123 C 
BRANCH  43  44
HETATM   44  S3  UNL     1     -31.719   9.548 -16.670  1.00  0.00    -0.092 SA
BRANCH  44  45
HETATM   45  C19 UNL     1     -31.118   7.851 -16.342  1.00  0.00     0.136 C 
HETATM   46  N9  UNL     1     -30.718   7.441 -15.206  1.00  0.00    -0.369 N 
HETATM   47  C20 UNL     1     -30.291   6.054 -15.232  1.00  0.00     0.141 C 
ATOM     48  H9  UNL     1     -30.699   8.024 -14.370  1.00  0.00     0.161 HD
HETATM   49  C21 UNL     1     -30.195   5.762 -16.703  1.00  0.00     0.141 C 
HETATM   50  N10 UNL     1     -30.976   6.825 -17.285  1.00  0.00    -0.369 N 
ATOM     51  H10 UNL     1     -31.361   6.829 -18.229  1.00  0.00     0.161 HD
ENDBRANCH  44  45
ENDBRANCH  43  44
ENDBRANCH  38  43
ENDBRANCH  32  38
ENDBRANCH  31  32
ENDBRANCH   1  31
TORSDOF 13
ENDMDL
