MODEL 1
REMARK VINA RESULT: -6.441048857      0.000      0.000
REMARK  7 active torsions:
REMARK  status: ('A' for Active; 'I' for Inactive)
REMARK    1  A    between atoms: N1_2  and  C2_5 
REMARK    2  A    between atoms: C5_8  and  C6_9 
REMARK    3  A    between atoms: C6_9  and  N2_10 
REMARK    4  A    between atoms: N2_10  and  C7_12 
REMARK    5  A    between atoms: C9_14  and  C10_15 
REMARK    6  A    between atoms: C15_24  and  N5_25 
REMARK    7  A    between atoms: C18_28  and  N6_29 
ROOT
HETATM    1  C7  UNL     1      10.502   4.247   1.574  1.00  0.00     0.033 A 
HETATM    2  C8  UNL     1      11.141   5.331   2.206  1.00  0.00     0.059 A 
HETATM    3  C9  UNL     1      12.472   5.311   2.478  1.00  0.00     0.048 A 
HETATM    4  N4  UNL     1      13.138   4.191   2.105  1.00  0.00    -0.342 N 
ATOM      5  H4  UNL     1      14.140   4.147   2.297  1.00  0.00     0.167 HD
HETATM    6  C15 UNL     1      12.569   3.135   1.502  1.00  0.00     0.105 A 
HETATM    7  C20 UNL     1      11.208   3.136   1.214  1.00  0.00     0.077 A 
ENDROOT
BRANCH   1   8
HETATM    8  N2  UNL     1       9.111   4.281   1.295  1.00  0.00    -0.389 N 
ATOM      9  H2  UNL     1       8.605   3.400   1.207  1.00  0.00     0.159 HD
BRANCH   8  10
HETATM   10  C6  UNL     1       8.385   5.522   1.129  1.00  0.00     0.124 C 
BRANCH  10  11
HETATM   11  C5  UNL     1       7.562   5.417  -0.118  1.00  0.00     0.003 C 
HETATM   12  C4  UNL     1       8.354   4.911  -1.288  1.00  0.00     0.008 C 
HETATM   13  C3  UNL     1       7.573   4.386  -2.417  1.00  0.00     0.033 C 
HETATM   14  C2  UNL     1       6.107   4.551  -2.393  1.00  0.00     0.185 C 
HETATM   15  C22 UNL     1       5.475   4.693  -1.044  1.00  0.00     0.033 C 
HETATM   16  C21 UNL     1       6.454   4.369   0.082  1.00  0.00     0.008 C 
BRANCH  14  17
HETATM   17  N1  UNL     1       5.673   5.678  -3.207  1.00  0.00    -0.075 N 
HETATM   18  C1  UNL     1       4.261   5.923  -3.114  1.00  0.00     0.267 C 
ATOM     19  H12 UNL     1       5.959   5.558  -4.179  1.00  0.00     0.277 HD
ATOM     20  H11 UNL     1       6.205   6.519  -2.980  1.00  0.00     0.277 HD
ENDBRANCH  14  17
ENDBRANCH  10  11
ENDBRANCH   8  10
ENDBRANCH   1   8
BRANCH   3  21
HETATM   21  C10 UNL     1      13.222   6.375   3.149  1.00  0.00     0.013 A 
HETATM   22  C11 UNL     1      13.496   6.343   4.530  1.00  0.00     0.101 A 
HETATM   23  N3  UNL     1      14.205   7.418   4.862  1.00  0.00    -0.374 N 
HETATM   24  C12 UNL     1      14.399   8.136   3.758  1.00  0.00     0.095 A 
ATOM     25  H3  UNL     1      14.541   7.651   5.797  1.00  0.00     0.164 HD
HETATM   26  C13 UNL     1      13.795   7.509   2.666  1.00  0.00    -0.033 A 
HETATM   27  C14 UNL     1      13.816   8.004   1.269  1.00  0.00     0.050 C 
ENDBRANCH   3  21
BRANCH   6  28
HETATM   28  N5  UNL     1      13.319   1.988   1.134  1.00  0.00    -0.365 N 
HETATM   29  C16 UNL     1      13.029   1.078   0.062  1.00  0.00     0.126 C 
HETATM   30  C17 UNL     1      14.195   0.117  -0.013  1.00  0.00     0.054 C 
HETATM   31  C18 UNL     1      15.281   0.853   0.712  1.00  0.00     0.203 C 
HETATM   32  C19 UNL     1      14.526   1.563   1.814  1.00  0.00     0.157 C 
BRANCH  31  33
HETATM   33  N6  UNL     1      15.828   1.858  -0.168  1.00  0.00    -0.073 N 
ATOM     34  H63 UNL     1      15.122   2.270  -0.777  1.00  0.00     0.274 HD
ATOM     35  H62 UNL     1      16.097   2.706   0.331  1.00  0.00     0.274 HD
ATOM     36  H61 UNL     1      16.604   1.451  -0.691  1.00  0.00     0.274 HD
ENDBRANCH  31  33
ENDBRANCH   6  28
TORSDOF 7
ENDMDL
MODEL 2
REMARK VINA RESULT: -6.414868087      1.978      7.466
REMARK  7 active torsions:
REMARK  status: ('A' for Active; 'I' for Inactive)
REMARK    1  A    between atoms: N1_2  and  C2_5 
REMARK    2  A    between atoms: C5_8  and  C6_9 
REMARK    3  A    between atoms: C6_9  and  N2_10 
REMARK    4  A    between atoms: N2_10  and  C7_12 
REMARK    5  A    between atoms: C9_14  and  C10_15 
REMARK    6  A    between atoms: C15_24  and  N5_25 
REMARK    7  A    between atoms: C18_28  and  N6_29 
ROOT
HETATM    1  C7  UNL     1      11.493   2.950   2.468  1.00  0.00     0.033 A 
HETATM    2  C8  UNL     1      12.499   2.112   1.953  1.00  0.00     0.059 A 
HETATM    3  C9  UNL     1      12.411   1.580   0.705  1.00  0.00     0.048 A 
HETATM    4  N4  UNL     1      11.303   1.906  -0.004  1.00  0.00    -0.342 N 
ATOM      5  H4  UNL     1      11.210   1.522  -0.945  1.00  0.00     0.167 HD
HETATM    6  C15 UNL     1      10.320   2.701   0.448  1.00  0.00     0.105 A 
HETATM    7  C20 UNL     1      10.391   3.256   1.722  1.00  0.00     0.077 A 
ENDROOT
BRANCH   1   8
HETATM    8  N2  UNL     1      11.597   3.500   3.772  1.00  0.00    -0.389 N 
ATOM      9  H2  UNL     1      10.742   3.703   4.290  1.00  0.00     0.159 HD
BRANCH   8  10
HETATM   10  C6  UNL     1      12.873   3.783   4.393  1.00  0.00     0.124 C 
BRANCH  10  11
HETATM   11  C5  UNL     1      13.341   5.120   3.907  1.00  0.00     0.003 C 
HETATM   12  C4  UNL     1      13.354   6.154   4.994  1.00  0.00     0.008 C 
HETATM   13  C3  UNL     1      14.168   7.350   4.737  1.00  0.00     0.033 C 
HETATM   14  C2  UNL     1      14.756   7.524   3.395  1.00  0.00     0.185 C 
HETATM   15  C22 UNL     1      14.984   6.275   2.601  1.00  0.00     0.033 C 
HETATM   16  C21 UNL     1      14.807   5.019   3.451  1.00  0.00     0.008 C 
BRANCH  14  17
HETATM   17  N1  UNL     1      13.974   8.436   2.572  1.00  0.00    -0.075 N 
HETATM   18  C1  UNL     1      13.553   7.847   1.331  1.00  0.00     0.267 C 
ATOM     19  H12 UNL     1      14.481   9.306   2.409  1.00  0.00     0.277 HD
ATOM     20  H11 UNL     1      13.176   8.803   3.091  1.00  0.00     0.277 HD
ENDBRANCH  14  17
ENDBRANCH  10  11
ENDBRANCH   8  10
ENDBRANCH   1   8
BRANCH   3  21
HETATM   21  C10 UNL     1      13.391   0.682   0.089  1.00  0.00     0.013 A 
HETATM   22  C11 UNL     1      13.040  -0.595  -0.392  1.00  0.00     0.101 A 
HETATM   23  N3  UNL     1      14.115  -1.177  -0.914  1.00  0.00    -0.374 N 
HETATM   24  C12 UNL     1      15.138  -0.334  -0.792  1.00  0.00     0.095 A 
ATOM     25  H3  UNL     1      14.150  -2.106  -1.335  1.00  0.00     0.164 HD
HETATM   26  C13 UNL     1      14.716   0.842  -0.166  1.00  0.00    -0.033 A 
HETATM   27  C14 UNL     1      15.572   2.017   0.124  1.00  0.00     0.050 C 
ENDBRANCH   3  21
BRANCH   6  28
HETATM   28  N5  UNL     1       9.181   3.009  -0.341  1.00  0.00    -0.365 N 
HETATM   29  C16 UNL     1       7.836   2.559  -0.123  1.00  0.00     0.126 C 
HETATM   30  C17 UNL     1       6.974   3.274  -1.140  1.00  0.00     0.054 C 
HETATM   31  C18 UNL     1       7.829   4.437  -1.542  1.00  0.00     0.203 C 
HETATM   32  C19 UNL     1       9.224   3.852  -1.519  1.00  0.00     0.157 C 
BRANCH  31  33
HETATM   33  N6  UNL     1       7.756   5.447  -0.513  1.00  0.00    -0.073 N 
ATOM     34  H63 UNL     1       6.878   5.413   0.005  1.00  0.00     0.274 HD
ATOM     35  H62 UNL     1       8.387   5.256   0.265  1.00  0.00     0.274 HD
ATOM     36  H61 UNL     1       7.923   6.360  -0.936  1.00  0.00     0.274 HD
ENDBRANCH  31  33
ENDBRANCH   6  28
TORSDOF 7
ENDMDL
MODEL 3
REMARK VINA RESULT: -6.353176053      1.892      7.566
REMARK  7 active torsions:
REMARK  status: ('A' for Active; 'I' for Inactive)
REMARK    1  A    between atoms: N1_2  and  C2_5 
REMARK    2  A    between atoms: C5_8  and  C6_9 
REMARK    3  A    between atoms: C6_9  and  N2_10 
REMARK    4  A    between atoms: N2_10  and  C7_12 
REMARK    5  A    between atoms: C9_14  and  C10_15 
REMARK    6  A    between atoms: C15_24  and  N5_25 
REMARK    7  A    between atoms: C18_28  and  N6_29 
ROOT
HETATM    1  C7  UNL     1      11.587   2.939   2.505  1.00  0.00     0.033 A 
HETATM    2  C8  UNL     1      12.590   2.119   1.954  1.00  0.00     0.059 A 
HETATM    3  C9  UNL     1      12.481   1.607   0.700  1.00  0.00     0.048 A 
HETATM    4  N4  UNL     1      11.354   1.932   0.021  1.00  0.00    -0.342 N 
ATOM      5  H4  UNL     1      11.244   1.561  -0.923  1.00  0.00     0.167 HD
HETATM    6  C15 UNL     1      10.373   2.709   0.507  1.00  0.00     0.105 A 
HETATM    7  C20 UNL     1      10.467   3.244   1.788  1.00  0.00     0.077 A 
ENDROOT
BRANCH   1   8
HETATM    8  N2  UNL     1      11.714   3.469   3.815  1.00  0.00    -0.389 N 
ATOM      9  H2  UNL     1      10.871   3.633   4.363  1.00  0.00     0.159 HD
BRANCH   8  10
HETATM   10  C6  UNL     1      13.000   3.786   4.400  1.00  0.00     0.124 C 
BRANCH  10  11
HETATM   11  C5  UNL     1      13.420   5.133   3.898  1.00  0.00     0.003 C 
HETATM   12  C4  UNL     1      13.449   6.168   4.985  1.00  0.00     0.008 C 
HETATM   13  C3  UNL     1      14.227   7.381   4.698  1.00  0.00     0.033 C 
HETATM   14  C2  UNL     1      14.763   7.567   3.337  1.00  0.00     0.185 C 
HETATM   15  C22 UNL     1      14.990   6.323   2.535  1.00  0.00     0.033 C 
HETATM   16  C21 UNL     1      14.871   5.064   3.391  1.00  0.00     0.008 C 
BRANCH  14  17
HETATM   17  N1  UNL     1      13.932   8.461   2.542  1.00  0.00    -0.075 N 
HETATM   18  C1  UNL     1      13.423   7.839   1.351  1.00  0.00     0.267 C 
ATOM     19  H12 UNL     1      14.433   9.321   2.318  1.00  0.00     0.277 HD
ATOM     20  H11 UNL     1      13.174   8.850   3.103  1.00  0.00     0.277 HD
ENDBRANCH  14  17
ENDBRANCH  10  11
ENDBRANCH   8  10
ENDBRANCH   1   8
BRANCH   3  21
HETATM   21  C10 UNL     1      13.456   0.729   0.049  1.00  0.00     0.013 A 
HETATM   22  C11 UNL     1      14.761   1.159  -0.263  1.00  0.00     0.101 A 
HETATM   23  N3  UNL     1      15.430   0.157  -0.826  1.00  0.00    -0.374 N 
HETATM   24  C12 UNL     1      14.616  -0.895  -0.887  1.00  0.00     0.095 A 
ATOM     25  H3  UNL     1      16.396   0.188  -1.152  1.00  0.00     0.164 HD
HETATM   26  C13 UNL     1      13.370  -0.569  -0.346  1.00  0.00    -0.033 A 
HETATM   27  C14 UNL     1      12.216  -1.491  -0.226  1.00  0.00     0.050 C 
ENDBRANCH   3  21
BRANCH   6  28
HETATM   28  N5  UNL     1       9.215   3.017  -0.252  1.00  0.00    -0.365 N 
HETATM   29  C16 UNL     1       7.878   2.551  -0.011  1.00  0.00     0.126 C 
HETATM   30  C17 UNL     1       6.988   3.273  -0.998  1.00  0.00     0.054 C 
HETATM   31  C18 UNL     1       7.822   4.450  -1.401  1.00  0.00     0.203 C 
HETATM   32  C19 UNL     1       9.223   3.878  -1.418  1.00  0.00     0.157 C 
BRANCH  31  33
HETATM   33  N6  UNL     1       7.762   5.443  -0.356  1.00  0.00    -0.073 N 
ATOM     34  H63 UNL     1       8.672   5.613   0.073  1.00  0.00     0.274 HD
ATOM     35  H62 UNL     1       7.599   6.382  -0.719  1.00  0.00     0.274 HD
ATOM     36  H61 UNL     1       7.058   5.161   0.327  1.00  0.00     0.274 HD
ENDBRANCH  31  33
ENDBRANCH   6  28
TORSDOF 7
ENDMDL
MODEL 4
REMARK VINA RESULT: -6.308464636      2.152      7.709
REMARK  7 active torsions:
REMARK  status: ('A' for Active; 'I' for Inactive)
REMARK    1  A    between atoms: N1_2  and  C2_5 
REMARK    2  A    between atoms: C5_8  and  C6_9 
REMARK    3  A    between atoms: C6_9  and  N2_10 
REMARK    4  A    between atoms: N2_10  and  C7_12 
REMARK    5  A    between atoms: C9_14  and  C10_15 
REMARK    6  A    between atoms: C15_24  and  N5_25 
REMARK    7  A    between atoms: C18_28  and  N6_29 
ROOT
HETATM    1  C7  UNL     1      12.301   2.714   2.297  1.00  0.00     0.033 A 
HETATM    2  C8  UNL     1      13.186   1.801   1.694  1.00  0.00     0.059 A 
HETATM    3  C9  UNL     1      12.915   1.240   0.485  1.00  0.00     0.048 A 
HETATM    4  N4  UNL     1      11.748   1.614  -0.095  1.00  0.00    -0.342 N 
ATOM      5  H4  UNL     1      11.518   1.209  -1.003  1.00  0.00     0.167 HD
HETATM    6  C15 UNL     1      10.875   2.479   0.445  1.00  0.00     0.105 A 
HETATM    7  C20 UNL     1      11.135   3.064   1.680  1.00  0.00     0.077 A 
ENDROOT
BRANCH   1   8
HETATM    8  N2  UNL     1      12.596   3.292   3.559  1.00  0.00    -0.389 N 
ATOM      9  H2  UNL     1      13.186   2.776   4.211  1.00  0.00     0.159 HD
BRANCH   8  10
HETATM   10  C6  UNL     1      12.089   4.589   3.953  1.00  0.00     0.124 C 
BRANCH  10  11
HETATM   11  C5  UNL     1      13.159   5.605   3.694  1.00  0.00     0.003 C 
HETATM   12  C4  UNL     1      14.504   4.978   3.471  1.00  0.00     0.008 C 
HETATM   13  C3  UNL     1      15.509   5.826   2.814  1.00  0.00     0.033 C 
HETATM   14  C2  UNL     1      15.188   7.248   2.586  1.00  0.00     0.185 C 
HETATM   15  C22 UNL     1      13.735   7.595   2.492  1.00  0.00     0.033 C 
HETATM   16  C21 UNL     1      12.857   6.351   2.384  1.00  0.00     0.008 C 
BRANCH  14  17
HETATM   17  N1  UNL     1      15.785   8.110   3.597  1.00  0.00    -0.075 N 
HETATM   18  C1  UNL     1      14.860   8.483   4.629  1.00  0.00     0.267 C 
ATOM     19  H12 UNL     1      16.208   8.934   3.170  1.00  0.00     0.277 HD
ATOM     20  H11 UNL     1      16.622   7.681   3.994  1.00  0.00     0.277 HD
ENDBRANCH  14  17
ENDBRANCH  10  11
ENDBRANCH   8  10
ENDBRANCH   1   8
BRANCH   3  21
HETATM   21  C10 UNL     1      13.758   0.267  -0.213  1.00  0.00     0.013 A 
HETATM   22  C11 UNL     1      15.074   0.568  -0.616  1.00  0.00     0.101 A 
HETATM   23  N3  UNL     1      15.607  -0.499  -1.203  1.00  0.00    -0.374 N 
HETATM   24  C12 UNL     1      14.696  -1.469  -1.195  1.00  0.00     0.095 A 
ATOM     25  H3  UNL     1      16.549  -0.563  -1.592  1.00  0.00     0.164 HD
HETATM   26  C13 UNL     1      13.524  -1.020  -0.580  1.00  0.00    -0.033 A 
HETATM   27  C14 UNL     1      12.299  -1.827  -0.371  1.00  0.00     0.050 C 
ENDBRANCH   3  21
BRANCH   6  28
HETATM   28  N5  UNL     1       9.668   2.834  -0.211  1.00  0.00    -0.365 N 
HETATM   29  C16 UNL     1       9.537   3.609  -1.413  1.00  0.00     0.126 C 
HETATM   30  C17 UNL     1       8.069   3.582  -1.781  1.00  0.00     0.054 C 
HETATM   31  C18 UNL     1       7.557   2.395  -1.025  1.00  0.00     0.203 C 
HETATM   32  C19 UNL     1       8.353   2.446   0.260  1.00  0.00     0.157 C 
BRANCH  31  33
HETATM   33  N6  UNL     1       7.934   1.194  -1.732  1.00  0.00    -0.073 N 
ATOM     34  H63 UNL     1       8.943   1.047  -1.738  1.00  0.00     0.274 HD
ATOM     35  H62 UNL     1       7.671   0.347  -1.228  1.00  0.00     0.274 HD
ATOM     36  H61 UNL     1       7.540   1.227  -2.672  1.00  0.00     0.274 HD
ENDBRANCH  31  33
ENDBRANCH   6  28
TORSDOF 7
ENDMDL
MODEL 5
REMARK VINA RESULT: -6.230231944      2.470      3.391
REMARK  7 active torsions:
REMARK  status: ('A' for Active; 'I' for Inactive)
REMARK    1  A    between atoms: N1_2  and  C2_5 
REMARK    2  A    between atoms: C5_8  and  C6_9 
REMARK    3  A    between atoms: C6_9  and  N2_10 
REMARK    4  A    between atoms: N2_10  and  C7_12 
REMARK    5  A    between atoms: C9_14  and  C10_15 
REMARK    6  A    between atoms: C15_24  and  N5_25 
REMARK    7  A    between atoms: C18_28  and  N6_29 
ROOT
HETATM    1  C7  UNL     1      10.344   4.649   1.797  1.00  0.00     0.033 A 
HETATM    2  C8  UNL     1      11.091   5.680   2.397  1.00  0.00     0.059 A 
HETATM    3  C9  UNL     1      12.426   5.555   2.617  1.00  0.00     0.048 A 
HETATM    4  N4  UNL     1      12.986   4.386   2.225  1.00  0.00    -0.342 N 
ATOM      5  H4  UNL     1      13.988   4.263   2.377  1.00  0.00     0.167 HD
HETATM    6  C15 UNL     1      12.313   3.377   1.649  1.00  0.00     0.105 A 
HETATM    7  C20 UNL     1      10.946   3.485   1.415  1.00  0.00     0.077 A 
ENDROOT
BRANCH   1   8
HETATM    8  N2  UNL     1       8.950   4.793   1.572  1.00  0.00    -0.389 N 
ATOM      9  H2  UNL     1       8.630   5.119   0.661  1.00  0.00     0.159 HD
BRANCH   8  10
HETATM   10  C6  UNL     1       7.967   4.492   2.590  1.00  0.00     0.124 C 
BRANCH  10  11
HETATM   11  C5  UNL     1       7.213   5.749   2.895  1.00  0.00     0.003 C 
HETATM   12  C4  UNL     1       7.589   6.337   4.224  1.00  0.00     0.008 C 
HETATM   13  C3  UNL     1       7.232   7.747   4.430  1.00  0.00     0.033 C 
HETATM   14  C2  UNL     1       6.399   8.416   3.413  1.00  0.00     0.185 C 
HETATM   15  C22 UNL     1       6.455   7.849   2.028  1.00  0.00     0.033 C 
HETATM   16  C21 UNL     1       7.586   6.836   1.873  1.00  0.00     0.008 C 
BRANCH  14  17
HETATM   17  N1  UNL     1       4.999   8.478   3.810  1.00  0.00    -0.075 N 
HETATM   18  C1  UNL     1       4.824   8.889   5.175  1.00  0.00     0.267 C 
ATOM     19  H12 UNL     1       4.531   7.589   3.634  1.00  0.00     0.277 HD
ATOM     20  H11 UNL     1       4.466   9.075   3.178  1.00  0.00     0.277 HD
ENDBRANCH  14  17
ENDBRANCH  10  11
ENDBRANCH   8  10
ENDBRANCH   1   8
BRANCH   3  21
HETATM   21  C10 UNL     1      13.283   6.558   3.253  1.00  0.00     0.013 A 
HETATM   22  C11 UNL     1      13.593   6.518   4.627  1.00  0.00     0.101 A 
HETATM   23  N3  UNL     1      14.401   7.531   4.924  1.00  0.00    -0.374 N 
HETATM   24  C12 UNL     1      14.625   8.218   3.805  1.00  0.00     0.095 A 
ATOM     25  H3  UNL     1      14.782   7.745   5.846  1.00  0.00     0.164 HD
HETATM   26  C13 UNL     1      13.938   7.633   2.739  1.00  0.00    -0.033 A 
HETATM   27  C14 UNL     1      13.962   8.109   1.336  1.00  0.00     0.050 C 
ENDBRANCH   3  21
BRANCH   6  28
HETATM   28  N5  UNL     1      12.954   2.173   1.258  1.00  0.00    -0.365 N 
HETATM   29  C16 UNL     1      12.572   1.306   0.180  1.00  0.00     0.126 C 
HETATM   30  C17 UNL     1      13.649   0.248   0.079  1.00  0.00     0.054 C 
HETATM   31  C18 UNL     1      14.803   0.877   0.797  1.00  0.00     0.203 C 
HETATM   32  C19 UNL     1      14.127   1.636   1.918  1.00  0.00     0.157 C 
BRANCH  31  33
HETATM   33  N6  UNL     1      15.426   1.841  -0.078  1.00  0.00    -0.073 N 
ATOM     34  H63 UNL     1      15.384   2.789   0.295  1.00  0.00     0.274 HD
ATOM     35  H62 UNL     1      16.441   1.744  -0.104  1.00  0.00     0.274 HD
ATOM     36  H61 UNL     1      15.003   1.768  -1.003  1.00  0.00     0.274 HD
ENDBRANCH  31  33
ENDBRANCH   6  28
TORSDOF 7
ENDMDL
