MODEL 1
REMARK VINA RESULT: -4.895890286      0.000      0.000
REMARK  2 active torsions:
REMARK  status: ('A' for Active; 'I' for Inactive)
REMARK    1  A    between atoms: N1_1  and  C1_5 
REMARK    2  A    between atoms: C1_5  and  C2_6 
ROOT
HETATM    1  C2  UNL     1      13.061   9.560  -3.039  1.00  0.00     0.011 C 
HETATM    2  C3  UNL     1      14.269   9.744  -3.903  1.00  0.00     0.006 C 
HETATM    3  C4  UNL     1      15.514  10.089  -3.118  1.00  0.00     0.000 C 
HETATM    4  C5  UNL     1      15.643   9.307  -1.849  1.00  0.00     0.000 C 
HETATM    5  C6  UNL     1      15.719  10.210  -0.675  1.00  0.00     0.000 C 
HETATM    6  C7  UNL     1      14.467  10.429   0.067  1.00  0.00     0.000 C 
HETATM    7  C8  UNL     1      13.209   9.993  -0.617  1.00  0.00     0.000 C 
HETATM    8  C9  UNL     1      12.985  10.613  -1.954  1.00  0.00     0.006 C 
ENDROOT
BRANCH   1   9
HETATM    9  C1  UNL     1      11.839   9.618  -3.956  1.00  0.00     0.234 C 
BRANCH   9  10
HETATM   10  N1  UNL     1      11.829   8.372  -4.696  1.00  0.00    -0.079 N 
ATOM     11  H13 UNL     1      12.331   7.618  -4.226  1.00  0.00     0.274 HD
ATOM     12  H12 UNL     1      10.915   7.920  -4.717  1.00  0.00     0.274 HD
ATOM     13  H11 UNL     1      12.197   8.589  -5.622  1.00  0.00     0.274 HD
ENDBRANCH   9  10
ENDBRANCH   1   9
TORSDOF 2
ENDMDL
MODEL 2
REMARK VINA RESULT: -4.880763274      1.596      2.685
REMARK  2 active torsions:
REMARK  status: ('A' for Active; 'I' for Inactive)
REMARK    1  A    between atoms: N1_1  and  C1_5 
REMARK    2  A    between atoms: C1_5  and  C2_6 
ROOT
HETATM    1  C2  UNL     1      14.355  10.032  -3.556  1.00  0.00     0.011 C 
HETATM    2  C3  UNL     1      12.894   9.889  -3.263  1.00  0.00     0.006 C 
HETATM    3  C4  UNL     1      12.570  10.007  -1.791  1.00  0.00     0.000 C 
HETATM    4  C5  UNL     1      13.344  11.086  -1.104  1.00  0.00     0.000 C 
HETATM    5  C6  UNL     1      14.143  10.535   0.018  1.00  0.00     0.000 C 
HETATM    6  C7  UNL     1      15.560  10.257  -0.259  1.00  0.00     0.000 C 
HETATM    7  C8  UNL     1      15.962  10.247  -1.700  1.00  0.00     0.000 C 
HETATM    8  C9  UNL     1      15.203   9.286  -2.548  1.00  0.00     0.006 C 
ENDROOT
BRANCH   1   9
HETATM    9  C1  UNL     1      14.583   9.505  -4.974  1.00  0.00     0.234 C 
BRANCH   9  10
HETATM   10  N1  UNL     1      15.999   9.652  -5.237  1.00  0.00    -0.079 N 
ATOM     11  H13 UNL     1      16.453  10.343  -4.639  1.00  0.00     0.274 HD
ATOM     12  H12 UNL     1      16.553   8.848  -4.940  1.00  0.00     0.274 HD
ATOM     13  H11 UNL     1      16.083   9.858  -6.232  1.00  0.00     0.274 HD
ENDBRANCH   9  10
ENDBRANCH   1   9
TORSDOF 2
ENDMDL
MODEL 3
REMARK VINA RESULT: -4.692697431      1.004      2.351
REMARK  2 active torsions:
REMARK  status: ('A' for Active; 'I' for Inactive)
REMARK    1  A    between atoms: N1_1  and  C1_5 
REMARK    2  A    between atoms: C1_5  and  C2_6 
ROOT
HETATM    1  C2  UNL     1      13.055   9.749  -3.683  1.00  0.00     0.011 C 
HETATM    2  C3  UNL     1      12.161   9.822  -2.485  1.00  0.00     0.006 C 
HETATM    3  C4  UNL     1      12.907  10.137  -1.207  1.00  0.00     0.000 C 
HETATM    4  C5  UNL     1      13.965  11.178  -1.387  1.00  0.00     0.000 C 
HETATM    5  C6  UNL     1      15.297  10.655  -0.995  1.00  0.00     0.000 C 
HETATM    6  C7  UNL     1      16.160  10.174  -2.085  1.00  0.00     0.000 C 
HETATM    7  C8  UNL     1      15.495   9.959  -3.408  1.00  0.00     0.000 C 
HETATM    8  C9  UNL     1      14.343   9.015  -3.376  1.00  0.00     0.006 C 
ENDROOT
BRANCH   1   9
HETATM    9  C1  UNL     1      12.265   9.047  -4.790  1.00  0.00     0.234 C 
BRANCH   9  10
HETATM   10  N1  UNL     1      11.029   9.788  -4.936  1.00  0.00    -0.079 N 
ATOM     11  H13 UNL     1      10.752  10.285  -4.089  1.00  0.00     0.274 HD
ATOM     12  H12 UNL     1      11.116  10.607  -5.538  1.00  0.00     0.274 HD
ATOM     13  H11 UNL     1      10.333   9.118  -5.260  1.00  0.00     0.274 HD
ENDBRANCH   9  10
ENDBRANCH   1   9
TORSDOF 2
ENDMDL
MODEL 4
REMARK VINA RESULT: -4.635274869      2.236      4.207
REMARK  2 active torsions:
REMARK  status: ('A' for Active; 'I' for Inactive)
REMARK    1  A    between atoms: N1_1  and  C1_5 
REMARK    2  A    between atoms: C1_5  and  C2_6 
ROOT
HETATM    1  C2  UNL     1      15.002   9.661  -1.634  1.00  0.00     0.011 C 
HETATM    2  C3  UNL     1      13.570   9.915  -1.278  1.00  0.00     0.006 C 
HETATM    3  C4  UNL     1      12.671  10.043  -2.487  1.00  0.00     0.000 C 
HETATM    4  C5  UNL     1      12.986   9.049  -3.560  1.00  0.00     0.000 C 
HETATM    5  C6  UNL     1      13.320   9.730  -4.834  1.00  0.00     0.000 C 
HETATM    6  C7  UNL     1      14.750   9.896  -5.135  1.00  0.00     0.000 C 
HETATM    7  C8  UNL     1      15.696   9.663  -3.998  1.00  0.00     0.000 C 
HETATM    8  C9  UNL     1      15.447  10.515  -2.802  1.00  0.00     0.006 C 
ENDROOT
BRANCH   1   9
HETATM    9  C1  UNL     1      15.834   9.952  -0.383  1.00  0.00     0.234 C 
BRANCH   9  10
HETATM   10  N1  UNL     1      15.282   9.125   0.670  1.00  0.00    -0.079 N 
ATOM     11  H13 UNL     1      14.349   9.414   0.966  1.00  0.00     0.274 HD
ATOM     12  H12 UNL     1      15.028   8.187   0.358  1.00  0.00     0.274 HD
ATOM     13  H11 UNL     1      15.967   9.131   1.424  1.00  0.00     0.274 HD
ENDBRANCH   9  10
ENDBRANCH   1   9
TORSDOF 2
ENDMDL
MODEL 5
REMARK VINA RESULT: -4.537825605      1.855      3.464
REMARK  2 active torsions:
REMARK  status: ('A' for Active; 'I' for Inactive)
REMARK    1  A    between atoms: N1_1  and  C1_5 
REMARK    2  A    between atoms: C1_5  and  C2_6 
ROOT
HETATM    1  C2  UNL     1      14.362  10.569  -0.857  1.00  0.00     0.011 C 
HETATM    2  C3  UNL     1      13.391   9.720  -0.098  1.00  0.00     0.006 C 
HETATM    3  C4  UNL     1      13.894   9.322   1.272  1.00  0.00     0.000 C 
HETATM    4  C5  UNL     1      14.596  10.434   1.984  1.00  0.00     0.000 C 
HETATM    5  C6  UNL     1      15.986  10.049   2.332  1.00  0.00     0.000 C 
HETATM    6  C7  UNL     1      17.043  10.512   1.420  1.00  0.00     0.000 C 
HETATM    7  C8  UNL     1      16.590  11.030   0.091  1.00  0.00     0.000 C 
HETATM    8  C9  UNL     1      15.782  10.065  -0.707  1.00  0.00     0.006 C 
ENDROOT
BRANCH   1   9
HETATM    9  C1  UNL     1      13.920  10.556  -2.322  1.00  0.00     0.234 C 
BRANCH   9  10
HETATM   10  N1  UNL     1      12.511  10.224  -2.315  1.00  0.00    -0.079 N 
ATOM     11  H13 UNL     1      11.927  10.925  -2.771  1.00  0.00     0.274 HD
ATOM     12  H12 UNL     1      12.274   9.445  -2.930  1.00  0.00     0.274 HD
ATOM     13  H11 UNL     1      12.262  10.061  -1.340  1.00  0.00     0.274 HD
ENDBRANCH   9  10
ENDBRANCH   1   9
TORSDOF 2
ENDMDL
