MODEL 1
REMARK VINA RESULT: -5.210126038      0.000      0.000
REMARK  3 active torsions:
REMARK  status: ('A' for Active; 'I' for Inactive)
REMARK    1  A    between atoms: N1_1  and  C1_4 
REMARK    2  A    between atoms: C1_4  and  C2_5 
REMARK    3  A    between atoms: C2_5  and  C3_6 
ROOT
HETATM    1  C3  UNL     1      14.446  10.040   9.067  1.00  0.00     0.003 C 
HETATM    2  C4  UNL     1      14.790   8.610   9.351  1.00  0.00     0.036 C 
HETATM    3  C5  UNL     1      15.477   7.895   8.259  1.00  0.00     0.272 C 
HETATM    4  N2  UNL     1      15.142   8.285   6.935  1.00  0.00     0.088 N 
HETATM    5  C6  UNL     1      15.643   9.552   6.523  1.00  0.00     0.272 C 
HETATM    6  C7  UNL     1      14.631  10.668   6.704  1.00  0.00     0.035 C 
HETATM    7  C8  UNL     1      13.675  10.220   7.787  1.00  0.00    -0.006 C 
HETATM    8  C9  UNL     1      12.882   9.010   7.390  1.00  0.00     0.035 C 
HETATM    9  C10 UNL     1      13.765   8.048   6.651  1.00  0.00     0.272 C 
ENDROOT
BRANCH   1  10
HETATM   10  C2  UNL     1      13.660  10.623  10.154  1.00  0.00     0.109 C 
BRANCH  10  11
HETATM   11  C1  UNL     1      12.950  11.704   9.867  1.00  0.00    -0.077 C 
BRANCH  11  12
HETATM   12  N1  UNL     1      12.168  12.705   9.802  1.00  0.00    -0.370 N 
ATOM     13  H12 UNL     1      12.650  13.116  10.602  1.00  0.00     0.165 HD
ATOM     14  H11 UNL     1      11.465  13.417   9.603  1.00  0.00     0.165 HD
ENDBRANCH  11  12
ENDBRANCH  10  11
ENDBRANCH   1  10
TORSDOF 3
ENDMDL
MODEL 2
REMARK VINA RESULT: -5.174960549      6.685      8.154
REMARK  3 active torsions:
REMARK  status: ('A' for Active; 'I' for Inactive)
REMARK    1  A    between atoms: N1_1  and  C1_4 
REMARK    2  A    between atoms: C1_4  and  C2_5 
REMARK    3  A    between atoms: C2_5  and  C3_6 
ROOT
HETATM    1  C3  UNL     1      13.715   9.999   0.888  1.00  0.00     0.003 C 
HETATM    2  C4  UNL     1      15.163  10.132   1.250  1.00  0.00     0.036 C 
HETATM    3  C5  UNL     1      15.991  10.877   0.283  1.00  0.00     0.272 C 
HETATM    4  N2  UNL     1      15.618  10.775  -1.083  1.00  0.00     0.088 N 
HETATM    5  C6  UNL     1      14.431  11.472  -1.449  1.00  0.00     0.272 C 
HETATM    6  C7  UNL     1      13.203  10.580  -1.439  1.00  0.00     0.035 C 
HETATM    7  C8  UNL     1      13.500   9.438  -0.493  1.00  0.00    -0.006 C 
HETATM    8  C9  UNL     1      14.629   8.573  -0.971  1.00  0.00     0.035 C 
HETATM    9  C10 UNL     1      15.711   9.433  -1.555  1.00  0.00     0.272 C 
ENDROOT
BRANCH   1  10
HETATM   10  C2  UNL     1      13.007   9.142   1.839  1.00  0.00     0.109 C 
BRANCH  10  11
HETATM   11  C1  UNL     1      13.363   9.236   3.112  1.00  0.00    -0.077 C 
BRANCH  11  12
HETATM   12  N1  UNL     1      13.477   9.287   4.377  1.00  0.00    -0.370 N 
ATOM     13  H12 UNL     1      12.706   9.955   4.405  1.00  0.00     0.165 HD
ATOM     14  H11 UNL     1      13.708   9.204   5.367  1.00  0.00     0.165 HD
ENDBRANCH  11  12
ENDBRANCH  10  11
ENDBRANCH   1  10
TORSDOF 3
ENDMDL
MODEL 3
REMARK VINA RESULT: -4.990684499      7.663      9.190
REMARK  3 active torsions:
REMARK  status: ('A' for Active; 'I' for Inactive)
REMARK    1  A    between atoms: N1_1  and  C1_4 
REMARK    2  A    between atoms: C1_4  and  C2_5 
REMARK    3  A    between atoms: C2_5  and  C3_6 
ROOT
HETATM    1  C3  UNL     1      16.610  10.430  -0.426  1.00  0.00     0.003 C 
HETATM    2  C4  UNL     1      15.906  10.639   0.880  1.00  0.00     0.036 C 
HETATM    3  C5  UNL     1      14.720   9.791   1.103  1.00  0.00     0.272 C 
HETATM    4  N2  UNL     1      13.968   9.436  -0.048  1.00  0.00     0.088 N 
HETATM    5  C6  UNL     1      14.580   8.484  -0.912  1.00  0.00     0.272 C 
HETATM    6  C7  UNL     1      15.326   9.132  -2.063  1.00  0.00     0.035 C 
HETATM    7  C8  UNL     1      15.692  10.530  -1.615  1.00  0.00    -0.006 C 
HETATM    8  C9  UNL     1      14.488  11.391  -1.371  1.00  0.00     0.035 C 
HETATM    9  C10 UNL     1      13.420  10.584  -0.692  1.00  0.00     0.272 C 
ENDROOT
BRANCH   1  10
HETATM   10  C2  UNL     1      17.691  11.399  -0.607  1.00  0.00     0.109 C 
BRANCH  10  11
HETATM   11  C1  UNL     1      18.008  12.147   0.440  1.00  0.00    -0.077 C 
BRANCH  11  12
HETATM   12  N1  UNL     1      18.471  12.962   1.299  1.00  0.00    -0.370 N 
ATOM     13  H12 UNL     1      18.969  13.446   0.552  1.00  0.00     0.165 HD
ATOM     14  H11 UNL     1      18.743  13.513   2.113  1.00  0.00     0.165 HD
ENDBRANCH  11  12
ENDBRANCH  10  11
ENDBRANCH   1  10
TORSDOF 3
ENDMDL
MODEL 4
REMARK VINA RESULT: -4.822680794      7.973      9.206
REMARK  3 active torsions:
REMARK  status: ('A' for Active; 'I' for Inactive)
REMARK    1  A    between atoms: N1_1  and  C1_4 
REMARK    2  A    between atoms: C1_4  and  C2_5 
REMARK    3  A    between atoms: C2_5  and  C3_6 
ROOT
HETATM    1  C3  UNL     1      15.869  10.896   0.045  1.00  0.00     0.003 C 
HETATM    2  C4  UNL     1      16.690  10.473  -1.134  1.00  0.00     0.036 C 
HETATM    3  C5  UNL     1      15.954  10.344  -2.406  1.00  0.00     0.272 C 
HETATM    4  N2  UNL     1      14.597   9.934  -2.315  1.00  0.00     0.088 N 
HETATM    5  C6  UNL     1      13.694  10.909  -1.803  1.00  0.00     0.272 C 
HETATM    6  C7  UNL     1      13.447  10.752  -0.314  1.00  0.00     0.035 C 
HETATM    7  C8  UNL     1      14.651  10.036   0.256  1.00  0.00    -0.006 C 
HETATM    8  C9  UNL     1      14.800   8.643  -0.281  1.00  0.00     0.035 C 
HETATM    9  C10 UNL     1      14.479   8.632  -1.747  1.00  0.00     0.272 C 
ENDROOT
BRANCH   1  10
HETATM   10  C2  UNL     1      16.656  10.872   1.277  1.00  0.00     0.109 C 
BRANCH  10  11
HETATM   11  C1  UNL     1      17.549  11.839   1.437  1.00  0.00    -0.077 C 
BRANCH  11  12
HETATM   12  N1  UNL     1      18.383  12.795   1.358  1.00  0.00    -0.370 N 
ATOM     13  H12 UNL     1      18.390  12.854   2.377  1.00  0.00     0.165 HD
ATOM     14  H11 UNL     1      19.037  13.537   1.109  1.00  0.00     0.165 HD
ENDBRANCH  11  12
ENDBRANCH  10  11
ENDBRANCH   1  10
TORSDOF 3
ENDMDL
MODEL 5
REMARK VINA RESULT: -4.791459675      1.008      2.273
REMARK  3 active torsions:
REMARK  status: ('A' for Active; 'I' for Inactive)
REMARK    1  A    between atoms: N1_1  and  C1_4 
REMARK    2  A    between atoms: C1_4  and  C2_5 
REMARK    3  A    between atoms: C2_5  and  C3_6 
ROOT
HETATM    1  C3  UNL     1      13.420   9.722   8.255  1.00  0.00     0.003 C 
HETATM    2  C4  UNL     1      14.090  10.850   7.532  1.00  0.00     0.036 C 
HETATM    3  C5  UNL     1      14.489  10.564   6.141  1.00  0.00     0.272 C 
HETATM    4  N2  UNL     1      14.866   9.226   5.852  1.00  0.00     0.088 N 
HETATM    5  C6  UNL     1      13.801   8.281   5.821  1.00  0.00     0.272 C 
HETATM    6  C7  UNL     1      13.631   7.548   7.139  1.00  0.00     0.035 C 
HETATM    7  C8  UNL     1      14.211   8.441   8.213  1.00  0.00    -0.006 C 
HETATM    8  C9  UNL     1      15.687   8.653   8.051  1.00  0.00     0.035 C 
HETATM    9  C10 UNL     1      16.014   8.830   6.598  1.00  0.00     0.272 C 
ENDROOT
BRANCH   1  10
HETATM   10  C2  UNL     1      13.178  10.058   9.657  1.00  0.00     0.109 C 
BRANCH  10  11
HETATM   11  C1  UNL     1      13.311  11.332  10.000  1.00  0.00    -0.077 C 
BRANCH  11  12
HETATM   12  N1  UNL     1      13.204  12.552  10.340  1.00  0.00    -0.370 N 
ATOM     13  H12 UNL     1      14.213  12.585  10.488  1.00  0.00     0.165 HD
ATOM     14  H11 UNL     1      12.933  13.506  10.580  1.00  0.00     0.165 HD
ENDBRANCH  11  12
ENDBRANCH  10  11
ENDBRANCH   1  10
TORSDOF 3
ENDMDL
