MODEL 1
REMARK VINA RESULT: -7.484543542      0.000      0.000
REMARK  4 active torsions:
REMARK  status: ('A' for Active; 'I' for Inactive)
REMARK    1  A    between atoms: N1_1  and  C1_4 
REMARK    2  A    between atoms: C2_7  and  N3_8 
REMARK    3  A    between atoms: C3_14  and  N6_15 
REMARK    4  A    between atoms: C7_22  and  N8_23 
ROOT
HETATM    1  C1  UNL     1      15.046  10.151  -4.599  1.00  0.00     0.159 A 
HETATM    2  N2  UNL     1      13.749   9.848  -4.492  1.00  0.00    -0.169 N 
ATOM      3  H2  UNL     1      13.246   9.732  -5.372  1.00  0.00     0.186 HD
HETATM    4  C2  UNL     1      13.032   9.680  -3.393  1.00  0.00     0.700 A 
HETATM    5  N4  UNL     1      13.456   9.778  -2.120  1.00  0.00    -0.075 N 
HETATM    6  N5  UNL     1      12.775   9.618  -0.958  1.00  0.00    -0.261 N 
ATOM      7  H5  UNL     1      11.783   9.386  -0.891  1.00  0.00     0.190 HD
HETATM    8  C3  UNL     1      13.589   9.808   0.089  1.00  0.00     0.157 A 
HETATM    9  C7  UNL     1      14.840  10.100  -0.387  1.00  0.00     0.184 A 
HETATM   10  C8  UNL     1      14.714  10.072  -1.781  1.00  0.00     0.155 A 
HETATM   11  S1  UNL     1      15.805  10.327  -3.075  1.00  0.00    -0.031 SA
ENDROOT
BRANCH   8  12
HETATM   12  N6  UNL     1      13.255   9.730   1.458  1.00  0.00    -0.339 N 
HETATM   13  C4  UNL     1      12.988   8.594   2.299  1.00  0.00     0.154 C 
HETATM   14  C5  UNL     1      13.383   9.073   3.667  1.00  0.00     0.254 C 
HETATM   15  N7  UNL     1      13.753  10.468   3.529  1.00  0.00    -0.058 N 
HETATM   16  C6  UNL     1      13.117  10.905   2.291  1.00  0.00     0.358 C 
ATOM     17  H72 UNL     1      13.518  11.041   4.339  1.00  0.00     0.279 HD
ATOM     18  H71 UNL     1      14.760  10.633   3.557  1.00  0.00     0.279 HD
ENDBRANCH   8  12
BRANCH   9  19
HETATM   19  N8  UNL     1      16.053  10.383   0.258  1.00  0.00    -0.109 N 
HETATM   20  O1  UNL     1      16.432   9.579   1.150  1.00  0.00    -0.532 OA
HETATM   21  O2  UNL     1      16.864  11.448   0.013  1.00  0.00    -0.532 OA
ENDBRANCH   9  19
BRANCH   4  22
HETATM   22  N3  UNL     1      11.754   9.382  -3.522  1.00  0.00    -0.233 N 
ATOM     23  H32 UNL     1      11.553   8.683  -4.238  1.00  0.00     0.174 HD
ATOM     24  H31 UNL     1      11.084   9.858  -2.917  1.00  0.00     0.174 HD
ENDBRANCH   4  22
BRANCH   1  25
HETATM   25  N1  UNL     1      15.585  10.279  -5.747  1.00  0.00    -0.379 N 
ATOM     26  H12 UNL     1      15.818  11.149  -6.225  1.00  0.00     0.158 HD
ATOM     27  H11 UNL     1      15.833   9.455  -6.294  1.00  0.00     0.158 HD
ENDBRANCH   1  25
TORSDOF 4
ENDMDL
MODEL 2
REMARK VINA RESULT: -7.391515199      2.965      5.944
REMARK  4 active torsions:
REMARK  status: ('A' for Active; 'I' for Inactive)
REMARK    1  A    between atoms: N1_1  and  C1_4 
REMARK    2  A    between atoms: C2_7  and  N3_8 
REMARK    3  A    between atoms: C3_14  and  N6_15 
REMARK    4  A    between atoms: C7_22  and  N8_23 
ROOT
HETATM    1  C1  UNL     1      18.354  10.489   3.242  1.00  0.00     0.159 A 
HETATM    2  N2  UNL     1      18.840  11.254   2.259  1.00  0.00    -0.169 N 
ATOM      3  H2  UNL     1      19.729  11.716   2.454  1.00  0.00     0.186 HD
HETATM    4  C2  UNL     1      18.318  11.491   1.067  1.00  0.00     0.700 A 
HETATM    5  N4  UNL     1      17.165  11.006   0.572  1.00  0.00    -0.075 N 
HETATM    6  N5  UNL     1      16.579  11.209  -0.635  1.00  0.00    -0.261 N 
ATOM      7  H5  UNL     1      16.961  11.796  -1.377  1.00  0.00     0.190 HD
HETATM    8  C3  UNL     1      15.427  10.530  -0.713  1.00  0.00     0.157 A 
HETATM    9  C7  UNL     1      15.242   9.859   0.467  1.00  0.00     0.184 A 
HETATM   10  C8  UNL     1      16.357  10.185   1.249  1.00  0.00     0.155 A 
HETATM   11  S1  UNL     1      16.864   9.758   2.826  1.00  0.00    -0.031 SA
ENDROOT
BRANCH   8  12
HETATM   12  N6  UNL     1      14.532  10.487  -1.803  1.00  0.00    -0.339 N 
HETATM   13  C4  UNL     1      14.732  10.096  -3.172  1.00  0.00     0.154 C 
HETATM   14  C5  UNL     1      13.375   9.617  -3.601  1.00  0.00     0.254 C 
HETATM   15  N7  UNL     1      12.478   9.856  -2.487  1.00  0.00    -0.058 N 
HETATM   16  C6  UNL     1      13.143  10.875  -1.682  1.00  0.00     0.358 C 
ATOM     17  H72 UNL     1      11.528  10.104  -2.765  1.00  0.00     0.279 HD
ATOM     18  H71 UNL     1      12.231   9.014  -1.966  1.00  0.00     0.279 HD
ENDBRANCH   8  12
BRANCH   9  19
HETATM   19  N8  UNL     1      14.222   9.011   0.921  1.00  0.00    -0.109 N 
HETATM   20  O1  UNL     1      13.363   9.508   1.697  1.00  0.00    -0.532 OA
HETATM   21  O2  UNL     1      14.068   7.696   0.603  1.00  0.00    -0.532 OA
ENDBRANCH   9  19
BRANCH   4  22
HETATM   22  N3  UNL     1      18.975  12.286   0.246  1.00  0.00    -0.233 N 
ATOM     23  H32 UNL     1      19.990  12.240   0.333  1.00  0.00     0.174 HD
ATOM     24  H31 UNL     1      18.435  12.869  -0.395  1.00  0.00     0.174 HD
ENDBRANCH   4  22
BRANCH   1  25
HETATM   25  N1  UNL     1      18.991  10.369   4.339  1.00  0.00    -0.379 N 
ATOM     26  H12 UNL     1      19.875   9.882   4.489  1.00  0.00     0.158 HD
ATOM     27  H11 UNL     1      18.626  10.786   5.195  1.00  0.00     0.158 HD
ENDBRANCH   1  25
TORSDOF 4
ENDMDL
MODEL 3
REMARK VINA RESULT: -7.385095775      3.800      5.922
REMARK  4 active torsions:
REMARK  status: ('A' for Active; 'I' for Inactive)
REMARK    1  A    between atoms: N1_1  and  C1_4 
REMARK    2  A    between atoms: C2_7  and  N3_8 
REMARK    3  A    between atoms: C3_14  and  N6_15 
REMARK    4  A    between atoms: C7_22  and  N8_23 
ROOT
HETATM    1  C1  UNL     1      12.754   9.358   2.542  1.00  0.00     0.159 A 
HETATM    2  N2  UNL     1      13.298   8.663   1.538  1.00  0.00    -0.169 N 
ATOM      3  H2  UNL     1      12.689   7.977   1.091  1.00  0.00     0.186 HD
HETATM    4  C2  UNL     1      14.524   8.750   1.048  1.00  0.00     0.700 A 
HETATM    5  N4  UNL     1      15.509   9.568   1.458  1.00  0.00    -0.075 N 
HETATM    6  N5  UNL     1      16.779   9.704   1.000  1.00  0.00    -0.261 N 
ATOM      7  H5  UNL     1      17.182   9.167   0.232  1.00  0.00     0.190 HD
HETATM    8  C3  UNL     1      17.429  10.644   1.701  1.00  0.00     0.157 A 
HETATM    9  C7  UNL     1      16.572  11.145   2.645  1.00  0.00     0.184 A 
HETATM   10  C8  UNL     1      15.376  10.442   2.460  1.00  0.00     0.155 A 
HETATM   11  S1  UNL     1      13.847  10.481   3.229  1.00  0.00    -0.031 SA
ENDROOT
BRANCH   8  12
HETATM   12  N6  UNL     1      18.762  11.072   1.527  1.00  0.00    -0.339 N 
HETATM   13  C4  UNL     1      19.991  10.574   2.084  1.00  0.00     0.154 C 
HETATM   14  C5  UNL     1      21.017  10.938   1.049  1.00  0.00     0.254 C 
HETATM   15  N7  UNL     1      20.324  11.697   0.026  1.00  0.00    -0.058 N 
HETATM   16  C6  UNL     1      19.114  12.189   0.677  1.00  0.00     0.358 C 
ATOM     17  H72 UNL     1      20.890  12.430  -0.401  1.00  0.00     0.279 HD
ATOM     18  H71 UNL     1      20.148  11.172  -0.831  1.00  0.00     0.279 HD
ENDBRANCH   8  12
BRANCH   9  19
HETATM   19  N8  UNL     1      16.726  12.131   3.631  1.00  0.00    -0.109 N 
HETATM   20  O1  UNL     1      17.569  11.908   4.541  1.00  0.00    -0.532 OA
HETATM   21  O2  UNL     1      16.050  13.310   3.701  1.00  0.00    -0.532 OA
ENDBRANCH   9  19
BRANCH   4  22
HETATM   22  N3  UNL     1      14.851   7.959   0.045  1.00  0.00    -0.233 N 
ATOM     23  H32 UNL     1      14.104   7.804  -0.632  1.00  0.00     0.174 HD
ATOM     24  H31 UNL     1      15.797   7.576   0.021  1.00  0.00     0.174 HD
ENDBRANCH   4  22
BRANCH   1  25
HETATM   25  N1  UNL     1      11.546   9.147   2.891  1.00  0.00    -0.379 N 
ATOM     26  H12 UNL     1      10.725   9.125   2.286  1.00  0.00     0.158 HD
ATOM     27  H11 UNL     1      11.315   8.976   3.869  1.00  0.00     0.158 HD
ENDBRANCH   1  25
TORSDOF 4
ENDMDL
MODEL 4
REMARK VINA RESULT: -7.213853833      2.327      3.478
REMARK  4 active torsions:
REMARK  status: ('A' for Active; 'I' for Inactive)
REMARK    1  A    between atoms: N1_1  and  C1_4 
REMARK    2  A    between atoms: C2_7  and  N3_8 
REMARK    3  A    between atoms: C3_14  and  N6_15 
REMARK    4  A    between atoms: C7_22  and  N8_23 
ROOT
HETATM    1  C1  UNL     1      12.359   9.524  -4.190  1.00  0.00     0.159 A 
HETATM    2  N2  UNL     1      13.527   9.831  -4.763  1.00  0.00    -0.169 N 
ATOM      3  H2  UNL     1      13.536   9.827  -5.783  1.00  0.00     0.186 HD
HETATM    4  C2  UNL     1      14.673  10.139  -4.178  1.00  0.00     0.700 A 
HETATM    5  N4  UNL     1      14.920  10.213  -2.858  1.00  0.00    -0.075 N 
HETATM    6  N5  UNL     1      16.066  10.522  -2.201  1.00  0.00    -0.261 N 
ATOM      7  H5  UNL     1      16.951  10.754  -2.650  1.00  0.00     0.190 HD
HETATM    8  C3  UNL     1      15.868  10.478  -0.875  1.00  0.00     0.157 A 
HETATM    9  C7  UNL     1      14.562  10.132  -0.647  1.00  0.00     0.184 A 
HETATM   10  C8  UNL     1      14.000   9.974  -1.919  1.00  0.00     0.155 A 
HETATM   11  S1  UNL     1      12.439   9.556  -2.481  1.00  0.00    -0.031 SA
ENDROOT
BRANCH   8  12
HETATM   12  N6  UNL     1      16.814  10.735   0.139  1.00  0.00    -0.339 N 
HETATM   13  C4  UNL     1      17.867  11.711   0.220  1.00  0.00     0.154 C 
HETATM   14  C5  UNL     1      18.022  11.936   1.697  1.00  0.00     0.254 C 
HETATM   15  N7  UNL     1      17.122  11.009   2.356  1.00  0.00    -0.058 N 
HETATM   16  C6  UNL     1      16.863   9.969   1.366  1.00  0.00     0.358 C 
ATOM     17  H72 UNL     1      17.471  10.655   3.246  1.00  0.00     0.279 HD
ATOM     18  H71 UNL     1      16.278  11.446   2.727  1.00  0.00     0.279 HD
ENDBRANCH   8  12
BRANCH   9  19
HETATM   19  N8  UNL     1      13.829   9.945   0.533  1.00  0.00    -0.109 N 
HETATM   20  O1  UNL     1      13.396   8.784   0.764  1.00  0.00    -0.532 OA
HETATM   21  O2  UNL     1      13.536  10.899   1.458  1.00  0.00    -0.532 OA
ENDBRANCH   9  19
BRANCH   4  22
HETATM   22  N3  UNL     1      15.711  10.409  -4.945  1.00  0.00    -0.233 N 
ATOM     23  H32 UNL     1      15.476  10.629  -5.913  1.00  0.00     0.174 HD
ATOM     24  H31 UNL     1      16.641  10.379  -4.527  1.00  0.00     0.174 HD
ENDBRANCH   4  22
BRANCH   1  25
HETATM   25  N1  UNL     1      11.342   9.249  -4.909  1.00  0.00    -0.379 N 
ATOM     26  H12 UNL     1      10.866   8.349  -4.985  1.00  0.00     0.158 HD
ATOM     27  H11 UNL     1      10.916   9.966  -5.494  1.00  0.00     0.158 HD
ENDBRANCH   1  25
TORSDOF 4
ENDMDL
MODEL 5
REMARK VINA RESULT: -7.169210284      2.982      6.171
REMARK  4 active torsions:
REMARK  status: ('A' for Active; 'I' for Inactive)
REMARK    1  A    between atoms: N1_1  and  C1_4 
REMARK    2  A    between atoms: C2_7  and  N3_8 
REMARK    3  A    between atoms: C3_14  and  N6_15 
REMARK    4  A    between atoms: C7_22  and  N8_23 
ROOT
HETATM    1  C1  UNL     1      17.511   9.849   4.159  1.00  0.00     0.159 A 
HETATM    2  N2  UNL     1      18.112  10.758   3.383  1.00  0.00    -0.169 N 
ATOM      3  H2  UNL     1      18.920  11.226   3.792  1.00  0.00     0.186 HD
HETATM    4  C2  UNL     1      17.794  11.127   2.153  1.00  0.00     0.700 A 
HETATM    5  N4  UNL     1      16.780  10.665   1.400  1.00  0.00    -0.075 N 
HETATM    6  N5  UNL     1      16.405  11.001   0.140  1.00  0.00    -0.261 N 
ATOM      7  H5  UNL     1      16.873  11.697  -0.441  1.00  0.00     0.190 HD
HETATM    8  C3  UNL     1      15.331  10.290  -0.231  1.00  0.00     0.157 A 
HETATM    9  C7  UNL     1      14.985   9.462   0.805  1.00  0.00     0.184 A 
HETATM   10  C8  UNL     1      15.921   9.729   1.811  1.00  0.00     0.155 A 
HETATM   11  S1  UNL     1      16.169   9.118   3.390  1.00  0.00    -0.031 SA
ENDROOT
BRANCH   8  12
HETATM   12  N6  UNL     1      14.647  10.354  -1.463  1.00  0.00    -0.339 N 
HETATM   13  C4  UNL     1      15.042   9.943  -2.783  1.00  0.00     0.154 C 
HETATM   14  C5  UNL     1      13.738   9.628  -3.457  1.00  0.00     0.254 C 
HETATM   15  N7  UNL     1      12.690   9.971  -2.515  1.00  0.00    -0.058 N 
HETATM   16  C6  UNL     1      13.313  10.904  -1.582  1.00  0.00     0.358 C 
ATOM     17  H72 UNL     1      11.841  10.330  -2.952  1.00  0.00     0.279 HD
ATOM     18  H71 UNL     1      12.257   9.164  -2.065  1.00  0.00     0.279 HD
ENDBRANCH   8  12
BRANCH   9  19
HETATM   19  N8  UNL     1      13.958   8.519   0.956  1.00  0.00    -0.109 N 
HETATM   20  O1  UNL     1      14.215   7.330   0.628  1.00  0.00    -0.532 OA
HETATM   21  O2  UNL     1      12.704   8.765   1.424  1.00  0.00    -0.532 OA
ENDBRANCH   9  19
BRANCH   4  22
HETATM   22  N3  UNL     1      18.532  12.052   1.570  1.00  0.00    -0.233 N 
ATOM     23  H32 UNL     1      19.495  12.095   1.902  1.00  0.00     0.174 HD
ATOM     24  H31 UNL     1      18.098  12.635   0.854  1.00  0.00     0.174 HD
ENDBRANCH   4  22
BRANCH   1  25
HETATM   25  N1  UNL     1      17.951   9.613   5.331  1.00  0.00    -0.379 N 
ATOM     26  H12 UNL     1      17.699   8.832   5.938  1.00  0.00     0.158 HD
ATOM     27  H11 UNL     1      18.631  10.238   5.762  1.00  0.00     0.158 HD
ENDBRANCH   1  25
TORSDOF 4
ENDMDL
