MODEL 1
REMARK VINA RESULT: -7.552812188      0.000      0.000
REMARK  10 active torsions:
REMARK  status: ('A' for Active; 'I' for Inactive)
REMARK    1  A    between atoms: C2_2  and  O1_3 
REMARK    2  A    between atoms: O1_3  and  C3_4 
REMARK    3  A    between atoms: C4_5  and  O2_6 
REMARK    4  A    between atoms: C6_8  and  O3_9 
REMARK    5  A    between atoms: C7_11  and  O4_12 
REMARK    6  A    between atoms: C10_17  and  O5_18 
REMARK    7  A    between atoms: C10_17  and  C11_20 
REMARK    8  A    between atoms: C11_20  and  O6_21 
REMARK    9  A    between atoms: O6_21  and  C12_22 
REMARK   10  A    between atoms: C12_22  and  C13_24 
ROOT
HETATM    1  C3  UNL     1      15.405  10.494   0.445  1.00  0.00     0.122 A 
HETATM    2  C4  UNL     1      14.505  10.188   1.430  1.00  0.00     0.139 A 
HETATM    3  C6  UNL     1      14.681  10.717   2.678  1.00  0.00     0.136 A 
HETATM    4  C7  UNL     1      15.762  11.575   2.990  1.00  0.00     0.117 A 
HETATM    5  C8  UNL     1      16.688  11.895   1.992  1.00  0.00     0.074 A 
HETATM    6  C9  UNL     1      16.464  11.332   0.746  1.00  0.00     0.057 A 
HETATM    7  S1  UNL     1      17.592  11.670  -0.635  1.00  0.00    -0.077 SA
HETATM    8  C10 UNL     1      19.190  12.176   0.223  1.00  0.00     0.202 C 
HETATM    9  C16 UNL     1      18.782  13.114   1.257  1.00  0.00     0.247 C 
HETATM   10  O8  UNL     1      19.304  14.282   1.248  1.00  0.00    -0.284 OA
HETATM   11  C17 UNL     1      17.809  12.773   2.287  1.00  0.00     0.236 C 
HETATM   12  O9  UNL     1      17.971  13.269   3.458  1.00  0.00    -0.283 OA
ENDROOT
BRANCH   8  13
HETATM   13  O5  UNL     1      19.889  12.780  -0.836  1.00  0.00    -0.370 OA
ATOM     14  H5  UNL     1      20.396  13.436  -0.372  1.00  0.00     0.212 HD
ENDBRANCH   8  13
BRANCH   8  15
HETATM   15  C11 UNL     1      19.799  10.879   0.630  1.00  0.00     0.237 C 
BRANCH  15  16
HETATM   16  O6  UNL     1      20.504  10.153  -0.291  1.00  0.00    -0.317 OA
BRANCH  16  17
HETATM   17  C12 UNL     1      21.797   9.803  -0.363  1.00  0.00     0.262 C 
HETATM   18  O7  UNL     1      22.688  10.668  -0.285  1.00  0.00    -0.265 OA
BRANCH  17  19
HETATM   19  C13 UNL     1      22.267   8.383  -0.536  1.00  0.00     0.077 C 
HETATM   20  C14 UNL     1      23.067   8.348  -1.820  1.00  0.00     0.020 C 
HETATM   21  C15 UNL     1      23.067   7.959   0.665  1.00  0.00     0.020 C 
ENDBRANCH  17  19
ENDBRANCH  16  17
ENDBRANCH  15  16
ENDBRANCH   8  15
BRANCH   1  22
HETATM   22  O1  UNL     1      15.257   9.969  -0.846  1.00  0.00    -0.347 OA
BRANCH  22  23
HETATM   23  C2  UNL     1      14.333  10.426  -1.778  1.00  0.00     0.171 C 
HETATM   24  C1  UNL     1      14.831  10.541  -3.177  1.00  0.00     0.034 C 
ENDBRANCH  22  23
ENDBRANCH   1  22
BRANCH   2  25
HETATM   25  O2  UNL     1      13.433   9.352   1.162  1.00  0.00    -0.351 OA
HETATM   26  C5  UNL     1      13.533   7.950   1.272  1.00  0.00     0.210 C 
ENDBRANCH   2  25
BRANCH   4  27
HETATM   27  O4  UNL     1      15.800  12.015   4.260  1.00  0.00    -0.357 OA
ATOM     28  H4  UNL     1      16.309  12.805   4.402  1.00  0.00     0.217 HD
ENDBRANCH   4  27
BRANCH   3  29
HETATM   29  O3  UNL     1      13.749  10.386   3.655  1.00  0.00    -0.356 OA
ATOM     30  H3  UNL     1      13.945  10.633   4.551  1.00  0.00     0.218 HD
ENDBRANCH   3  29
TORSDOF 10
ENDMDL
MODEL 2
REMARK VINA RESULT: -7.210546271      0.796      1.077
REMARK  10 active torsions:
REMARK  status: ('A' for Active; 'I' for Inactive)
REMARK    1  A    between atoms: C2_2  and  O1_3 
REMARK    2  A    between atoms: O1_3  and  C3_4 
REMARK    3  A    between atoms: C4_5  and  O2_6 
REMARK    4  A    between atoms: C6_8  and  O3_9 
REMARK    5  A    between atoms: C7_11  and  O4_12 
REMARK    6  A    between atoms: C10_17  and  O5_18 
REMARK    7  A    between atoms: C10_17  and  C11_20 
REMARK    8  A    between atoms: C11_20  and  O6_21 
REMARK    9  A    between atoms: O6_21  and  C12_22 
REMARK   10  A    between atoms: C12_22  and  C13_24 
ROOT
HETATM    1  C3  UNL     1      15.018  10.565   0.573  1.00  0.00     0.122 A 
HETATM    2  C4  UNL     1      14.197  10.369   1.651  1.00  0.00     0.139 A 
HETATM    3  C6  UNL     1      14.565  10.874   2.866  1.00  0.00     0.136 A 
HETATM    4  C7  UNL     1      15.766  11.598   3.052  1.00  0.00     0.117 A 
HETATM    5  C8  UNL     1      16.613  11.805   1.958  1.00  0.00     0.074 A 
HETATM    6  C9  UNL     1      16.194  11.273   0.750  1.00  0.00     0.057 A 
HETATM    7  S1  UNL     1      17.201  11.474  -0.746  1.00  0.00    -0.077 SA
HETATM    8  C10 UNL     1      18.929  11.788  -0.068  1.00  0.00     0.202 C 
HETATM    9  C16 UNL     1      18.746  12.767   0.992  1.00  0.00     0.247 C 
HETATM   10  O8  UNL     1      19.398  13.866   0.913  1.00  0.00    -0.284 OA
HETATM   11  C17 UNL     1      17.855  12.544   2.123  1.00  0.00     0.236 C 
HETATM   12  O9  UNL     1      18.196  13.019   3.263  1.00  0.00    -0.283 OA
ENDROOT
BRANCH   8  13
HETATM   13  O5  UNL     1      19.579  12.304  -1.202  1.00  0.00    -0.370 OA
ATOM     14  H5  UNL     1      18.851  12.696  -1.669  1.00  0.00     0.212 HD
ENDBRANCH   8  13
BRANCH   8  15
HETATM   15  C11 UNL     1      19.421  10.427   0.291  1.00  0.00     0.237 C 
BRANCH  15  16
HETATM   16  O6  UNL     1      20.635  10.009  -0.183  1.00  0.00    -0.317 OA
BRANCH  16  17
HETATM   17  C12 UNL     1      21.891  10.273   0.203  1.00  0.00     0.262 C 
HETATM   18  O7  UNL     1      22.388  11.396   0.002  1.00  0.00    -0.265 OA
BRANCH  17  19
HETATM   19  C13 UNL     1      22.780   9.270   0.889  1.00  0.00     0.077 C 
HETATM   20  C14 UNL     1      22.736   9.595   2.367  1.00  0.00     0.020 C 
HETATM   21  C15 UNL     1      22.310   7.875   0.581  1.00  0.00     0.020 C 
ENDBRANCH  17  19
ENDBRANCH  16  17
ENDBRANCH  15  16
ENDBRANCH   8  15
BRANCH   1  22
HETATM   22  O1  UNL     1      14.673  10.061  -0.688  1.00  0.00    -0.347 OA
BRANCH  22  23
HETATM   23  C2  UNL     1      13.774  10.667  -1.557  1.00  0.00     0.171 C 
HETATM   24  C1  UNL     1      13.445   9.893  -2.787  1.00  0.00     0.034 C 
ENDBRANCH  22  23
ENDBRANCH   1  22
BRANCH   2  25
HETATM   25  O2  UNL     1      13.012   9.665   1.508  1.00  0.00    -0.351 OA
HETATM   26  C5  UNL     1      12.949   8.267   1.671  1.00  0.00     0.210 C 
ENDBRANCH   2  25
BRANCH   4  27
HETATM   27  O4  UNL     1      15.990  12.032   4.305  1.00  0.00    -0.357 OA
ATOM     28  H4  UNL     1      15.211  12.201   4.822  1.00  0.00     0.217 HD
ENDBRANCH   4  27
BRANCH   3  29
HETATM   29  O3  UNL     1      13.709  10.657   3.940  1.00  0.00    -0.356 OA
ATOM     30  H3  UNL     1      14.059  10.784   4.814  1.00  0.00     0.218 HD
ENDBRANCH   3  29
TORSDOF 10
ENDMDL
MODEL 3
REMARK VINA RESULT: -7.149890159      1.068      1.620
REMARK  10 active torsions:
REMARK  status: ('A' for Active; 'I' for Inactive)
REMARK    1  A    between atoms: C2_2  and  O1_3 
REMARK    2  A    between atoms: O1_3  and  C3_4 
REMARK    3  A    between atoms: C4_5  and  O2_6 
REMARK    4  A    between atoms: C6_8  and  O3_9 
REMARK    5  A    between atoms: C7_11  and  O4_12 
REMARK    6  A    between atoms: C10_17  and  O5_18 
REMARK    7  A    between atoms: C10_17  and  C11_20 
REMARK    8  A    between atoms: C11_20  and  O6_21 
REMARK    9  A    between atoms: O6_21  and  C12_22 
REMARK   10  A    between atoms: C12_22  and  C13_24 
ROOT
HETATM    1  C3  UNL     1      15.319  10.509   1.482  1.00  0.00     0.122 A 
HETATM    2  C4  UNL     1      14.861  10.685   2.761  1.00  0.00     0.139 A 
HETATM    3  C6  UNL     1      15.489  11.586   3.573  1.00  0.00     0.136 A 
HETATM    4  C7  UNL     1      16.599  12.349   3.141  1.00  0.00     0.117 A 
HETATM    5  C8  UNL     1      17.076  12.178   1.837  1.00  0.00     0.074 A 
HETATM    6  C9  UNL     1      16.405  11.253   1.055  1.00  0.00     0.057 A 
HETATM    7  S1  UNL     1      16.923  10.941  -0.655  1.00  0.00    -0.077 SA
HETATM    8  C10 UNL     1      18.721  11.498  -0.673  1.00  0.00     0.202 C 
HETATM    9  C16 UNL     1      18.725  12.781   0.012  1.00  0.00     0.247 C 
HETATM   10  O8  UNL     1      19.192  13.795  -0.614  1.00  0.00    -0.284 OA
HETATM   11  C17 UNL     1      18.217  12.949   1.368  1.00  0.00     0.236 C 
HETATM   12  O9  UNL     1      18.803  13.795   2.131  1.00  0.00    -0.283 OA
ENDROOT
BRANCH   8  13
HETATM   13  O5  UNL     1      18.963  11.600  -2.054  1.00  0.00    -0.370 OA
ATOM     14  H5  UNL     1      19.176  12.522  -2.136  1.00  0.00     0.212 HD
ENDBRANCH   8  13
BRANCH   8  15
HETATM   15  C11 UNL     1      19.453  10.355  -0.058  1.00  0.00     0.237 C 
BRANCH  15  16
HETATM   16  O6  UNL     1      20.641   9.950  -0.604  1.00  0.00    -0.317 OA
BRANCH  16  17
HETATM   17  C12 UNL     1      21.912  10.103  -0.205  1.00  0.00     0.262 C 
HETATM   18  O7  UNL     1      22.318  11.209   0.197  1.00  0.00    -0.265 OA
BRANCH  17  19
HETATM   19  C13 UNL     1      22.925   8.989  -0.208  1.00  0.00     0.077 C 
HETATM   20  C14 UNL     1      22.441   7.963   0.794  1.00  0.00     0.020 C 
HETATM   21  C15 UNL     1      23.067   8.431  -1.598  1.00  0.00     0.020 C 
ENDBRANCH  17  19
ENDBRANCH  16  17
ENDBRANCH  15  16
ENDBRANCH   8  15
BRANCH   1  22
HETATM   22  O1  UNL     1      14.699   9.594   0.621  1.00  0.00    -0.347 OA
BRANCH  22  23
HETATM   23  C2  UNL     1      13.466   9.797   0.015  1.00  0.00     0.171 C 
HETATM   24  C1  UNL     1      13.501  10.035  -1.455  1.00  0.00     0.034 C 
ENDBRANCH  22  23
ENDBRANCH   1  22
BRANCH   2  25
HETATM   25  O2  UNL     1      13.776   9.955   3.220  1.00  0.00    -0.351 OA
HETATM   26  C5  UNL     1      13.934   8.791   3.998  1.00  0.00     0.210 C 
ENDBRANCH   2  25
BRANCH   4  27
HETATM   27  O4  UNL     1      17.109  13.194   4.054  1.00  0.00    -0.357 OA
ATOM     28  H4  UNL     1      18.026  13.415   3.937  1.00  0.00     0.217 HD
ENDBRANCH   4  27
BRANCH   3  29
HETATM   29  O3  UNL     1      14.999  11.740   4.865  1.00  0.00    -0.356 OA
ATOM     30  H3  UNL     1      14.491  11.026   5.231  1.00  0.00     0.218 HD
ENDBRANCH   3  29
TORSDOF 10
ENDMDL
MODEL 4
REMARK VINA RESULT: -7.144691406      1.926      6.229
REMARK  10 active torsions:
REMARK  status: ('A' for Active; 'I' for Inactive)
REMARK    1  A    between atoms: C2_2  and  O1_3 
REMARK    2  A    between atoms: O1_3  and  C3_4 
REMARK    3  A    between atoms: C4_5  and  O2_6 
REMARK    4  A    between atoms: C6_8  and  O3_9 
REMARK    5  A    between atoms: C7_11  and  O4_12 
REMARK    6  A    between atoms: C10_17  and  O5_18 
REMARK    7  A    between atoms: C10_17  and  C11_20 
REMARK    8  A    between atoms: C11_20  and  O6_21 
REMARK    9  A    between atoms: O6_21  and  C12_22 
REMARK   10  A    between atoms: C12_22  and  C13_24 
ROOT
HETATM    1  C3  UNL     1      19.506  11.323   2.277  1.00  0.00     0.122 A 
HETATM    2  C4  UNL     1      20.064  12.555   2.064  1.00  0.00     0.139 A 
HETATM    3  C6  UNL     1      19.309  13.673   2.279  1.00  0.00     0.136 A 
HETATM    4  C7  UNL     1      17.966  13.606   2.717  1.00  0.00     0.117 A 
HETATM    5  C8  UNL     1      17.384  12.353   2.939  1.00  0.00     0.074 A 
HETATM    6  C9  UNL     1      18.191  11.252   2.706  1.00  0.00     0.057 A 
HETATM    7  S1  UNL     1      17.557   9.571   2.959  1.00  0.00    -0.077 SA
HETATM    8  C10 UNL     1      15.691   9.786   2.818  1.00  0.00     0.202 C 
HETATM    9  C16 UNL     1      15.385  10.957   3.623  1.00  0.00     0.247 C 
HETATM   10  O8  UNL     1      14.538  10.828   4.574  1.00  0.00    -0.284 OA
HETATM   11  C17 UNL     1      16.004  12.256   3.389  1.00  0.00     0.236 C 
HETATM   12  O9  UNL     1      15.298  13.306   3.591  1.00  0.00    -0.283 OA
ENDROOT
BRANCH   8  13
HETATM   13  O5  UNL     1      15.234   8.583   3.383  1.00  0.00    -0.370 OA
ATOM     14  H5  UNL     1      15.329   7.987   2.649  1.00  0.00     0.212 HD
ENDBRANCH   8  13
BRANCH   8  15
HETATM   15  C11 UNL     1      15.452   9.843   1.348  1.00  0.00     0.237 C 
BRANCH  15  16
HETATM   16  O6  UNL     1      15.284  11.060   0.745  1.00  0.00    -0.317 OA
BRANCH  16  17
HETATM   17  C12 UNL     1      15.691  11.542  -0.438  1.00  0.00     0.262 C 
HETATM   18  O7  UNL     1      16.833  12.022  -0.563  1.00  0.00    -0.265 OA
BRANCH  17  19
HETATM   19  C13 UNL     1      14.834  11.544  -1.676  1.00  0.00     0.077 C 
HETATM   20  C14 UNL     1      15.426  10.513  -2.612  1.00  0.00     0.020 C 
HETATM   21  C15 UNL     1      13.405  11.251  -1.309  1.00  0.00     0.020 C 
ENDBRANCH  17  19
ENDBRANCH  16  17
ENDBRANCH  15  16
ENDBRANCH   8  15
BRANCH   1  22
HETATM   22  O1  UNL     1      20.250  10.155   2.067  1.00  0.00    -0.347 OA
BRANCH  22  23
HETATM   23  C2  UNL     1      20.604   9.664   0.816  1.00  0.00     0.171 C 
HETATM   24  C1  UNL     1      22.009   9.185   0.686  1.00  0.00     0.034 C 
ENDBRANCH  22  23
ENDBRANCH   1  22
BRANCH   2  25
HETATM   25  O2  UNL     1      21.377  12.661   1.634  1.00  0.00    -0.351 OA
HETATM   26  C5  UNL     1      22.462  12.645   2.533  1.00  0.00     0.210 C 
ENDBRANCH   2  25
BRANCH   4  27
HETATM   27  O4  UNL     1      17.354  14.791   2.884  1.00  0.00    -0.357 OA
ATOM     28  H4  UNL     1      17.224  15.297   2.091  1.00  0.00     0.217 HD
ENDBRANCH   4  27
BRANCH   3  29
HETATM   29  O3  UNL     1      19.907  14.908   2.052  1.00  0.00    -0.356 OA
ATOM     30  H3  UNL     1      19.350  15.619   1.759  1.00  0.00     0.218 HD
ENDBRANCH   3  29
TORSDOF 10
ENDMDL
MODEL 5
REMARK VINA RESULT: -7.127863495      1.992      6.683
REMARK  10 active torsions:
REMARK  status: ('A' for Active; 'I' for Inactive)
REMARK    1  A    between atoms: C2_2  and  O1_3 
REMARK    2  A    between atoms: O1_3  and  C3_4 
REMARK    3  A    between atoms: C4_5  and  O2_6 
REMARK    4  A    between atoms: C6_8  and  O3_9 
REMARK    5  A    between atoms: C7_11  and  O4_12 
REMARK    6  A    between atoms: C10_17  and  O5_18 
REMARK    7  A    between atoms: C10_17  and  C11_20 
REMARK    8  A    between atoms: C11_20  and  O6_21 
REMARK    9  A    between atoms: O6_21  and  C12_22 
REMARK   10  A    between atoms: C12_22  and  C13_24 
ROOT
HETATM    1  C3  UNL     1      19.724  11.491   2.413  1.00  0.00     0.122 A 
HETATM    2  C4  UNL     1      20.251  12.743   2.241  1.00  0.00     0.139 A 
HETATM    3  C6  UNL     1      19.453  13.833   2.450  1.00  0.00     0.136 A 
HETATM    4  C7  UNL     1      18.098  13.716   2.839  1.00  0.00     0.117 A 
HETATM    5  C8  UNL     1      17.549  12.442   3.017  1.00  0.00     0.074 A 
HETATM    6  C9  UNL     1      18.399  11.372   2.793  1.00  0.00     0.057 A 
HETATM    7  S1  UNL     1      17.809   9.667   2.993  1.00  0.00    -0.077 SA
HETATM    8  C10 UNL     1      15.944   9.826   2.789  1.00  0.00     0.202 C 
HETATM    9  C16 UNL     1      15.572  10.972   3.604  1.00  0.00     0.247 C 
HETATM   10  O8  UNL     1      14.697  10.798   4.521  1.00  0.00    -0.284 OA
HETATM   11  C17 UNL     1      16.158  12.293   3.415  1.00  0.00     0.236 C 
HETATM   12  O9  UNL     1      15.412  13.317   3.611  1.00  0.00    -0.283 OA
ENDROOT
BRANCH   8  13
HETATM   13  O5  UNL     1      15.506   8.599   3.316  1.00  0.00    -0.370 OA
ATOM     14  H5  UNL     1      14.571   8.751   3.385  1.00  0.00     0.212 HD
ENDBRANCH   8  13
BRANCH   8  15
HETATM   15  C11 UNL     1      15.755   9.904   1.313  1.00  0.00     0.237 C 
BRANCH  15  16
HETATM   16  O6  UNL     1      14.632  10.508   0.814  1.00  0.00    -0.317 OA
BRANCH  16  17
HETATM   17  C12 UNL     1      13.715  10.107  -0.078  1.00  0.00     0.262 C 
HETATM   18  O7  UNL     1      13.074   9.056   0.107  1.00  0.00    -0.265 OA
BRANCH  17  19
HETATM   19  C13 UNL     1      13.391  10.865  -1.337  1.00  0.00     0.077 C 
HETATM   20  C14 UNL     1      14.588  11.743  -1.633  1.00  0.00     0.020 C 
HETATM   21  C15 UNL     1      13.082   9.901  -2.450  1.00  0.00     0.020 C 
ENDBRANCH  17  19
ENDBRANCH  16  17
ENDBRANCH  15  16
ENDBRANCH   8  15
BRANCH   1  22
HETATM   22  O1  UNL     1      20.512  10.351   2.208  1.00  0.00    -0.347 OA
BRANCH  22  23
HETATM   23  C2  UNL     1      20.829   9.829   0.960  1.00  0.00     0.171 C 
HETATM   24  C1  UNL     1      22.236   9.367   0.792  1.00  0.00     0.034 C 
ENDBRANCH  22  23
ENDBRANCH   1  22
BRANCH   2  25
HETATM   25  O2  UNL     1      21.574  12.899   1.861  1.00  0.00    -0.351 OA
HETATM   26  C5  UNL     1      22.625  12.910   2.799  1.00  0.00     0.210 C 
ENDBRANCH   2  25
BRANCH   4  27
HETATM   27  O4  UNL     1      17.443  14.878   3.005  1.00  0.00    -0.357 OA
ATOM     28  H4  UNL     1      17.937  15.566   3.436  1.00  0.00     0.217 HD
ENDBRANCH   4  27
BRANCH   3  29
HETATM   29  O3  UNL     1      20.019  15.090   2.267  1.00  0.00    -0.356 OA
ATOM     30  H3  UNL     1      19.570  15.695   1.688  1.00  0.00     0.218 HD
ENDBRANCH   3  29
TORSDOF 10
ENDMDL
