MODEL 1
REMARK VINA RESULT: -8.072857611      0.000      0.000
REMARK  8 active torsions:
REMARK  status: ('A' for Active; 'I' for Inactive)
REMARK    1  A    between atoms: O1_2  and  C2_3 
REMARK    2  A    between atoms: C2_3  and  C3_4 
REMARK    3  A    between atoms: C3_4  and  N1_5 
REMARK    4  A    between atoms: N1_5  and  N2_6 
REMARK       I    between atoms: N1_5  and  C6_11 
REMARK       I    between atoms: N2_6  and  C4_8 
REMARK       I    between atoms: C6_11  and  N4_15 
REMARK    5  A    between atoms: N4_15  and  C7_17 
REMARK    6  A    between atoms: C7_17  and  C9_19 
REMARK    7  A    between atoms: N7_23  and  C10_24 
REMARK    8  A    between atoms: C10_24  and  C11_25 
ROOT
HETATM    1  C11 UNL     1      15.209  10.397  -2.133  1.00  0.00     0.033 A 
HETATM    2  S1  UNL     1      14.366  10.471  -0.647  1.00  0.00    -0.053 SA
HETATM    3  S2  UNL     1      12.544   9.871  -1.458  1.00  0.00    -0.039 SA
HETATM    4  C12 UNL     1      13.160   9.721  -3.045  1.00  0.00     0.100 A 
HETATM    5  S3  UNL     1      12.085   9.234  -4.239  1.00  0.00    -0.070 SA
HETATM    6  C13 UNL     1      14.478  10.012  -3.214  1.00  0.00     0.088 A 
HETATM    7  C14 UNL     1      15.069   9.869  -4.571  1.00  0.00     0.103 C 
HETATM    8  N8  UNL     1      15.536   9.729  -5.644  1.00  0.00    -0.191 NA
ENDROOT
BRANCH   1   9
HETATM    9  C10 UNL     1      16.684  10.765  -2.210  1.00  0.00     0.215 C 
BRANCH   9  10
HETATM   10  N7  UNL     1      17.246  11.019  -0.911  1.00  0.00    -0.212 N 
HETATM   11  N6  UNL     1      17.947  12.106  -0.562  1.00  0.00    -0.003 NA
HETATM   12  N5  UNL     1      18.310  12.039   0.710  1.00  0.00    -0.269 N 
HETATM   13  C9  UNL     1      17.844  10.897   1.204  1.00  0.00     0.133 A 
ATOM     14  H5  UNL     1      18.850  12.739   1.219  1.00  0.00     0.185 HD
HETATM   15  N9  UNL     1      17.196  10.297   0.181  1.00  0.00    -0.271 N 
ATOM     16  H9  UNL     1      16.727   9.393   0.251  1.00  0.00     0.190 HD
BRANCH  13  17
HETATM   17  C7  UNL     1      17.987  10.355   2.605  1.00  0.00     0.165 C 
HETATM   18  C8  UNL     1      19.206   9.428   2.567  1.00  0.00     0.041 C 
BRANCH  17  19
HETATM   19  N4  UNL     1      16.823   9.572   2.962  1.00  0.00    -0.214 N 
HETATM   20  C6  UNL     1      15.724  10.237   3.569  1.00  0.00     0.689 C 
HETATM   21  N1  UNL     1      14.830   9.655   4.494  1.00  0.00    -0.120 N 
HETATM   22  N3  UNL     1      15.476  11.493   3.281  1.00  0.00    -0.233 N 
ATOM     23  H32 UNL     1      14.687  11.971   3.717  1.00  0.00     0.174 HD
ATOM     24  H31 UNL     1      16.122  11.913   2.613  1.00  0.00     0.174 HD
ATOM     25  H4  UNL     1      16.792   8.568   2.782  1.00  0.00     0.178 HD
BRANCH  21  26
HETATM   26  C3  UNL     1      15.298   9.097   5.730  1.00  0.00     0.194 C 
BRANCH  26  27
HETATM   27  C2  UNL     1      14.278   9.040   6.825  1.00  0.00     0.189 C 
BRANCH  27  28
HETATM   28  O1  UNL     1      13.744  10.325   6.972  1.00  0.00    -0.394 OA
HETATM   29  C1  UNL     1      13.668  10.649   8.345  1.00  0.00     0.201 C 
ENDBRANCH  27  28
ENDBRANCH  26  27
ENDBRANCH  21  26
BRANCH  21  30
HETATM   30  N2  UNL     1      13.472   9.631   4.196  1.00  0.00    -0.254 N 
HETATM   31  C4  UNL     1      12.976   8.895   3.113  1.00  0.00     0.232 C 
HETATM   32  C5  UNL     1      11.518   8.849   2.765  1.00  0.00     0.119 C 
HETATM   33  O2  UNL     1      13.798   8.243   2.401  1.00  0.00    -0.272 OA
ATOM     34  H2  UNL     1      12.824  10.161   4.779  1.00  0.00     0.190 HD
ENDBRANCH  21  30
ENDBRANCH  17  19
ENDBRANCH  13  17
ENDBRANCH   9  10
ENDBRANCH   1   9
TORSDOF 8
ENDMDL
MODEL 2
REMARK VINA RESULT: -7.425963675      3.483      4.675
REMARK  8 active torsions:
REMARK  status: ('A' for Active; 'I' for Inactive)
REMARK    1  A    between atoms: O1_2  and  C2_3 
REMARK    2  A    between atoms: C2_3  and  C3_4 
REMARK    3  A    between atoms: C3_4  and  N1_5 
REMARK    4  A    between atoms: N1_5  and  N2_6 
REMARK       I    between atoms: N1_5  and  C6_11 
REMARK       I    between atoms: N2_6  and  C4_8 
REMARK       I    between atoms: C6_11  and  N4_15 
REMARK    5  A    between atoms: N4_15  and  C7_17 
REMARK    6  A    between atoms: C7_17  and  C9_19 
REMARK    7  A    between atoms: N7_23  and  C10_24 
REMARK    8  A    between atoms: C10_24  and  C11_25 
ROOT
HETATM    1  C11 UNL     1      15.052  10.385  -2.096  1.00  0.00     0.033 A 
HETATM    2  S1  UNL     1      14.107  10.403  -0.671  1.00  0.00    -0.053 SA
HETATM    3  S2  UNL     1      12.353   9.811  -1.624  1.00  0.00    -0.039 SA
HETATM    4  C12 UNL     1      13.079   9.717  -3.169  1.00  0.00     0.100 A 
HETATM    5  S3  UNL     1      12.095   9.258  -4.449  1.00  0.00    -0.070 SA
HETATM    6  C13 UNL     1      14.402  10.027  -3.237  1.00  0.00     0.088 A 
HETATM    7  C14 UNL     1      15.087   9.934  -4.553  1.00  0.00     0.103 C 
HETATM    8  N8  UNL     1      15.629   9.832  -5.594  1.00  0.00    -0.191 NA
ENDROOT
BRANCH   1   9
HETATM    9  C10 UNL     1      16.524  10.770  -2.059  1.00  0.00     0.215 C 
BRANCH   9  10
HETATM   10  N7  UNL     1      17.010  10.919  -0.714  1.00  0.00    -0.212 N 
HETATM   11  N6  UNL     1      17.378  12.072  -0.139  1.00  0.00    -0.003 NA
HETATM   12  N5  UNL     1      17.764  11.869   1.111  1.00  0.00    -0.269 N 
HETATM   13  C9  UNL     1      17.650  10.570   1.363  1.00  0.00     0.133 A 
ATOM     14  H5  UNL     1      18.089  12.582   1.763  1.00  0.00     0.185 HD
HETATM   15  N9  UNL     1      17.185  10.017   0.220  1.00  0.00    -0.271 N 
ATOM     16  H9  UNL     1      16.993   9.022   0.101  1.00  0.00     0.190 HD
BRANCH  13  17
HETATM   17  C7  UNL     1      17.962   9.833   2.643  1.00  0.00     0.165 C 
HETATM   18  C8  UNL     1      18.350  10.913   3.657  1.00  0.00     0.041 C 
BRANCH  17  19
HETATM   19  N4  UNL     1      19.095   8.952   2.452  1.00  0.00    -0.214 N 
HETATM   20  C6  UNL     1      19.172   7.774   3.243  1.00  0.00     0.689 C 
HETATM   21  N1  UNL     1      20.368   7.148   3.658  1.00  0.00    -0.120 N 
HETATM   22  N3  UNL     1      18.073   7.179   3.644  1.00  0.00    -0.233 N 
ATOM     23  H32 UNL     1      18.128   6.333   4.212  1.00  0.00     0.174 HD
ATOM     24  H31 UNL     1      17.209   7.631   3.344  1.00  0.00     0.174 HD
ATOM     25  H4  UNL     1      19.819   9.171   1.768  1.00  0.00     0.178 HD
BRANCH  21  26
HETATM   26  C3  UNL     1      21.341   7.853   4.441  1.00  0.00     0.194 C 
BRANCH  26  27
HETATM   27  C2  UNL     1      20.864   8.302   5.789  1.00  0.00     0.189 C 
BRANCH  27  28
HETATM   28  O1  UNL     1      21.818   9.190   6.299  1.00  0.00    -0.394 OA
HETATM   29  C1  UNL     1      22.009   8.936   7.675  1.00  0.00     0.201 C 
ENDBRANCH  27  28
ENDBRANCH  26  27
ENDBRANCH  21  26
BRANCH  21  30
HETATM   30  N2  UNL     1      20.596   5.824   3.301  1.00  0.00    -0.254 N 
HETATM   31  C4  UNL     1      20.119   4.766   4.084  1.00  0.00     0.232 C 
HETATM   32  C5  UNL     1      20.349   3.326   3.727  1.00  0.00     0.119 C 
HETATM   33  O2  UNL     1      19.468   5.040   5.136  1.00  0.00    -0.272 OA
ATOM     34  H2  UNL     1      21.121   5.619   2.452  1.00  0.00     0.190 HD
ENDBRANCH  21  30
ENDBRANCH  17  19
ENDBRANCH  13  17
ENDBRANCH   9  10
ENDBRANCH   1   9
TORSDOF 8
ENDMDL
MODEL 3
REMARK VINA RESULT: -7.397673647      0.901      2.505
REMARK  8 active torsions:
REMARK  status: ('A' for Active; 'I' for Inactive)
REMARK    1  A    between atoms: O1_2  and  C2_3 
REMARK    2  A    between atoms: C2_3  and  C3_4 
REMARK    3  A    between atoms: C3_4  and  N1_5 
REMARK    4  A    between atoms: N1_5  and  N2_6 
REMARK       I    between atoms: N1_5  and  C6_11 
REMARK       I    between atoms: N2_6  and  C4_8 
REMARK       I    between atoms: C6_11  and  N4_15 
REMARK    5  A    between atoms: N4_15  and  C7_17 
REMARK    6  A    between atoms: C7_17  and  C9_19 
REMARK    7  A    between atoms: N7_23  and  C10_24 
REMARK    8  A    between atoms: C10_24  and  C11_25 
ROOT
HETATM    1  C11 UNL     1      15.233  10.376  -2.091  1.00  0.00     0.033 A 
HETATM    2  S1  UNL     1      14.387  10.444  -0.606  1.00  0.00    -0.053 SA
HETATM    3  S2  UNL     1      12.561   9.869  -1.426  1.00  0.00    -0.039 SA
HETATM    4  C12 UNL     1      13.179   9.729  -3.013  1.00  0.00     0.100 A 
HETATM    5  S3  UNL     1      12.102   9.264  -4.214  1.00  0.00    -0.070 SA
HETATM    6  C13 UNL     1      14.500  10.009  -3.177  1.00  0.00     0.088 A 
HETATM    7  C14 UNL     1      15.093   9.874  -4.534  1.00  0.00     0.103 C 
HETATM    8  N8  UNL     1      15.561   9.740  -5.607  1.00  0.00    -0.191 NA
ENDROOT
BRANCH   1   9
HETATM    9  C10 UNL     1      16.711  10.731  -2.161  1.00  0.00     0.215 C 
BRANCH   9  10
HETATM   10  N7  UNL     1      17.232  11.134  -0.883  1.00  0.00    -0.212 N 
HETATM   11  N6  UNL     1      17.979  12.222  -0.651  1.00  0.00    -0.003 NA
HETATM   12  N5  UNL     1      18.283  12.314   0.635  1.00  0.00    -0.269 N 
HETATM   13  C9  UNL     1      17.733  11.277   1.256  1.00  0.00     0.133 A 
ATOM     14  H5  UNL     1      18.840  13.050   1.069  1.00  0.00     0.185 HD
HETATM   15  N9  UNL     1      17.095  10.574   0.294  1.00  0.00    -0.271 N 
ATOM     16  H9  UNL     1      16.573   9.714   0.463  1.00  0.00     0.190 HD
BRANCH  13  17
HETATM   17  C7  UNL     1      17.785  10.928   2.724  1.00  0.00     0.165 C 
HETATM   18  C8  UNL     1      17.952   9.406   2.780  1.00  0.00     0.041 C 
BRANCH  17  19
HETATM   19  N4  UNL     1      16.538  11.280   3.369  1.00  0.00    -0.214 N 
HETATM   20  C6  UNL     1      15.956  10.343   4.264  1.00  0.00     0.689 C 
HETATM   21  N1  UNL     1      14.572  10.193   4.501  1.00  0.00    -0.120 N 
HETATM   22  N3  UNL     1      16.722   9.528   4.953  1.00  0.00    -0.233 N 
ATOM     23  H32 UNL     1      16.305   8.855   5.596  1.00  0.00     0.174 HD
ATOM     24  H31 UNL     1      17.722   9.637   4.781  1.00  0.00     0.174 HD
ATOM     25  H4  UNL     1      16.088  12.177   3.185  1.00  0.00     0.178 HD
BRANCH  21  26
HETATM   26  C3  UNL     1      13.666   9.880   3.434  1.00  0.00     0.194 C 
BRANCH  26  27
HETATM   27  C2  UNL     1      14.093   8.746   2.553  1.00  0.00     0.189 C 
BRANCH  27  28
HETATM   28  O1  UNL     1      12.942   8.223   1.953  1.00  0.00    -0.394 OA
HETATM   29  C1  UNL     1      11.810   8.938   2.405  1.00  0.00     0.201 C 
ENDBRANCH  27  28
ENDBRANCH  26  27
ENDBRANCH  21  26
BRANCH  21  30
HETATM   30  N2  UNL     1      14.088  10.348   5.795  1.00  0.00    -0.254 N 
HETATM   31  C4  UNL     1      13.856   9.243   6.624  1.00  0.00     0.232 C 
HETATM   32  C5  UNL     1      13.334   9.376   8.024  1.00  0.00     0.119 C 
HETATM   33  O2  UNL     1      14.098   8.086   6.167  1.00  0.00    -0.272 OA
ATOM     34  H2  UNL     1      13.899  11.286   6.148  1.00  0.00     0.190 HD
ENDBRANCH  21  30
ENDBRANCH  17  19
ENDBRANCH  13  17
ENDBRANCH   9  10
ENDBRANCH   1   9
TORSDOF 8
ENDMDL
MODEL 4
REMARK VINA RESULT: -7.328457532      4.424      7.081
REMARK  8 active torsions:
REMARK  status: ('A' for Active; 'I' for Inactive)
REMARK    1  A    between atoms: O1_2  and  C2_3 
REMARK    2  A    between atoms: C2_3  and  C3_4 
REMARK    3  A    between atoms: C3_4  and  N1_5 
REMARK    4  A    between atoms: N1_5  and  N2_6 
REMARK       I    between atoms: N1_5  and  C6_11 
REMARK       I    between atoms: N2_6  and  C4_8 
REMARK       I    between atoms: C6_11  and  N4_15 
REMARK    5  A    between atoms: N4_15  and  C7_17 
REMARK    6  A    between atoms: C7_17  and  C9_19 
REMARK    7  A    between atoms: N7_23  and  C10_24 
REMARK    8  A    between atoms: C10_24  and  C11_25 
ROOT
HETATM    1  C11 UNL     1      15.684  10.454   2.559  1.00  0.00     0.033 A 
HETATM    2  S1  UNL     1      14.328   9.425   2.394  1.00  0.00    -0.053 SA
HETATM    3  S2  UNL     1      14.441   9.327   0.317  1.00  0.00    -0.039 SA
HETATM    4  C12 UNL     1      15.813  10.343   0.222  1.00  0.00     0.100 A 
HETATM    5  S3  UNL     1      16.421  10.666  -1.310  1.00  0.00    -0.070 SA
HETATM    6  C13 UNL     1      16.302  10.813   1.401  1.00  0.00     0.088 A 
HETATM    7  C14 UNL     1      17.512  11.678   1.375  1.00  0.00     0.103 C 
HETATM    8  N8  UNL     1      18.484  12.342   1.347  1.00  0.00    -0.191 NA
ENDROOT
BRANCH   1   9
HETATM    9  C10 UNL     1      16.133  10.936   3.931  1.00  0.00     0.215 C 
BRANCH   9  10
HETATM   10  N7  UNL     1      16.802   9.903   4.674  1.00  0.00    -0.212 N 
HETATM   11  N6  UNL     1      16.260   9.172   5.658  1.00  0.00    -0.003 NA
HETATM   12  N5  UNL     1      17.136   8.297   6.127  1.00  0.00    -0.269 N 
HETATM   13  C9  UNL     1      18.266   8.452   5.446  1.00  0.00     0.133 A 
ATOM     14  H5  UNL     1      16.972   7.624   6.876  1.00  0.00     0.185 HD
HETATM   15  N9  UNL     1      18.025   9.446   4.562  1.00  0.00    -0.271 N 
ATOM     16  H9  UNL     1      18.710   9.796   3.892  1.00  0.00     0.190 HD
BRANCH  13  17
HETATM   17  C7  UNL     1      19.563   7.694   5.597  1.00  0.00     0.165 C 
HETATM   18  C8  UNL     1      20.600   8.734   6.032  1.00  0.00     0.041 C 
BRANCH  17  19
HETATM   19  N4  UNL     1      19.972   7.139   4.324  1.00  0.00    -0.214 N 
HETATM   20  C6  UNL     1      20.004   5.725   4.186  1.00  0.00     0.689 C 
HETATM   21  N1  UNL     1      20.885   5.008   3.347  1.00  0.00    -0.120 N 
HETATM   22  N3  UNL     1      19.167   4.979   4.869  1.00  0.00    -0.233 N 
ATOM     23  H32 UNL     1      19.190   3.964   4.770  1.00  0.00     0.174 HD
ATOM     24  H31 UNL     1      18.531   5.497   5.476  1.00  0.00     0.174 HD
ATOM     25  H4  UNL     1      20.231   7.747   3.547  1.00  0.00     0.178 HD
BRANCH  21  26
HETATM   26  C3  UNL     1      22.307   5.121   3.494  1.00  0.00     0.194 C 
BRANCH  26  27
HETATM   27  C2  UNL     1      22.978   6.011   2.492  1.00  0.00     0.189 C 
BRANCH  27  28
HETATM   28  O1  UNL     1      22.242   7.199   2.424  1.00  0.00    -0.394 OA
HETATM   29  C1  UNL     1      22.098   7.587   1.073  1.00  0.00     0.201 C 
ENDBRANCH  27  28
ENDBRANCH  26  27
ENDBRANCH  21  26
BRANCH  21  30
HETATM   30  N2  UNL     1      20.356   4.176   2.367  1.00  0.00    -0.254 N 
HETATM   31  C4  UNL     1      20.000   2.852   2.650  1.00  0.00     0.232 C 
HETATM   32  C5  UNL     1      19.427   1.928   1.615  1.00  0.00     0.119 C 
HETATM   33  O2  UNL     1      20.170   2.421   3.829  1.00  0.00    -0.272 OA
ATOM     34  H2  UNL     1      20.224   4.538   1.423  1.00  0.00     0.190 HD
ENDBRANCH  21  30
ENDBRANCH  17  19
ENDBRANCH  13  17
ENDBRANCH   9  10
ENDBRANCH   1   9
TORSDOF 8
ENDMDL
MODEL 5
REMARK VINA RESULT: -7.313867816      3.170      5.375
REMARK  8 active torsions:
REMARK  status: ('A' for Active; 'I' for Inactive)
REMARK    1  A    between atoms: O1_2  and  C2_3 
REMARK    2  A    between atoms: C2_3  and  C3_4 
REMARK    3  A    between atoms: C3_4  and  N1_5 
REMARK    4  A    between atoms: N1_5  and  N2_6 
REMARK       I    between atoms: N1_5  and  C6_11 
REMARK       I    between atoms: N2_6  and  C4_8 
REMARK       I    between atoms: C6_11  and  N4_15 
REMARK    5  A    between atoms: N4_15  and  C7_17 
REMARK    6  A    between atoms: C7_17  and  C9_19 
REMARK    7  A    between atoms: N7_23  and  C10_24 
REMARK    8  A    between atoms: C10_24  and  C11_25 
ROOT
HETATM    1  C11 UNL     1      13.809  10.067  -1.432  1.00  0.00     0.033 A 
HETATM    2  S1  UNL     1      15.327  10.560  -0.819  1.00  0.00    -0.053 SA
HETATM    3  S2  UNL     1      16.282  10.506  -2.669  1.00  0.00    -0.039 SA
HETATM    4  C12 UNL     1      14.882  10.008  -3.514  1.00  0.00     0.100 A 
HETATM    5  S3  UNL     1      15.032   9.775  -5.170  1.00  0.00    -0.070 SA
HETATM    6  C13 UNL     1      13.754   9.836  -2.772  1.00  0.00     0.088 A 
HETATM    7  C14 UNL     1      12.503   9.431  -3.465  1.00  0.00     0.103 C 
HETATM    8  N8  UNL     1      11.509   9.134  -4.025  1.00  0.00    -0.191 NA
ENDROOT
BRANCH   1   9
HETATM    9  C10 UNL     1      12.615   9.888  -0.505  1.00  0.00     0.215 C 
BRANCH   9  10
HETATM   10  N7  UNL     1      13.010   9.434   0.801  1.00  0.00    -0.212 N 
HETATM   11  N6  UNL     1      12.264   8.688   1.628  1.00  0.00    -0.003 NA
HETATM   12  N5  UNL     1      12.923   8.429   2.747  1.00  0.00    -0.269 N 
HETATM   13  C9  UNL     1      14.114   9.010   2.658  1.00  0.00     0.133 A 
ATOM     14  H5  UNL     1      12.578   7.882   3.535  1.00  0.00     0.185 HD
HETATM   15  N9  UNL     1      14.133   9.618   1.450  1.00  0.00    -0.271 N 
ATOM     16  H9  UNL     1      14.924  10.152   1.090  1.00  0.00     0.190 HD
BRANCH  13  17
HETATM   17  C7  UNL     1      15.235   9.010   3.669  1.00  0.00     0.165 C 
HETATM   18  C8  UNL     1      15.292  10.438   4.221  1.00  0.00     0.041 C 
BRANCH  17  19
HETATM   19  N4  UNL     1      16.496   8.715   3.022  1.00  0.00    -0.214 N 
HETATM   20  C6  UNL     1      17.647   8.549   3.838  1.00  0.00     0.689 C 
HETATM   21  N1  UNL     1      18.970   8.857   3.452  1.00  0.00    -0.120 N 
HETATM   22  N3  UNL     1      17.528   8.072   5.055  1.00  0.00    -0.233 N 
ATOM     23  H32 UNL     1      18.355   7.953   5.641  1.00  0.00     0.174 HD
ATOM     24  H31 UNL     1      16.572   7.849   5.334  1.00  0.00     0.174 HD
ATOM     25  H4  UNL     1      16.556   8.628   2.008  1.00  0.00     0.178 HD
BRANCH  21  26
HETATM   26  C3  UNL     1      19.334  10.183   3.042  1.00  0.00     0.194 C 
BRANCH  26  27
HETATM   27  C2  UNL     1      18.665  10.665   1.791  1.00  0.00     0.189 C 
BRANCH  27  28
HETATM   28  O1  UNL     1      19.082  11.982   1.571  1.00  0.00    -0.394 OA
HETATM   29  C1  UNL     1      18.341  12.539   0.505  1.00  0.00     0.201 C 
ENDBRANCH  27  28
ENDBRANCH  26  27
ENDBRANCH  21  26
BRANCH  21  30
HETATM   30  N2  UNL     1      19.932   7.854   3.477  1.00  0.00    -0.254 N 
HETATM   31  C4  UNL     1      20.847   7.748   4.532  1.00  0.00     0.232 C 
HETATM   32  C5  UNL     1      21.897   6.677   4.589  1.00  0.00     0.119 C 
HETATM   33  O2  UNL     1      20.781   8.593   5.474  1.00  0.00    -0.272 OA
ATOM     34  H2  UNL     1      19.972   7.181   2.712  1.00  0.00     0.190 HD
ENDBRANCH  21  30
ENDBRANCH  17  19
ENDBRANCH  13  17
ENDBRANCH   9  10
ENDBRANCH   1   9
TORSDOF 8
ENDMDL
