MODEL 1
REMARK VINA RESULT: -8.632316461      0.000      0.000
REMARK  9 active torsions:
REMARK  status: ('A' for Active; 'I' for Inactive)
REMARK    1  A    between atoms: O1_2  and  N1_3 
REMARK    2  A    between atoms: C2_5  and  C4_7 
REMARK    3  A    between atoms: C4_7  and  S1_8 
REMARK    4  A    between atoms: S1_8  and  O4_11 
REMARK    5  A    between atoms: O4_11  and  C5_12 
REMARK    6  A    between atoms: C6_13  and  O5_14 
REMARK    7  A    between atoms: C8_16  and  O6_17 
REMARK    8  A    between atoms: O6_17  and  C9_18 
REMARK    9  A    between atoms: C11_21  and  O8_22 
ROOT
HETATM    1  C5  UNL     1      15.083   9.692   1.111  1.00  0.00     0.160 A 
HETATM    2  C6  UNL     1      14.699   9.114   2.315  1.00  0.00     0.143 A 
HETATM    3  C8  UNL     1      15.483   9.151   3.432  1.00  0.00     0.149 A 
HETATM    4  C11 UNL     1      16.711   9.789   3.370  1.00  0.00     0.119 A 
HETATM    5  C12 UNL     1      17.144  10.385   2.184  1.00  0.00     0.084 A 
HETATM    6  C13 UNL     1      16.330  10.329   1.084  1.00  0.00     0.133 A 
HETATM    7  O9  UNL     1      16.763  10.933  -0.105  1.00  0.00    -0.274 OA
HETATM    8  C14 UNL     1      17.973  11.585  -0.221  1.00  0.00     0.275 C 
HETATM    9  O10 UNL     1      18.497  11.768  -1.325  1.00  0.00    -0.264 OA
HETATM   10  C15 UNL     1      18.639  12.067   1.027  1.00  0.00     0.157 C 
HETATM   11  C16 UNL     1      17.995  13.338   1.535  1.00  0.00     0.029 C 
HETATM   12  C17 UNL     1      18.442  11.029   2.088  1.00  0.00     0.178 C 
HETATM   13  O11 UNL     1      19.368  10.742   2.845  1.00  0.00    -0.291 OA
ENDROOT
BRANCH   1  14
HETATM   14  O4  UNL     1      14.352   9.688  -0.025  1.00  0.00    -0.227 OA
BRANCH  14  15
HETATM   15  S1  UNL     1      14.168   9.769  -1.493  1.00  0.00     0.275 S 
HETATM   16  O2  UNL     1      14.449   8.324  -1.958  1.00  0.00    -0.198 OA
HETATM   17  O3  UNL     1      12.546  10.899  -1.213  1.00  0.00    -0.198 OA
BRANCH  15  18
HETATM   18  C4  UNL     1      14.468  10.633  -3.072  1.00  0.00     0.225 C 
BRANCH  18  19
HETATM   19  C2  UNL     1      14.287   9.817  -4.302  1.00  0.00     0.022 C 
HETATM   20  N1  UNL     1      13.208   9.222  -4.597  1.00  0.00    -0.275 N 
ATOM     21  H1  UNL     1      13.212   8.679  -5.460  1.00  0.00     0.193 HD
HETATM   22  C3  UNL     1      15.433   9.644  -5.260  1.00  0.00     0.066 C 
BRANCH  20  23
HETATM   23  O1  UNL     1      12.060   9.226  -3.899  1.00  0.00    -0.285 OA
HETATM   24  C1  UNL     1      10.784   9.214  -4.489  1.00  0.00     0.237 C 
ENDBRANCH  20  23
ENDBRANCH  18  19
ENDBRANCH  15  18
ENDBRANCH  14  15
ENDBRANCH   1  14
BRANCH   2  25
HETATM   25  O5  UNL     1      13.441   8.493   2.280  1.00  0.00    -0.350 OA
HETATM   26  C7  UNL     1      12.314   9.264   2.577  1.00  0.00     0.210 C 
ENDBRANCH   2  25
BRANCH   3  27
HETATM   27  O6  UNL     1      15.062   8.565   4.600  1.00  0.00    -0.273 OA
BRANCH  27  28
HETATM   28  C9  UNL     1      14.436   9.255   5.607  1.00  0.00     0.260 C 
HETATM   29  C10 UNL     1      13.734   8.572   6.742  1.00  0.00     0.126 C 
HETATM   30  O7  UNL     1      14.461  10.515   5.556  1.00  0.00    -0.265 OA
ENDBRANCH  27  28
ENDBRANCH   3  27
BRANCH   4  31
HETATM   31  O8  UNL     1      17.451   9.802   4.502  1.00  0.00    -0.357 OA
ATOM     32  H8  UNL     1      18.382   9.965   4.405  1.00  0.00     0.218 HD
ENDBRANCH   4  31
TORSDOF 9
ENDMDL
MODEL 2
REMARK VINA RESULT: -8.580247954      3.091      4.738
REMARK  9 active torsions:
REMARK  status: ('A' for Active; 'I' for Inactive)
REMARK    1  A    between atoms: O1_2  and  N1_3 
REMARK    2  A    between atoms: C2_5  and  C4_7 
REMARK    3  A    between atoms: C4_7  and  S1_8 
REMARK    4  A    between atoms: S1_8  and  O4_11 
REMARK    5  A    between atoms: O4_11  and  C5_12 
REMARK    6  A    between atoms: C6_13  and  O5_14 
REMARK    7  A    between atoms: C8_16  and  O6_17 
REMARK    8  A    between atoms: O6_17  and  C9_18 
REMARK    9  A    between atoms: C11_21  and  O8_22 
ROOT
HETATM    1  C5  UNL     1      18.625   9.981   3.249  1.00  0.00     0.160 A 
HETATM    2  C6  UNL     1      17.728  10.104   4.304  1.00  0.00     0.143 A 
HETATM    3  C8  UNL     1      17.651   9.189   5.314  1.00  0.00     0.149 A 
HETATM    4  C11 UNL     1      18.497   8.092   5.293  1.00  0.00     0.119 A 
HETATM    5  C12 UNL     1      19.415   7.921   4.255  1.00  0.00     0.084 A 
HETATM    6  C13 UNL     1      19.465   8.860   3.260  1.00  0.00     0.133 A 
HETATM    7  O9  UNL     1      20.390   8.690   2.221  1.00  0.00    -0.274 OA
HETATM    8  C14 UNL     1      21.259   7.621   2.154  1.00  0.00     0.275 C 
HETATM    9  O10 UNL     1      21.780   7.287   1.084  1.00  0.00    -0.264 OA
HETATM   10  C15 UNL     1      21.557   6.871   3.412  1.00  0.00     0.157 C 
HETATM   11  C16 UNL     1      22.541   7.625   4.277  1.00  0.00     0.029 C 
HETATM   12  C17 UNL     1      20.286   6.762   4.196  1.00  0.00     0.178 C 
HETATM   13  O11 UNL     1      20.007   5.707   4.766  1.00  0.00    -0.291 OA
ENDROOT
BRANCH   1  14
HETATM   14  O4  UNL     1      18.747  10.851   2.223  1.00  0.00    -0.227 OA
BRANCH  14  15
HETATM   15  S1  UNL     1      18.283  11.543   0.998  1.00  0.00     0.275 S 
HETATM   16  O2  UNL     1      17.886  12.941   1.519  1.00  0.00    -0.198 OA
HETATM   17  O3  UNL     1      19.825  10.768  -0.006  1.00  0.00    -0.198 OA
BRANCH  15  18
HETATM   18  C4  UNL     1      17.304  11.531  -0.542  1.00  0.00     0.225 C 
BRANCH  18  19
HETATM   19  C2  UNL     1      16.127  10.623  -0.554  1.00  0.00     0.022 C 
HETATM   20  N1  UNL     1      15.579  10.197  -1.614  1.00  0.00    -0.275 N 
ATOM     21  H1  UNL     1      14.767   9.593  -1.493  1.00  0.00     0.193 HD
HETATM   22  C3  UNL     1      15.507  10.186   0.744  1.00  0.00     0.066 C 
BRANCH  20  23
HETATM   23  O1  UNL     1      15.950  10.453  -2.880  1.00  0.00    -0.285 OA
HETATM   24  C1  UNL     1      15.184  10.105  -4.006  1.00  0.00     0.237 C 
ENDBRANCH  20  23
ENDBRANCH  18  19
ENDBRANCH  15  18
ENDBRANCH  14  15
ENDBRANCH   1  14
BRANCH   2  25
HETATM   25  O5  UNL     1      16.915  11.246   4.239  1.00  0.00    -0.350 OA
HETATM   26  C7  UNL     1      15.601  11.097   3.786  1.00  0.00     0.210 C 
ENDBRANCH   2  25
BRANCH   3  27
HETATM   27  O6  UNL     1      16.749   9.352   6.337  1.00  0.00    -0.273 OA
BRANCH  27  28
HETATM   28  C9  UNL     1      15.611   8.597   6.467  1.00  0.00     0.260 C 
HETATM   29  C10 UNL     1      15.178   8.002   7.773  1.00  0.00     0.126 C 
HETATM   30  O7  UNL     1      14.916   8.405   5.432  1.00  0.00    -0.265 OA
ENDBRANCH  27  28
ENDBRANCH   3  27
BRANCH   4  31
HETATM   31  O8  UNL     1      18.385   7.214   6.317  1.00  0.00    -0.357 OA
ATOM     32  H8  UNL     1      17.858   6.439   6.162  1.00  0.00     0.218 HD
ENDBRANCH   4  31
TORSDOF 9
ENDMDL
MODEL 3
REMARK VINA RESULT: -8.519823849      4.240      7.922
REMARK  9 active torsions:
REMARK  status: ('A' for Active; 'I' for Inactive)
REMARK    1  A    between atoms: O1_2  and  N1_3 
REMARK    2  A    between atoms: C2_5  and  C4_7 
REMARK    3  A    between atoms: C4_7  and  S1_8 
REMARK    4  A    between atoms: S1_8  and  O4_11 
REMARK    5  A    between atoms: O4_11  and  C5_12 
REMARK    6  A    between atoms: C6_13  and  O5_14 
REMARK    7  A    between atoms: C8_16  and  O6_17 
REMARK    8  A    between atoms: O6_17  and  C9_18 
REMARK    9  A    between atoms: C11_21  and  O8_22 
ROOT
HETATM    1  C5  UNL     1      17.080   9.282   3.568  1.00  0.00     0.160 A 
HETATM    2  C6  UNL     1      17.159   9.953   2.354  1.00  0.00     0.143 A 
HETATM    3  C8  UNL     1      18.260   9.888   1.548  1.00  0.00     0.149 A 
HETATM    4  C11 UNL     1      19.344   9.126   1.951  1.00  0.00     0.119 A 
HETATM    5  C12 UNL     1      19.316   8.433   3.163  1.00  0.00     0.084 A 
HETATM    6  C13 UNL     1      18.194   8.520   3.944  1.00  0.00     0.133 A 
HETATM    7  O9  UNL     1      18.164   7.820   5.158  1.00  0.00    -0.274 OA
HETATM    8  C14 UNL     1      19.212   7.042   5.605  1.00  0.00     0.275 C 
HETATM    9  O10 UNL     1      19.330   6.755   6.801  1.00  0.00    -0.264 OA
HETATM   10  C15 UNL     1      20.208   6.554   4.603  1.00  0.00     0.157 C 
HETATM   11  C16 UNL     1      19.663   5.382   3.818  1.00  0.00     0.029 C 
HETATM   12  C17 UNL     1      20.453   7.656   3.620  1.00  0.00     0.178 C 
HETATM   13  O11 UNL     1      21.596   7.882   3.225  1.00  0.00    -0.291 OA
ENDROOT
BRANCH   1  14
HETATM   14  O4  UNL     1      16.022   9.307   4.406  1.00  0.00    -0.227 OA
BRANCH  14  15
HETATM   15  S1  UNL     1      14.967   9.976   5.203  1.00  0.00     0.275 S 
HETATM   16  O2  UNL     1      15.196  11.472   4.898  1.00  0.00    -0.198 OA
HETATM   17  O3  UNL     1      13.665   8.575   4.628  1.00  0.00    -0.198 OA
BRANCH  15  18
HETATM   18  C4  UNL     1      14.050  10.149   6.772  1.00  0.00     0.225 C 
BRANCH  18  19
HETATM   19  C2  UNL     1      14.652   9.472   7.951  1.00  0.00     0.022 C 
HETATM   20  N1  UNL     1      14.676   9.976   9.113  1.00  0.00    -0.275 N 
ATOM     21  H1  UNL     1      15.132   9.422   9.838  1.00  0.00     0.193 HD
HETATM   22  C3  UNL     1      15.300   8.125   7.790  1.00  0.00     0.066 C 
BRANCH  20  23
HETATM   23  O1  UNL     1      14.169  11.160   9.497  1.00  0.00    -0.285 OA
HETATM   24  C1  UNL     1      13.641  11.408  10.776  1.00  0.00     0.237 C 
ENDBRANCH  20  23
ENDBRANCH  18  19
ENDBRANCH  15  18
ENDBRANCH  14  15
ENDBRANCH   1  14
BRANCH   2  25
HETATM   25  O5  UNL     1      16.015  10.697   2.031  1.00  0.00    -0.350 OA
HETATM   26  C7  UNL     1      15.035  10.093   1.238  1.00  0.00     0.210 C 
ENDBRANCH   2  25
BRANCH   3  27
HETATM   27  O6  UNL     1      18.294  10.568   0.355  1.00  0.00    -0.273 OA
BRANCH  27  28
HETATM   28  C9  UNL     1      18.854  11.813   0.212  1.00  0.00     0.260 C 
HETATM   29  C10 UNL     1      18.139  13.072   0.596  1.00  0.00     0.126 C 
HETATM   30  O7  UNL     1      20.019  11.876  -0.267  1.00  0.00    -0.265 OA
ENDBRANCH  27  28
ENDBRANCH   3  27
BRANCH   4  31
HETATM   31  O8  UNL     1      20.410   9.091   1.118  1.00  0.00    -0.357 OA
ATOM     32  H8  UNL     1      20.529   8.299   0.607  1.00  0.00     0.218 HD
ENDBRANCH   4  31
TORSDOF 9
ENDMDL
MODEL 4
REMARK VINA RESULT: -8.483484841      2.826      4.627
REMARK  9 active torsions:
REMARK  status: ('A' for Active; 'I' for Inactive)
REMARK    1  A    between atoms: O1_2  and  N1_3 
REMARK    2  A    between atoms: C2_5  and  C4_7 
REMARK    3  A    between atoms: C4_7  and  S1_8 
REMARK    4  A    between atoms: S1_8  and  O4_11 
REMARK    5  A    between atoms: O4_11  and  C5_12 
REMARK    6  A    between atoms: C6_13  and  O5_14 
REMARK    7  A    between atoms: C8_16  and  O6_17 
REMARK    8  A    between atoms: O6_17  and  C9_18 
REMARK    9  A    between atoms: C11_21  and  O8_22 
ROOT
HETATM    1  C5  UNL     1      17.729  10.335   3.765  1.00  0.00     0.160 A 
HETATM    2  C6  UNL     1      16.588  10.486   4.545  1.00  0.00     0.143 A 
HETATM    3  C8  UNL     1      16.304   9.667   5.600  1.00  0.00     0.149 A 
HETATM    4  C11 UNL     1      17.183   8.642   5.911  1.00  0.00     0.119 A 
HETATM    5  C12 UNL     1      18.343   8.447   5.159  1.00  0.00     0.084 A 
HETATM    6  C13 UNL     1      18.596   9.289   4.109  1.00  0.00     0.133 A 
HETATM    7  O9  UNL     1      19.763   9.096   3.357  1.00  0.00    -0.274 OA
HETATM    8  C14 UNL     1      20.675   8.096   3.626  1.00  0.00     0.275 C 
HETATM    9  O10 UNL     1      21.468   7.706   2.763  1.00  0.00    -0.264 OA
HETATM   10  C15 UNL     1      20.681   7.494   4.994  1.00  0.00     0.157 C 
HETATM   11  C16 UNL     1      21.372   8.401   5.988  1.00  0.00     0.029 C 
HETATM   12  C17 UNL     1      19.260   7.359   5.446  1.00  0.00     0.178 C 
HETATM   13  O11 UNL     1      18.900   6.345   6.042  1.00  0.00    -0.291 OA
ENDROOT
BRANCH   1  14
HETATM   14  O4  UNL     1      18.063  11.111   2.713  1.00  0.00    -0.227 OA
BRANCH  14  15
HETATM   15  S1  UNL     1      17.911  11.623   1.330  1.00  0.00     0.275 S 
HETATM   16  O2  UNL     1      17.762  13.145   1.537  1.00  0.00    -0.198 OA
HETATM   17  O3  UNL     1      19.362  10.389   0.730  1.00  0.00    -0.198 OA
BRANCH  15  18
HETATM   18  C4  UNL     1      17.148  11.490  -0.322  1.00  0.00     0.225 C 
BRANCH  18  19
HETATM   19  C2  UNL     1      16.040  10.505  -0.447  1.00  0.00     0.022 C 
HETATM   20  N1  UNL     1      15.589  10.094  -1.556  1.00  0.00    -0.275 N 
ATOM     21  H1  UNL     1      14.815   9.430  -1.513  1.00  0.00     0.193 HD
HETATM   22  C3  UNL     1      15.377   9.966   0.790  1.00  0.00     0.066 C 
BRANCH  20  23
HETATM   23  O1  UNL     1      16.015  10.434  -2.784  1.00  0.00    -0.285 OA
HETATM   24  C1  UNL     1      15.273  10.217  -3.959  1.00  0.00     0.237 C 
ENDBRANCH  20  23
ENDBRANCH  18  19
ENDBRANCH  15  18
ENDBRANCH  14  15
ENDBRANCH   1  14
BRANCH   2  25
HETATM   25  O5  UNL     1      15.760  11.549   4.154  1.00  0.00    -0.350 OA
HETATM   26  C7  UNL     1      14.535  11.247   3.553  1.00  0.00     0.210 C 
ENDBRANCH   2  25
BRANCH   3  27
HETATM   27  O6  UNL     1      15.164   9.854   6.342  1.00  0.00    -0.273 OA
BRANCH  27  28
HETATM   28  C9  UNL     1      14.116   8.968   6.352  1.00  0.00     0.260 C 
HETATM   29  C10 UNL     1      13.156   8.863   7.498  1.00  0.00     0.126 C 
HETATM   30  O7  UNL     1      13.974   8.221   5.347  1.00  0.00    -0.265 OA
ENDBRANCH  27  28
ENDBRANCH   3  27
BRANCH   4  31
HETATM   31  O8  UNL     1      16.860   7.859   6.966  1.00  0.00    -0.357 OA
ATOM     32  H8  UNL     1      15.942   7.638   7.070  1.00  0.00     0.218 HD
ENDBRANCH   4  31
TORSDOF 9
ENDMDL
MODEL 5
REMARK VINA RESULT: -8.387739908      3.055      5.595
REMARK  9 active torsions:
REMARK  status: ('A' for Active; 'I' for Inactive)
REMARK    1  A    between atoms: O1_2  and  N1_3 
REMARK    2  A    between atoms: C2_5  and  C4_7 
REMARK    3  A    between atoms: C4_7  and  S1_8 
REMARK    4  A    between atoms: S1_8  and  O4_11 
REMARK    5  A    between atoms: O4_11  and  C5_12 
REMARK    6  A    between atoms: C6_13  and  O5_14 
REMARK    7  A    between atoms: C8_16  and  O6_17 
REMARK    8  A    between atoms: O6_17  and  C9_18 
REMARK    9  A    between atoms: C11_21  and  O8_22 
ROOT
HETATM    1  C5  UNL     1      18.807   9.785   3.050  1.00  0.00     0.160 A 
HETATM    2  C6  UNL     1      19.754   8.827   3.394  1.00  0.00     0.143 A 
HETATM    3  C8  UNL     1      19.602   7.994   4.466  1.00  0.00     0.149 A 
HETATM    4  C11 UNL     1      18.461   8.102   5.244  1.00  0.00     0.119 A 
HETATM    5  C12 UNL     1      17.480   9.048   4.942  1.00  0.00     0.084 A 
HETATM    6  C13 UNL     1      17.666   9.866   3.859  1.00  0.00     0.133 A 
HETATM    7  O9  UNL     1      16.678  10.811   3.552  1.00  0.00    -0.274 OA
HETATM    8  C14 UNL     1      15.521  10.958   4.290  1.00  0.00     0.275 C 
HETATM    9  O10 UNL     1      14.867  12.005   4.249  1.00  0.00    -0.264 OA
HETATM   10  C15 UNL     1      15.077   9.815   5.144  1.00  0.00     0.157 C 
HETATM   11  C16 UNL     1      14.419   8.736   4.313  1.00  0.00     0.029 C 
HETATM   12  C17 UNL     1      16.293   9.201   5.764  1.00  0.00     0.178 C 
HETATM   13  O11 UNL     1      16.268   8.845   6.941  1.00  0.00    -0.291 OA
ENDROOT
BRANCH   1  14
HETATM   14  O4  UNL     1      18.901  10.635   2.005  1.00  0.00    -0.227 OA
BRANCH  14  15
HETATM   15  S1  UNL     1      18.366  11.394   0.851  1.00  0.00     0.275 S 
HETATM   16  O2  UNL     1      17.890  12.714   1.493  1.00  0.00    -0.198 OA
HETATM   17  O3  UNL     1      19.932  10.809  -0.241  1.00  0.00    -0.198 OA
BRANCH  15  18
HETATM   18  C4  UNL     1      17.356  11.444  -0.669  1.00  0.00     0.225 C 
BRANCH  18  19
HETATM   19  C2  UNL     1      16.115  10.625  -0.650  1.00  0.00     0.022 C 
HETATM   20  N1  UNL     1      15.533  10.208  -1.695  1.00  0.00    -0.275 N 
ATOM     21  H1  UNL     1      14.679   9.669  -1.553  1.00  0.00     0.193 HD
HETATM   22  C3  UNL     1      15.472  10.274   0.663  1.00  0.00     0.066 C 
BRANCH  20  23
HETATM   23  O1  UNL     1      15.915  10.397  -2.969  1.00  0.00    -0.285 OA
HETATM   24  C1  UNL     1      15.141  10.027  -4.083  1.00  0.00     0.237 C 
ENDBRANCH  20  23
ENDBRANCH  18  19
ENDBRANCH  15  18
ENDBRANCH  14  15
ENDBRANCH   1  14
BRANCH   2  25
HETATM   25  O5  UNL     1      20.872   8.793   2.548  1.00  0.00    -0.350 OA
HETATM   26  C7  UNL     1      20.825   7.965   1.423  1.00  0.00     0.210 C 
ENDBRANCH   2  25
BRANCH   3  27
HETATM   27  O6  UNL     1      20.564   7.063   4.768  1.00  0.00    -0.273 OA
BRANCH  27  28
HETATM   28  C9  UNL     1      20.522   5.763   4.329  1.00  0.00     0.260 C 
HETATM   29  C10 UNL     1      21.587   5.166   3.461  1.00  0.00     0.126 C 
HETATM   30  O7  UNL     1      19.536   5.061   4.682  1.00  0.00    -0.265 OA
ENDBRANCH  27  28
ENDBRANCH   3  27
BRANCH   4  31
HETATM   31  O8  UNL     1      18.354   7.254   6.293  1.00  0.00    -0.357 OA
ATOM     32  H8  UNL     1      17.504   7.196   6.713  1.00  0.00     0.218 HD
ENDBRANCH   4  31
TORSDOF 9
ENDMDL
