MODEL 1
REMARK VINA RESULT: -8.819155025      0.000      0.000
REMARK  9 active torsions:
REMARK  status: ('A' for Active; 'I' for Inactive)
REMARK    1  A    between atoms: C2_2  and  C3_3 
REMARK    2  A    between atoms: C3_3  and  N1_4 
REMARK       I    between atoms: N1_4  and  C4_6 
REMARK       I    between atoms: C4_6  and  N2_8 
REMARK    3  A    between atoms: N2_8  and  N3_10 
REMARK       I    between atoms: N3_10  and  C5_12 
REMARK    4  A    between atoms: C5_12  and  O3_14 
REMARK    5  A    between atoms: O3_14  and  N4_15 
REMARK    6  A    between atoms: C6_17  and  C7_18 
REMARK    7  A    between atoms: C6_17  and  C9_20 
REMARK    8  A    between atoms: N7_24  and  C10_25 
REMARK    9  A    between atoms: C11_31  and  N10_32 
ROOT
HETATM    1  N4  UNL     1      13.533   9.327   0.358  1.00  0.00    -0.253 N 
ATOM      2  H4  UNL     1      12.724   8.747   0.137  1.00  0.00     0.195 HD
HETATM    3  C6  UNL     1      14.492   9.391  -0.460  1.00  0.00     0.100 C 
ENDROOT
BRANCH   3   4
HETATM    4  C7  UNL     1      14.417   8.635  -1.694  1.00  0.00     0.025 C 
HETATM    5  C8  UNL     1      13.841   9.086  -2.787  1.00  0.00     0.014 C 
ENDBRANCH   3   4
BRANCH   3   6
HETATM    6  C9  UNL     1      15.671  10.193  -0.201  1.00  0.00     0.163 A 
HETATM    7  N5  UNL     1      16.163  11.238  -0.887  1.00  0.00    -0.265 N 
HETATM    8  N6  UNL     1      17.270  11.658  -0.280  1.00  0.00     0.004 NA
ATOM      9  H5  UNL     1      15.756  11.642  -1.731  1.00  0.00     0.186 HD
HETATM   10  N7  UNL     1      17.523  10.919   0.789  1.00  0.00    -0.156 N 
HETATM   11  N11 UNL     1      16.553  10.032   0.836  1.00  0.00    -0.261 N 
ATOM     12  H11 UNL     1      16.468   9.313   1.554  1.00  0.00     0.190 HD
BRANCH  10  13
HETATM   13  C10 UNL     1      18.629  11.082   1.670  1.00  0.00     0.210 A 
HETATM   14  N8  UNL     1      18.657  10.982   2.994  1.00  0.00    -0.219 N 
HETATM   15  O4  UNL     1      19.871  11.202   3.429  1.00  0.00    -0.153 OA
ATOM     16  H8  UNL     1      17.853  10.765   3.583  1.00  0.00     0.198 HD
HETATM   17  N9  UNL     1      20.680  11.450   2.454  1.00  0.00    -0.222 N 
HETATM   18  C11 UNL     1      19.956  11.389   1.306  1.00  0.00     0.170 A 
ATOM     19  H9  UNL     1      21.677  11.653   2.531  1.00  0.00     0.198 HD
BRANCH  18  20
HETATM   20  N10 UNL     1      20.280  11.554   0.124  1.00  0.00    -0.381 N 
ATOM     21 2H10 UNL     1      19.751  11.890  -0.681  1.00  0.00     0.157 HD
ATOM     22 1H10 UNL     1      21.223  11.344  -0.205  1.00  0.00     0.157 HD
ENDBRANCH  18  20
ENDBRANCH  10  13
ENDBRANCH   3   6
BRANCH   1  23
HETATM   23  O3  UNL     1      13.558  10.023   1.537  1.00  0.00    -0.179 OA
BRANCH  23  24
HETATM   24  C5  UNL     1      13.466   9.267   2.726  1.00  0.00     0.401 C 
HETATM   25  N3  UNL     1      13.484   9.860   4.001  1.00  0.00    -0.240 N 
ATOM     26  H3  UNL     1      13.569  10.872   4.094  1.00  0.00     0.192 HD
HETATM   27  O2  UNL     1      13.364   8.019   2.629  1.00  0.00    -0.235 OA
BRANCH  25  28
HETATM   28  N2  UNL     1      13.387   9.060   5.130  1.00  0.00    -0.247 N 
HETATM   29  C4  UNL     1      13.870   9.385   6.419  1.00  0.00     0.335 C 
HETATM   30  N1  UNL     1      13.698   8.461   7.476  1.00  0.00    -0.338 N 
HETATM   31  O1  UNL     1      14.439  10.470   6.611  1.00  0.00    -0.246 OA
ATOM     32  H1  UNL     1      13.236   7.570   7.292  1.00  0.00     0.164 HD
ATOM     33  H2  UNL     1      12.925   8.157   5.021  1.00  0.00     0.192 HD
BRANCH  30  34
HETATM   34  C3  UNL     1      14.155   8.750   8.788  1.00  0.00     0.151 C 
BRANCH  34  35
HETATM   35  C2  UNL     1      13.207   9.541   9.569  1.00  0.00    -0.018 C 
HETATM   36  C1  UNL     1      13.450  10.724  10.078  1.00  0.00     0.008 C 
ENDBRANCH  34  35
ENDBRANCH  30  34
ENDBRANCH  25  28
ENDBRANCH  23  24
ENDBRANCH   1  23
TORSDOF 9
ENDMDL
MODEL 2
REMARK VINA RESULT: -8.749883000      2.571      5.104
REMARK  9 active torsions:
REMARK  status: ('A' for Active; 'I' for Inactive)
REMARK    1  A    between atoms: C2_2  and  C3_3 
REMARK    2  A    between atoms: C3_3  and  N1_4 
REMARK       I    between atoms: N1_4  and  C4_6 
REMARK       I    between atoms: C4_6  and  N2_8 
REMARK    3  A    between atoms: N2_8  and  N3_10 
REMARK       I    between atoms: N3_10  and  C5_12 
REMARK    4  A    between atoms: C5_12  and  O3_14 
REMARK    5  A    between atoms: O3_14  and  N4_15 
REMARK    6  A    between atoms: C6_17  and  C7_18 
REMARK    7  A    between atoms: C6_17  and  C9_20 
REMARK    8  A    between atoms: N7_24  and  C10_25 
REMARK    9  A    between atoms: C11_31  and  N10_32 
ROOT
HETATM    1  N4  UNL     1      16.680  10.976   2.130  1.00  0.00    -0.253 N 
ATOM      2  H4  UNL     1      17.293  11.467   2.781  1.00  0.00     0.195 HD
HETATM    3  C6  UNL     1      16.993  10.914   0.910  1.00  0.00     0.100 C 
ENDROOT
BRANCH   3   4
HETATM    4  C7  UNL     1      18.220  11.546   0.465  1.00  0.00     0.025 C 
HETATM    5  C8  UNL     1      18.553  12.780   0.774  1.00  0.00     0.014 C 
ENDBRANCH   3   4
BRANCH   3   6
HETATM    6  C9  UNL     1      16.161  10.237  -0.064  1.00  0.00     0.163 A 
HETATM    7  N5  UNL     1      15.389   9.146   0.080  1.00  0.00    -0.265 N 
HETATM    8  N6  UNL     1      14.809   8.882  -1.089  1.00  0.00     0.004 NA
ATOM      9  H5  UNL     1      15.268   8.612   0.940  1.00  0.00     0.186 HD
HETATM   10  N7  UNL     1      15.178   9.769  -2.001  1.00  0.00    -0.156 N 
HETATM   11  N11 UNL     1      15.997  10.589  -1.378  1.00  0.00    -0.261 N 
ATOM     12  H11 UNL     1      16.453  11.387  -1.819  1.00  0.00     0.190 HD
BRANCH  10  13
HETATM   13  C10 UNL     1      14.756   9.786  -3.360  1.00  0.00     0.210 A 
HETATM   14  N8  UNL     1      15.496   9.910  -4.456  1.00  0.00    -0.219 N 
HETATM   15  O4  UNL     1      14.728   9.878  -5.514  1.00  0.00    -0.153 OA
ATOM     16  H8  UNL     1      16.511  10.014  -4.471  1.00  0.00     0.198 HD
HETATM   17  N9  UNL     1      13.486   9.736  -5.188  1.00  0.00    -0.222 N 
HETATM   18  C11 UNL     1      13.433   9.671  -3.832  1.00  0.00     0.170 A 
ATOM     19  H9  UNL     1      12.694   9.683  -5.828  1.00  0.00     0.198 HD
BRANCH  18  20
HETATM   20  N10 UNL     1      12.479   9.542  -3.056  1.00  0.00    -0.381 N 
ATOM     21 2H10 UNL     1      12.445   9.360  -2.053  1.00  0.00     0.157 HD
ATOM     22 1H10 UNL     1      11.514   9.610  -3.381  1.00  0.00     0.157 HD
ENDBRANCH  18  20
ENDBRANCH  10  13
ENDBRANCH   3   6
BRANCH   1  23
HETATM   23  O3  UNL     1      15.531  10.396   2.598  1.00  0.00    -0.179 OA
BRANCH  23  24
HETATM   24  C5  UNL     1      15.120  10.754   3.901  1.00  0.00     0.401 C 
HETATM   25  N3  UNL     1      14.295   9.929   4.686  1.00  0.00    -0.240 N 
ATOM     26  H3  UNL     1      13.967   9.035   4.320  1.00  0.00     0.192 HD
HETATM   27  O2  UNL     1      15.512  11.853   4.365  1.00  0.00    -0.235 OA
BRANCH  25  28
HETATM   28  N2  UNL     1      13.929  10.339   5.960  1.00  0.00    -0.247 N 
HETATM   29  C4  UNL     1      14.566   9.964   7.165  1.00  0.00     0.335 C 
HETATM   30  N1  UNL     1      14.073  10.464   8.393  1.00  0.00    -0.338 N 
HETATM   31  O1  UNL     1      15.545   9.204   7.136  1.00  0.00    -0.246 OA
ATOM     32  H1  UNL     1      13.260  11.080   8.393  1.00  0.00     0.164 HD
ATOM     33  H2  UNL     1      13.128  10.967   6.033  1.00  0.00     0.192 HD
BRANCH  30  34
HETATM   34  C3  UNL     1      14.689  10.125   9.626  1.00  0.00     0.151 C 
BRANCH  34  35
HETATM   35  C2  UNL     1      14.563  11.169  10.641  1.00  0.00    -0.018 C 
HETATM   36  C1  UNL     1      13.453  11.794  10.948  1.00  0.00     0.008 C 
ENDBRANCH  34  35
ENDBRANCH  30  34
ENDBRANCH  25  28
ENDBRANCH  23  24
ENDBRANCH   1  23
TORSDOF 9
ENDMDL
MODEL 3
REMARK VINA RESULT: -8.676039946      2.061      4.566
REMARK  9 active torsions:
REMARK  status: ('A' for Active; 'I' for Inactive)
REMARK    1  A    between atoms: C2_2  and  C3_3 
REMARK    2  A    between atoms: C3_3  and  N1_4 
REMARK       I    between atoms: N1_4  and  C4_6 
REMARK       I    between atoms: C4_6  and  N2_8 
REMARK    3  A    between atoms: N2_8  and  N3_10 
REMARK       I    between atoms: N3_10  and  C5_12 
REMARK    4  A    between atoms: C5_12  and  O3_14 
REMARK    5  A    between atoms: O3_14  and  N4_15 
REMARK    6  A    between atoms: C6_17  and  C7_18 
REMARK    7  A    between atoms: C6_17  and  C9_20 
REMARK    8  A    between atoms: N7_24  and  C10_25 
REMARK    9  A    between atoms: C11_31  and  N10_32 
ROOT
HETATM    1  N4  UNL     1      17.016   9.070   2.976  1.00  0.00    -0.253 N 
ATOM      2  H4  UNL     1      17.526   8.735   3.794  1.00  0.00     0.195 HD
HETATM    3  C6  UNL     1      17.626   9.739   2.098  1.00  0.00     0.100 C 
ENDROOT
BRANCH   3   4
HETATM    4  C7  UNL     1      19.038  10.016   2.276  1.00  0.00     0.025 C 
HETATM    5  C8  UNL     1      19.969   9.088   2.239  1.00  0.00     0.014 C 
ENDBRANCH   3   4
BRANCH   3   6
HETATM    6  C9  UNL     1      16.957  10.247   0.916  1.00  0.00     0.163 A 
HETATM    7  N5  UNL     1      17.160  11.392   0.244  1.00  0.00    -0.265 N 
HETATM    8  N6  UNL     1      16.307  11.438  -0.777  1.00  0.00     0.004 NA
ATOM      9  H5  UNL     1      17.850  12.105   0.477  1.00  0.00     0.186 HD
HETATM   10  N7  UNL     1      15.547  10.355  -0.797  1.00  0.00    -0.156 N 
HETATM   11  N11 UNL     1      15.942   9.633   0.230  1.00  0.00    -0.261 N 
ATOM     12  H11 UNL     1      15.542   8.730   0.483  1.00  0.00     0.190 HD
BRANCH  10  13
HETATM   13  C10 UNL     1      14.523  10.075  -1.745  1.00  0.00     0.210 A 
HETATM   14  N8  UNL     1      13.230   9.858  -1.531  1.00  0.00    -0.219 N 
HETATM   15  O4  UNL     1      12.624   9.638  -2.669  1.00  0.00    -0.153 OA
ATOM     16  H8  UNL     1      12.778   9.863  -0.616  1.00  0.00     0.198 HD
HETATM   17  N9  UNL     1      13.451   9.695  -3.659  1.00  0.00    -0.222 N 
HETATM   18  C11 UNL     1      14.677   9.970  -3.143  1.00  0.00     0.170 A 
ATOM     19  H9  UNL     1      13.225   9.560  -4.645  1.00  0.00     0.198 HD
BRANCH  18  20
HETATM   20  N10 UNL     1      15.779  10.117  -3.685  1.00  0.00    -0.381 N 
ATOM     21 2H10 UNL     1      16.711   9.806  -3.413  1.00  0.00     0.157 HD
ATOM     22 1H10 UNL     1      15.877  10.630  -4.561  1.00  0.00     0.157 HD
ENDBRANCH  18  20
ENDBRANCH  10  13
ENDBRANCH   3   6
BRANCH   1  23
HETATM   23  O3  UNL     1      15.683   8.784   2.852  1.00  0.00    -0.179 OA
BRANCH  23  24
HETATM   24  C5  UNL     1      14.860   9.083   3.960  1.00  0.00     0.401 C 
HETATM   25  N3  UNL     1      15.156  10.119   4.862  1.00  0.00    -0.240 N 
ATOM     26  H3  UNL     1      15.993  10.688   4.733  1.00  0.00     0.192 HD
HETATM   27  O2  UNL     1      13.827   8.390   4.135  1.00  0.00    -0.235 OA
BRANCH  25  28
HETATM   28  N2  UNL     1      14.304  10.363   5.930  1.00  0.00    -0.247 N 
HETATM   29  C4  UNL     1      14.533   9.990   7.275  1.00  0.00     0.335 C 
HETATM   30  N1  UNL     1      13.565  10.308   8.255  1.00  0.00    -0.338 N 
HETATM   31  O1  UNL     1      15.573   9.390   7.581  1.00  0.00    -0.246 OA
ATOM     32  H1  UNL     1      12.712  10.794   7.978  1.00  0.00     0.164 HD
ATOM     33  H2  UNL     1      13.435  10.856   5.726  1.00  0.00     0.192 HD
BRANCH  30  34
HETATM   34  C3  UNL     1      13.758   9.964   9.619  1.00  0.00     0.151 C 
BRANCH  34  35
HETATM   35  C2  UNL     1      14.232  11.081  10.434  1.00  0.00    -0.018 C 
HETATM   36  C1  UNL     1      13.481  11.816  11.217  1.00  0.00     0.008 C 
ENDBRANCH  34  35
ENDBRANCH  30  34
ENDBRANCH  25  28
ENDBRANCH  23  24
ENDBRANCH   1  23
TORSDOF 9
ENDMDL
MODEL 4
REMARK VINA RESULT: -8.617963703      2.121      6.766
REMARK  9 active torsions:
REMARK  status: ('A' for Active; 'I' for Inactive)
REMARK    1  A    between atoms: C2_2  and  C3_3 
REMARK    2  A    between atoms: C3_3  and  N1_4 
REMARK       I    between atoms: N1_4  and  C4_6 
REMARK       I    between atoms: C4_6  and  N2_8 
REMARK    3  A    between atoms: N2_8  and  N3_10 
REMARK       I    between atoms: N3_10  and  C5_12 
REMARK    4  A    between atoms: C5_12  and  O3_14 
REMARK    5  A    between atoms: O3_14  and  N4_15 
REMARK    6  A    between atoms: C6_17  and  C7_18 
REMARK    7  A    between atoms: C6_17  and  C9_20 
REMARK    8  A    between atoms: N7_24  and  C10_25 
REMARK    9  A    between atoms: C11_31  and  N10_32 
ROOT
HETATM    1  N4  UNL     1      13.930   9.619   4.228  1.00  0.00    -0.253 N 
ATOM      2  H4  UNL     1      13.356   8.969   4.766  1.00  0.00     0.195 HD
HETATM    3  C6  UNL     1      15.144   9.771   4.534  1.00  0.00     0.100 C 
ENDROOT
BRANCH   3   4
HETATM    4  C7  UNL     1      15.692   9.018   5.645  1.00  0.00     0.025 C 
HETATM    5  C8  UNL     1      14.956   8.519   6.615  1.00  0.00     0.014 C 
ENDBRANCH   3   4
BRANCH   3   6
HETATM    6  C9  UNL     1      16.010  10.683   3.813  1.00  0.00     0.163 A 
HETATM    7  N5  UNL     1      16.097  12.022   3.890  1.00  0.00    -0.265 N 
HETATM    8  N6  UNL     1      17.032  12.434   3.036  1.00  0.00     0.004 NA
ATOM      9  H5  UNL     1      15.540  12.621   4.499  1.00  0.00     0.186 HD
HETATM   10  N7  UNL     1      17.564  11.403   2.398  1.00  0.00    -0.156 N 
HETATM   11  N11 UNL     1      16.945  10.343   2.870  1.00  0.00    -0.261 N 
ATOM     12  H11 UNL     1      17.136   9.387   2.571  1.00  0.00     0.190 HD
BRANCH  10  13
HETATM   13  C10 UNL     1      18.587  11.476   1.411  1.00  0.00     0.210 A 
HETATM   14  N8  UNL     1      18.466  11.709   0.108  1.00  0.00    -0.219 N 
HETATM   15  O4  UNL     1      19.647  11.695  -0.454  1.00  0.00    -0.153 OA
ATOM     16  H8  UNL     1      17.586  11.873  -0.379  1.00  0.00     0.198 HD
HETATM   17  N9  UNL     1      20.576  11.462   0.412  1.00  0.00    -0.222 N 
HETATM   18  C11 UNL     1      19.971  11.313   1.619  1.00  0.00     0.170 A 
ATOM     19  H9  UNL     1      21.577  11.402   0.225  1.00  0.00     0.198 HD
BRANCH  18  20
HETATM   20  N10 UNL     1      20.433  11.077   2.742  1.00  0.00    -0.381 N 
ATOM     21 2H10 UNL     1      21.032  11.629   3.356  1.00  0.00     0.157 HD
ATOM     22 1H10 UNL     1      20.238  10.198   3.224  1.00  0.00     0.157 HD
ENDBRANCH  18  20
ENDBRANCH  10  13
ENDBRANCH   3   6
BRANCH   1  23
HETATM   23  O3  UNL     1      13.368  10.309   3.188  1.00  0.00    -0.179 OA
BRANCH  23  24
HETATM   24  C5  UNL     1      13.247   9.625   1.959  1.00  0.00     0.401 C 
HETATM   25  N3  UNL     1      13.891  10.058   0.787  1.00  0.00    -0.240 N 
ATOM     26  H3  UNL     1      14.472  10.896   0.801  1.00  0.00     0.192 HD
HETATM   27  O2  UNL     1      12.533   8.593   1.924  1.00  0.00    -0.235 OA
BRANCH  25  28
HETATM   28  N2  UNL     1      13.733   9.338  -0.388  1.00  0.00    -0.247 N 
HETATM   29  C4  UNL     1      13.635   9.886  -1.689  1.00  0.00     0.335 C 
HETATM   30  N1  UNL     1      13.472   9.020  -2.794  1.00  0.00    -0.338 N 
HETATM   31  O1  UNL     1      13.692  11.114  -1.847  1.00  0.00    -0.246 OA
ATOM     32  H1  UNL     1      13.418   8.013  -2.638  1.00  0.00     0.164 HD
ATOM     33  H2  UNL     1      13.682   8.323  -0.308  1.00  0.00     0.192 HD
BRANCH  30  34
HETATM   34  C3  UNL     1      13.383   9.525  -4.118  1.00  0.00     0.151 C 
BRANCH  34  35
HETATM   35  C2  UNL     1      14.602   9.321  -4.897  1.00  0.00    -0.018 C 
HETATM   36  C1  UNL     1      15.430  10.268  -5.266  1.00  0.00     0.008 C 
ENDBRANCH  34  35
ENDBRANCH  30  34
ENDBRANCH  25  28
ENDBRANCH  23  24
ENDBRANCH   1  23
TORSDOF 9
ENDMDL
MODEL 5
REMARK VINA RESULT: -8.551756279      1.293      1.607
REMARK  9 active torsions:
REMARK  status: ('A' for Active; 'I' for Inactive)
REMARK    1  A    between atoms: C2_2  and  C3_3 
REMARK    2  A    between atoms: C3_3  and  N1_4 
REMARK       I    between atoms: N1_4  and  C4_6 
REMARK       I    between atoms: C4_6  and  N2_8 
REMARK    3  A    between atoms: N2_8  and  N3_10 
REMARK       I    between atoms: N3_10  and  C5_12 
REMARK    4  A    between atoms: C5_12  and  O3_14 
REMARK    5  A    between atoms: O3_14  and  N4_15 
REMARK    6  A    between atoms: C6_17  and  C7_18 
REMARK    7  A    between atoms: C6_17  and  C9_20 
REMARK    8  A    between atoms: N7_24  and  C10_25 
REMARK    9  A    between atoms: C11_31  and  N10_32 
ROOT
HETATM    1  N4  UNL     1      13.641   9.658   0.955  1.00  0.00    -0.253 N 
ATOM      2  H4  UNL     1      12.646   9.436   0.981  1.00  0.00     0.195 HD
HETATM    3  C6  UNL     1      14.114  10.266  -0.043  1.00  0.00     0.100 C 
ENDROOT
BRANCH   3   4
HETATM    4  C7  UNL     1      13.228  10.634  -1.130  1.00  0.00     0.025 C 
HETATM    5  C8  UNL     1      12.969   9.847  -2.152  1.00  0.00     0.014 C 
ENDBRANCH   3   4
BRANCH   3   6
HETATM    6  C9  UNL     1      15.520  10.605  -0.142  1.00  0.00     0.163 A 
HETATM    7  N5  UNL     1      16.252  10.915  -1.225  1.00  0.00    -0.265 N 
HETATM    8  N6  UNL     1      17.503  11.149  -0.836  1.00  0.00     0.004 NA
ATOM      9  H5  UNL     1      15.907  10.963  -2.183  1.00  0.00     0.186 HD
HETATM   10  N7  UNL     1      17.617  11.001   0.475  1.00  0.00    -0.156 N 
HETATM   11  N11 UNL     1      16.415  10.672   0.894  1.00  0.00    -0.261 N 
ATOM     12  H11 UNL     1      16.178  10.488   1.869  1.00  0.00     0.190 HD
BRANCH  10  13
HETATM   13  C10 UNL     1      18.814  11.167   1.229  1.00  0.00     0.210 A 
HETATM   14  N8  UNL     1      19.565  12.255   1.362  1.00  0.00    -0.219 N 
HETATM   15  O4  UNL     1      20.582  11.995   2.143  1.00  0.00    -0.153 OA
ATOM     16  H8  UNL     1      19.376  13.156   0.923  1.00  0.00     0.198 HD
HETATM   17  N9  UNL     1      20.559  10.771   2.552  1.00  0.00    -0.222 N 
HETATM   18  C11 UNL     1      19.460  10.187   2.008  1.00  0.00     0.170 A 
ATOM     19  H9  UNL     1      21.239  10.325   3.168  1.00  0.00     0.198 HD
BRANCH  18  20
HETATM   20  N10 UNL     1      19.014   9.036   2.099  1.00  0.00    -0.381 N 
ATOM     21 2H10 UNL     1      18.445   8.481   1.461  1.00  0.00     0.157 HD
ATOM     22 1H10 UNL     1      19.191   8.461   2.923  1.00  0.00     0.157 HD
ENDBRANCH  18  20
ENDBRANCH  10  13
ENDBRANCH   3   6
BRANCH   1  23
HETATM   23  O3  UNL     1      14.438   9.289   2.005  1.00  0.00    -0.179 OA
BRANCH  23  24
HETATM   24  C5  UNL     1      14.259   9.988   3.219  1.00  0.00     0.401 C 
HETATM   25  N3  UNL     1      13.994   9.334   4.435  1.00  0.00    -0.240 N 
ATOM     26  H3  UNL     1      13.921   8.317   4.465  1.00  0.00     0.192 HD
HETATM   27  O2  UNL     1      14.342  11.241   3.199  1.00  0.00    -0.235 OA
BRANCH  25  28
HETATM   28  N2  UNL     1      13.830  10.080   5.593  1.00  0.00    -0.247 N 
HETATM   29  C4  UNL     1      13.816   9.570   6.912  1.00  0.00     0.335 C 
HETATM   30  N1  UNL     1      13.637  10.460   7.996  1.00  0.00    -0.338 N 
HETATM   31  O1  UNL     1      13.960   8.354   7.105  1.00  0.00    -0.246 OA
ATOM     32  H1  UNL     1      13.510  11.455   7.812  1.00  0.00     0.164 HD
ATOM     33  H2  UNL     1      13.710  11.087   5.483  1.00  0.00     0.192 HD
BRANCH  30  34
HETATM   34  C3  UNL     1      13.629   9.994   9.338  1.00  0.00     0.151 C 
BRANCH  34  35
HETATM   35  C2  UNL     1      14.218  10.941  10.281  1.00  0.00    -0.018 C 
HETATM   36  C1  UNL     1      13.543  11.744  11.066  1.00  0.00     0.008 C 
ENDBRANCH  34  35
ENDBRANCH  30  34
ENDBRANCH  25  28
ENDBRANCH  23  24
ENDBRANCH   1  23
TORSDOF 9
ENDMDL
