MODEL 1
REMARK VINA RESULT: -5.496986292      0.000      0.000
REMARK  8 active torsions:
REMARK  status: ('A' for Active; 'I' for Inactive)
REMARK    1  A    between atoms: S1_2  and  C2_3 
REMARK    2  A    between atoms: C2_3  and  S3_5 
REMARK    3  A    between atoms: S3_5  and  C3_6 
REMARK    4  A    between atoms: C3_6  and  C4_7 
REMARK    5  A    between atoms: C4_7  and  C5_8 
REMARK    6  A    between atoms: C5_8  and  C6_9 
REMARK    7  A    between atoms: C6_9  and  C7_10 
REMARK    8  A    between atoms: C7_10  and  N1_11 
ROOT
HETATM    1  C6  UNL     1       5.026  48.200  50.078  1.00  0.00     0.019 C 
ENDROOT
BRANCH   1   2
HETATM    2  C5  UNL     1       5.821  49.136  50.938  1.00  0.00     0.002 C 
BRANCH   2   3
HETATM    3  C4  UNL     1       6.828  49.975  50.200  1.00  0.00     0.010 C 
BRANCH   3   4
HETATM    4  C3  UNL     1       6.517  51.416  50.547  1.00  0.00     0.081 C 
BRANCH   4   5
HETATM    5  S3  UNL     1       5.891  52.345  49.162  1.00  0.00    -0.111 SA
BRANCH   5   6
HETATM    6  C2  UNL     1       4.233  52.896  49.494  1.00  0.00     0.103 C 
HETATM    7  S2  UNL     1       3.343  52.109  50.292  1.00  0.00    -0.065 SA
BRANCH   6   8
HETATM    8  S1  UNL     1       3.607  54.443  48.833  1.00  0.00    -0.116 SA
HETATM    9  C1  UNL     1       4.971  55.383  48.094  1.00  0.00     0.097 C 
ENDBRANCH   6   8
ENDBRANCH   5   6
ENDBRANCH   4   5
ENDBRANCH   3   4
ENDBRANCH   2   3
ENDBRANCH   1   2
BRANCH   1  10
HETATM   10  C7  UNL     1       4.527  48.768  48.812  1.00  0.00     0.117 C 
BRANCH  10  11
HETATM   11  N1  UNL     1       4.954  48.009  47.690  1.00  0.00    -0.405 N 
HETATM   12  C8  UNL     1       4.405  46.669  47.661  1.00  0.00     0.136 C 
HETATM   13  C9  UNL     1       4.609  46.132  46.261  1.00  0.00     0.133 C 
HETATM   14  N2  UNL     1       6.005  45.966  46.032  1.00  0.00    -0.418 N 
HETATM   15  C10 UNL     1       6.885  46.793  46.774  1.00  0.00     0.138 C 
ATOM     16  H2  UNL     1       6.357  45.282  45.362  1.00  0.00     0.153 HD
HETATM   17  C11 UNL     1       6.303  48.085  47.286  1.00  0.00     0.092 C 
HETATM   18  C12 UNL     1       6.436  49.158  46.209  1.00  0.00     0.033 C 
ENDBRANCH  10  11
ENDBRANCH   1  10
TORSDOF 8
ENDMDL
MODEL 2
REMARK VINA RESULT: -5.471097330      1.331      2.588
REMARK  8 active torsions:
REMARK  status: ('A' for Active; 'I' for Inactive)
REMARK    1  A    between atoms: S1_2  and  C2_3 
REMARK    2  A    between atoms: C2_3  and  S3_5 
REMARK    3  A    between atoms: S3_5  and  C3_6 
REMARK    4  A    between atoms: C3_6  and  C4_7 
REMARK    5  A    between atoms: C4_7  and  C5_8 
REMARK    6  A    between atoms: C5_8  and  C6_9 
REMARK    7  A    between atoms: C6_9  and  C7_10 
REMARK    8  A    between atoms: C7_10  and  N1_11 
ROOT
HETATM    1  C6  UNL     1       6.737  50.355  48.384  1.00  0.00     0.019 C 
ENDROOT
BRANCH   1   2
HETATM    2  C5  UNL     1       7.118  49.800  49.724  1.00  0.00     0.002 C 
BRANCH   2   3
HETATM    3  C4  UNL     1       6.044  49.881  50.774  1.00  0.00     0.010 C 
BRANCH   3   4
HETATM    4  C3  UNL     1       5.917  51.344  51.141  1.00  0.00     0.081 C 
BRANCH   4   5
HETATM    5  S3  UNL     1       4.233  51.924  51.116  1.00  0.00    -0.111 SA
BRANCH   5   6
HETATM    6  C2  UNL     1       3.846  52.612  49.522  1.00  0.00     0.103 C 
HETATM    7  S2  UNL     1       4.607  53.699  48.986  1.00  0.00    -0.065 SA
BRANCH   6   8
HETATM    8  S1  UNL     1       2.483  51.986  48.535  1.00  0.00    -0.116 SA
HETATM    9  C1  UNL     1       2.148  50.262  48.989  1.00  0.00     0.097 C 
ENDBRANCH   6   8
ENDBRANCH   5   6
ENDBRANCH   4   5
ENDBRANCH   3   4
ENDBRANCH   2   3
ENDBRANCH   1   2
BRANCH   1  10
HETATM   10  C7  UNL     1       5.547  49.747  47.759  1.00  0.00     0.117 C 
BRANCH  10  11
HETATM   11  N1  UNL     1       5.769  48.386  47.420  1.00  0.00    -0.405 N 
HETATM   12  C8  UNL     1       6.489  48.212  46.176  1.00  0.00     0.136 C 
HETATM   13  C9  UNL     1       6.990  46.785  46.143  1.00  0.00     0.133 C 
HETATM   14  N2  UNL     1       5.872  45.908  46.050  1.00  0.00    -0.418 N 
HETATM   15  C10 UNL     1       4.638  46.376  46.565  1.00  0.00     0.138 C 
ATOM     16  H2  UNL     1       5.957  44.982  45.629  1.00  0.00     0.153 HD
HETATM   17  C11 UNL     1       4.726  47.455  47.614  1.00  0.00     0.092 C 
HETATM   18  C12 UNL     1       4.889  46.809  48.987  1.00  0.00     0.033 C 
ENDBRANCH  10  11
ENDBRANCH   1  10
TORSDOF 8
ENDMDL
MODEL 3
REMARK VINA RESULT: -5.429628350      4.276      6.026
REMARK  8 active torsions:
REMARK  status: ('A' for Active; 'I' for Inactive)
REMARK    1  A    between atoms: S1_2  and  C2_3 
REMARK    2  A    between atoms: C2_3  and  S3_5 
REMARK    3  A    between atoms: S3_5  and  C3_6 
REMARK    4  A    between atoms: C3_6  and  C4_7 
REMARK    5  A    between atoms: C4_7  and  C5_8 
REMARK    6  A    between atoms: C5_8  and  C6_9 
REMARK    7  A    between atoms: C6_9  and  C7_10 
REMARK    8  A    between atoms: C7_10  and  N1_11 
ROOT
HETATM    1  C6  UNL     1       4.699  46.318  49.448  1.00  0.00     0.019 C 
ENDROOT
BRANCH   1   2
HETATM    2  C5  UNL     1       3.404  46.380  50.201  1.00  0.00     0.002 C 
BRANCH   2   3
HETATM    3  C4  UNL     1       2.682  47.697  50.114  1.00  0.00     0.010 C 
BRANCH   3   4
HETATM    4  C3  UNL     1       1.292  47.388  49.599  1.00  0.00     0.081 C 
BRANCH   4   5
HETATM    5  S3  UNL     1       0.843  45.675  49.798  1.00  0.00    -0.111 SA
BRANCH   5   6
HETATM    6  C2  UNL     1      -0.293  45.495  51.155  1.00  0.00     0.103 C 
HETATM    7  S2  UNL     1      -1.402  44.593  51.071  1.00  0.00    -0.065 SA
BRANCH   6   8
HETATM    8  S1  UNL     1      -0.109  46.444  52.668  1.00  0.00    -0.116 SA
HETATM    9  C1  UNL     1      -0.185  45.328  54.096  1.00  0.00     0.097 C 
ENDBRANCH   6   8
ENDBRANCH   5   6
ENDBRANCH   4   5
ENDBRANCH   3   4
ENDBRANCH   2   3
ENDBRANCH   1   2
BRANCH   1  10
HETATM   10  C7  UNL     1       4.589  46.429  47.982  1.00  0.00     0.117 C 
BRANCH  10  11
HETATM   11  N1  UNL     1       5.503  47.380  47.456  1.00  0.00    -0.405 N 
HETATM   12  C8  UNL     1       6.628  46.779  46.772  1.00  0.00     0.136 C 
HETATM   13  C9  UNL     1       7.282  47.864  45.945  1.00  0.00     0.133 C 
HETATM   14  N2  UNL     1       7.854  48.829  46.822  1.00  0.00    -0.418 N 
HETATM   15  C10 UNL     1       7.272  48.958  48.109  1.00  0.00     0.138 C 
ATOM     16  H2  UNL     1       8.648  49.402  46.538  1.00  0.00     0.153 HD
HETATM   17  C11 UNL     1       5.840  48.507  48.234  1.00  0.00     0.092 C 
HETATM   18  C12 UNL     1       4.915  49.662  47.859  1.00  0.00     0.033 C 
ENDBRANCH  10  11
ENDBRANCH   1  10
TORSDOF 8
ENDMDL
MODEL 4
REMARK VINA RESULT: -5.412889899      0.733      1.479
REMARK  8 active torsions:
REMARK  status: ('A' for Active; 'I' for Inactive)
REMARK    1  A    between atoms: S1_2  and  C2_3 
REMARK    2  A    between atoms: C2_3  and  S3_5 
REMARK    3  A    between atoms: S3_5  and  C3_6 
REMARK    4  A    between atoms: C3_6  and  C4_7 
REMARK    5  A    between atoms: C4_7  and  C5_8 
REMARK    6  A    between atoms: C5_8  and  C6_9 
REMARK    7  A    between atoms: C6_9  and  C7_10 
REMARK    8  A    between atoms: C7_10  and  N1_11 
ROOT
HETATM    1  C6  UNL     1       5.003  48.118  50.136  1.00  0.00     0.019 C 
ENDROOT
BRANCH   1   2
HETATM    2  C5  UNL     1       5.698  49.095  51.036  1.00  0.00     0.002 C 
BRANCH   2   3
HETATM    3  C4  UNL     1       6.784  49.903  50.379  1.00  0.00     0.010 C 
BRANCH   3   4
HETATM    4  C3  UNL     1       6.433  51.357  50.611  1.00  0.00     0.081 C 
BRANCH   4   5
HETATM    5  S3  UNL     1       6.113  52.245  49.100  1.00  0.00    -0.111 SA
BRANCH   5   6
HETATM    6  C2  UNL     1       4.532  53.055  49.189  1.00  0.00     0.103 C 
HETATM    7  S2  UNL     1       4.397  54.442  48.862  1.00  0.00    -0.065 SA
BRANCH   6   8
HETATM    8  S1  UNL     1       3.054  52.177  49.707  1.00  0.00    -0.116 SA
HETATM    9  C1  UNL     1       2.088  51.702  48.247  1.00  0.00     0.097 C 
ENDBRANCH   6   8
ENDBRANCH   5   6
ENDBRANCH   4   5
ENDBRANCH   3   4
ENDBRANCH   2   3
ENDBRANCH   1   2
BRANCH   1  10
HETATM   10  C7  UNL     1       4.476  48.677  48.877  1.00  0.00     0.117 C 
BRANCH  10  11
HETATM   11  N1  UNL     1       4.968  47.977  47.744  1.00  0.00    -0.405 N 
HETATM   12  C8  UNL     1       4.443  46.632  47.627  1.00  0.00     0.136 C 
HETATM   13  C9  UNL     1       4.723  46.163  46.216  1.00  0.00     0.133 C 
HETATM   14  N2  UNL     1       6.130  46.028  46.047  1.00  0.00    -0.418 N 
HETATM   15  C10 UNL     1       6.960  46.832  46.868  1.00  0.00     0.138 C 
ATOM     16  H2  UNL     1       6.524  45.381  45.364  1.00  0.00     0.153 HD
HETATM   17  C11 UNL     1       6.333  48.091  47.410  1.00  0.00     0.092 C 
HETATM   18  C12 UNL     1       6.501  49.214  46.391  1.00  0.00     0.033 C 
ENDBRANCH  10  11
ENDBRANCH   1  10
TORSDOF 8
ENDMDL
MODEL 5
REMARK VINA RESULT: -5.390455854      1.324      2.188
REMARK  8 active torsions:
REMARK  status: ('A' for Active; 'I' for Inactive)
REMARK    1  A    between atoms: S1_2  and  C2_3 
REMARK    2  A    between atoms: C2_3  and  S3_5 
REMARK    3  A    between atoms: S3_5  and  C3_6 
REMARK    4  A    between atoms: C3_6  and  C4_7 
REMARK    5  A    between atoms: C4_7  and  C5_8 
REMARK    6  A    between atoms: C5_8  and  C6_9 
REMARK    7  A    between atoms: C6_9  and  C7_10 
REMARK    8  A    between atoms: C7_10  and  N1_11 
ROOT
HETATM    1  C6  UNL     1       6.630  50.408  48.339  1.00  0.00     0.019 C 
ENDROOT
BRANCH   1   2
HETATM    2  C5  UNL     1       7.139  49.799  49.611  1.00  0.00     0.002 C 
BRANCH   2   3
HETATM    3  C4  UNL     1       6.171  49.828  50.762  1.00  0.00     0.010 C 
BRANCH   3   4
HETATM    4  C3  UNL     1       6.032  51.281  51.164  1.00  0.00     0.081 C 
BRANCH   4   5
HETATM    5  S3  UNL     1       4.365  51.723  51.610  1.00  0.00    -0.111 SA
BRANCH   5   6
HETATM    6  C2  UNL     1       3.278  51.493  50.221  1.00  0.00     0.103 C 
HETATM    7  S2  UNL     1       2.475  50.314  50.104  1.00  0.00    -0.065 SA
BRANCH   6   8
HETATM    8  S1  UNL     1       3.159  52.712  48.909  1.00  0.00    -0.116 SA
HETATM    9  C1  UNL     1       4.583  53.833  48.993  1.00  0.00     0.097 C 
ENDBRANCH   6   8
ENDBRANCH   5   6
ENDBRANCH   4   5
ENDBRANCH   3   4
ENDBRANCH   2   3
ENDBRANCH   1   2
BRANCH   1  10
HETATM   10  C7  UNL     1       5.447  49.754  47.750  1.00  0.00     0.117 C 
BRANCH  10  11
HETATM   11  N1  UNL     1       5.706  48.397  47.419  1.00  0.00    -0.405 N 
HETATM   12  C8  UNL     1       6.457  48.238  46.191  1.00  0.00     0.136 C 
HETATM   13  C9  UNL     1       6.990  46.823  46.172  1.00  0.00     0.133 C 
HETATM   14  N2  UNL     1       5.895  45.921  46.055  1.00  0.00    -0.418 N 
HETATM   15  C10 UNL     1       4.639  46.362  46.543  1.00  0.00     0.138 C 
ATOM     16  H2  UNL     1       6.009  44.996  45.638  1.00  0.00     0.153 HD
HETATM   17  C11 UNL     1       4.681  47.444  47.591  1.00  0.00     0.092 C 
HETATM   18  C12 UNL     1       4.828  46.803  48.968  1.00  0.00     0.033 C 
ENDBRANCH  10  11
ENDBRANCH   1  10
TORSDOF 8
ENDMDL
