MODEL 1
REMARK VINA RESULT: -6.637849520      0.000      0.000
REMARK  4 active torsions:
REMARK  status: ('A' for Active; 'I' for Inactive)
REMARK    1  A    between atoms: C4_5  and  C5_6 
REMARK    2  A    between atoms: C5_6  and  S1_7 
REMARK    3  A    between atoms: S1_7  and  C6_8 
REMARK    4  A    between atoms: C7_15  and  N4_16 
ROOT
HETATM    1  C1  UNL     1       6.000   0.377  67.383  1.00  0.00     0.053 C 
HETATM    2  C2  UNL     1       5.788   1.701  68.028  1.00  0.00     0.001 C 
HETATM    3  C3  UNL     1       4.874   2.556  67.440  1.00  0.00     0.147 C 
HETATM    4  F1  UNL     1       4.602   2.284  66.134  1.00  0.00    -0.203 F 
HETATM    5  C4  UNL     1       4.208   3.638  67.996  1.00  0.00     0.060 C 
HETATM    6  N3  UNL     1       4.350   4.092  69.232  1.00  0.00    -0.343 N 
ATOM      7  H3  UNL     1       3.596   4.697  69.558  1.00  0.00     0.167 HD
HETATM    8  C7  UNL     1       5.345   3.878  70.134  1.00  0.00     0.106 C 
HETATM    9  C8  UNL     1       6.405   2.995  70.092  1.00  0.00     0.004 C 
HETATM   10  C9  UNL     1       7.479   3.174  71.103  1.00  0.00     0.054 C 
HETATM   11  C10 UNL     1       6.538   1.957  69.175  1.00  0.00     0.052 C 
HETATM   12 CL1  UNL     1       7.824   0.834  69.529  1.00  0.00    -0.083 Cl
ENDROOT
BRANCH   5  13
HETATM   13  C5  UNL     1       3.273   4.287  67.054  1.00  0.00     0.142 C 
BRANCH  13  14
HETATM   14  S1  UNL     1       1.601   3.670  67.169  1.00  0.00    -0.092 SA
BRANCH  14  15
HETATM   15  C6  UNL     1       0.673   4.696  68.277  1.00  0.00     0.148 C 
HETATM   16  N1  UNL     1      -0.372   5.290  67.862  1.00  0.00    -0.382 N 
ATOM     17  H12 UNL     1      -0.692   5.188  66.898  1.00  0.00     0.157 HD
ATOM     18  H11 UNL     1      -0.906   5.881  68.499  1.00  0.00     0.157 HD
HETATM   19  N2  UNL     1       1.115   4.837  69.606  1.00  0.00    -0.075 NA
ENDBRANCH  14  15
ENDBRANCH  13  14
ENDBRANCH   5  13
BRANCH   8  20
HETATM   20  N4  UNL     1       5.298   4.610  71.198  1.00  0.00    -0.385 N 
ATOM     21  H42 UNL     1       5.180   4.087  72.066  1.00  0.00     0.157 HD
ATOM     22  H41 UNL     1       5.385   5.615  71.044  1.00  0.00     0.157 HD
ENDBRANCH   8  20
TORSDOF 4
ENDMDL
MODEL 2
REMARK VINA RESULT: -6.506965167      1.399      1.424
REMARK  4 active torsions:
REMARK  status: ('A' for Active; 'I' for Inactive)
REMARK    1  A    between atoms: C4_5  and  C5_6 
REMARK    2  A    between atoms: C5_6  and  S1_7 
REMARK    3  A    between atoms: S1_7  and  C6_8 
REMARK    4  A    between atoms: C7_15  and  N4_16 
ROOT
HETATM    1  C1  UNL     1       5.094   0.165  66.837  1.00  0.00     0.053 C 
HETATM    2  C2  UNL     1       5.210   1.452  67.574  1.00  0.00     0.001 C 
HETATM    3  C3  UNL     1       4.271   2.431  67.299  1.00  0.00     0.147 C 
HETATM    4  F1  UNL     1       3.630   2.281  66.108  1.00  0.00    -0.203 F 
HETATM    5  C4  UNL     1       3.904   3.526  68.065  1.00  0.00     0.060 C 
HETATM    6  N3  UNL     1       4.421   3.873  69.234  1.00  0.00    -0.343 N 
ATOM      7  H3  UNL     1       3.854   4.520  69.781  1.00  0.00     0.167 HD
HETATM    8  C7  UNL     1       5.592   3.501  69.816  1.00  0.00     0.106 C 
HETATM    9  C8  UNL     1       6.498   2.528  69.444  1.00  0.00     0.004 C 
HETATM   10  C9  UNL     1       7.817   2.531  70.128  1.00  0.00     0.054 C 
HETATM   11  C10 UNL     1       6.264   1.552  68.481  1.00  0.00     0.052 C 
HETATM   12 CL1  UNL     1       7.467   0.291  68.416  1.00  0.00    -0.083 Cl
ENDROOT
BRANCH   5  13
HETATM   13  C5  UNL     1       2.827   4.327  67.447  1.00  0.00     0.142 C 
BRANCH  13  14
HETATM   14  S1  UNL     1       1.315   4.346  68.398  1.00  0.00    -0.092 SA
BRANCH  14  15
HETATM   15  C6  UNL     1       1.710   4.478  70.121  1.00  0.00     0.148 C 
HETATM   16  N1  UNL     1       1.424   3.521  70.909  1.00  0.00    -0.382 N 
ATOM     17  H12 UNL     1       0.969   2.673  70.571  1.00  0.00     0.157 HD
ATOM     18  H11 UNL     1       1.652   3.597  71.901  1.00  0.00     0.157 HD
HETATM   19  N2  UNL     1       2.338   5.647  70.588  1.00  0.00    -0.075 NA
ENDBRANCH  14  15
ENDBRANCH  13  14
ENDBRANCH   5  13
BRANCH   8  20
HETATM   20  N4  UNL     1       5.915   4.154  70.884  1.00  0.00    -0.385 N 
ATOM     21  H42 UNL     1       5.651   5.140  70.873  1.00  0.00     0.157 HD
ATOM     22  H41 UNL     1       6.390   3.610  71.605  1.00  0.00     0.157 HD
ENDBRANCH   8  20
TORSDOF 4
ENDMDL
MODEL 3
REMARK VINA RESULT: -6.461321959      1.285      1.285
REMARK  4 active torsions:
REMARK  status: ('A' for Active; 'I' for Inactive)
REMARK    1  A    between atoms: C4_5  and  C5_6 
REMARK    2  A    between atoms: C5_6  and  S1_7 
REMARK    3  A    between atoms: S1_7  and  C6_8 
REMARK    4  A    between atoms: C7_15  and  N4_16 
ROOT
HETATM    1  C1  UNL     1       6.501   0.791  67.129  1.00  0.00     0.053 C 
HETATM    2  C2  UNL     1       5.740   1.608  68.112  1.00  0.00     0.001 C 
HETATM    3  C3  UNL     1       4.910   2.596  67.613  1.00  0.00     0.147 C 
HETATM    4  F1  UNL     1       5.204   2.995  66.344  1.00  0.00    -0.203 F 
HETATM    5  C4  UNL     1       3.836   3.225  68.224  1.00  0.00     0.060 C 
HETATM    6  N3  UNL     1       3.404   3.012  69.458  1.00  0.00    -0.343 N 
ATOM      7  H3  UNL     1       2.456   3.337  69.644  1.00  0.00     0.167 HD
HETATM    8  C7  UNL     1       4.029   2.428  70.515  1.00  0.00     0.106 C 
HETATM    9  C8  UNL     1       5.223   1.737  70.568  1.00  0.00     0.004 C 
HETATM   10  C9  UNL     1       5.779   1.444  71.914  1.00  0.00     0.054 C 
HETATM   11  C10 UNL     1       5.937   1.298  69.457  1.00  0.00     0.052 C 
HETATM   12 CL1  UNL     1       7.253   0.214  69.820  1.00  0.00    -0.083 Cl
ENDROOT
BRANCH   5  13
HETATM   13  C5  UNL     1       3.167   4.208  67.347  1.00  0.00     0.142 C 
BRANCH  13  14
HETATM   14  S1  UNL     1       1.473   3.791  66.969  1.00  0.00    -0.092 SA
BRANCH  14  15
HETATM   15  C6  UNL     1       0.395   4.667  68.069  1.00  0.00     0.148 C 
HETATM   16  N1  UNL     1      -0.584   5.330  67.600  1.00  0.00    -0.382 N 
ATOM     17  H12 UNL     1      -0.765   5.369  66.596  1.00  0.00     0.157 HD
ATOM     18  H11 UNL     1      -1.205   5.834  68.233  1.00  0.00     0.157 HD
HETATM   19  N2  UNL     1       0.644   4.613  69.453  1.00  0.00    -0.075 NA
ENDBRANCH  14  15
ENDBRANCH  13  14
ENDBRANCH   5  13
BRANCH   8  20
HETATM   20  N4  UNL     1       3.419   2.532  71.649  1.00  0.00    -0.385 N 
ATOM     21  H42 UNL     1       2.463   2.883  71.585  1.00  0.00     0.157 HD
ATOM     22  H41 UNL     1       3.961   2.252  72.467  1.00  0.00     0.157 HD
ENDBRANCH   8  20
TORSDOF 4
ENDMDL
MODEL 4
REMARK VINA RESULT: -6.373505080      0.932      1.129
REMARK  4 active torsions:
REMARK  status: ('A' for Active; 'I' for Inactive)
REMARK    1  A    between atoms: C4_5  and  C5_6 
REMARK    2  A    between atoms: C5_6  and  S1_7 
REMARK    3  A    between atoms: S1_7  and  C6_8 
REMARK    4  A    between atoms: C7_15  and  N4_16 
ROOT
HETATM    1  C1  UNL     1       5.848   0.565  67.183  1.00  0.00     0.053 C 
HETATM    2  C2  UNL     1       5.619   1.840  67.915  1.00  0.00     0.001 C 
HETATM    3  C3  UNL     1       4.604   2.663  67.458  1.00  0.00     0.147 C 
HETATM    4  F1  UNL     1       4.229   2.437  66.169  1.00  0.00    -0.203 F 
HETATM    5  C4  UNL     1       3.931   3.671  68.130  1.00  0.00     0.060 C 
HETATM    6  N3  UNL     1       4.160   4.073  69.371  1.00  0.00    -0.343 N 
ATOM      7  H3  UNL     1       3.405   4.612  69.796  1.00  0.00     0.167 HD
HETATM    8  C7  UNL     1       5.245   3.879  70.167  1.00  0.00     0.106 C 
HETATM    9  C8  UNL     1       6.348   3.069  69.981  1.00  0.00     0.004 C 
HETATM   10  C9  UNL     1       7.498   3.268  70.899  1.00  0.00     0.054 C 
HETATM   11  C10 UNL     1       6.456   2.087  69.001  1.00  0.00     0.052 C 
HETATM   12 CL1  UNL     1       7.834   1.034  69.177  1.00  0.00    -0.083 Cl
ENDROOT
BRANCH   5  13
HETATM   13  C5  UNL     1       2.875   4.304  67.313  1.00  0.00     0.142 C 
BRANCH  13  14
HETATM   14  S1  UNL     1       1.271   4.312  68.100  1.00  0.00    -0.092 SA
BRANCH  14  15
HETATM   15  C6  UNL     1       0.082   5.025  66.997  1.00  0.00     0.148 C 
HETATM   16  N1  UNL     1      -1.021   5.463  67.454  1.00  0.00    -0.382 N 
ATOM     17  H12 UNL     1      -1.240   5.412  68.450  1.00  0.00     0.157 HD
ATOM     18  H11 UNL     1      -1.706   5.873  66.819  1.00  0.00     0.157 HD
HETATM   19  N2  UNL     1       0.382   5.094  65.623  1.00  0.00    -0.075 NA
ENDBRANCH  14  15
ENDBRANCH  13  14
ENDBRANCH   5  13
BRANCH   8  20
HETATM   20  N4  UNL     1       5.255   4.554  71.269  1.00  0.00    -0.385 N 
ATOM     21  H42 UNL     1       6.103   5.100  71.424  1.00  0.00     0.157 HD
ATOM     22  H41 UNL     1       4.420   4.462  71.847  1.00  0.00     0.157 HD
ENDBRANCH   8  20
TORSDOF 4
ENDMDL
MODEL 5
REMARK VINA RESULT: -6.371921892      1.081      1.148
REMARK  4 active torsions:
REMARK  status: ('A' for Active; 'I' for Inactive)
REMARK    1  A    between atoms: C4_5  and  C5_6 
REMARK    2  A    between atoms: C5_6  and  S1_7 
REMARK    3  A    between atoms: S1_7  and  C6_8 
REMARK    4  A    between atoms: C7_15  and  N4_16 
ROOT
HETATM    1  C1  UNL     1       5.599   0.049  67.734  1.00  0.00     0.053 C 
HETATM    2  C2  UNL     1       5.580   1.433  68.281  1.00  0.00     0.001 C 
HETATM    3  C3  UNL     1       4.810   2.370  67.615  1.00  0.00     0.147 C 
HETATM    4  F1  UNL     1       4.516   2.048  66.325  1.00  0.00    -0.203 F 
HETATM    5  C4  UNL     1       4.307   3.575  68.080  1.00  0.00     0.060 C 
HETATM    6  N3  UNL     1       4.501   4.091  69.284  1.00  0.00    -0.343 N 
ATOM      7  H3  UNL     1       3.842   4.822  69.551  1.00  0.00     0.167 HD
HETATM    8  C7  UNL     1       5.442   3.797  70.221  1.00  0.00     0.106 C 
HETATM    9  C8  UNL     1       6.360   2.766  70.263  1.00  0.00     0.004 C 
HETATM   10  C9  UNL     1       7.437   2.857  71.282  1.00  0.00     0.054 C 
HETATM   11  C10 UNL     1       6.347   1.657  69.423  1.00  0.00     0.052 C 
HETATM   12 CL1  UNL     1       7.447   0.385  69.882  1.00  0.00    -0.083 Cl
ENDROOT
BRANCH   5  13
HETATM   13  C5  UNL     1       3.489   4.286  67.075  1.00  0.00     0.142 C 
BRANCH  13  14
HETATM   14  S1  UNL     1       1.747   4.320  67.467  1.00  0.00    -0.092 SA
BRANCH  14  15
HETATM   15  C6  UNL     1       1.381   3.021  68.616  1.00  0.00     0.148 C 
HETATM   16  N1  UNL     1       1.118   1.853  68.186  1.00  0.00    -0.382 N 
ATOM     17  H12 UNL     1       1.113   1.644  67.187  1.00  0.00     0.157 HD
ATOM     18  H11 UNL     1       0.907   1.106  68.848  1.00  0.00     0.157 HD
HETATM   19  N2  UNL     1       1.388   3.309  69.993  1.00  0.00    -0.075 NA
ENDBRANCH  14  15
ENDBRANCH  13  14
ENDBRANCH   5  13
BRANCH   8  20
HETATM   20  N4  UNL     1       5.493   4.602  71.230  1.00  0.00    -0.385 N 
ATOM     21  H42 UNL     1       5.945   5.496  71.036  1.00  0.00     0.157 HD
ATOM     22  H41 UNL     1       5.079   4.250  72.093  1.00  0.00     0.157 HD
ENDBRANCH   8  20
TORSDOF 4
ENDMDL
