MODEL 1
REMARK VINA RESULT: -9.318813732      0.000      0.000
REMARK  14 active torsions:
REMARK  status: ('A' for Active; 'I' for Inactive)
REMARK    1  A    between atoms: C2_2  and  C4_4 
REMARK    2  A    between atoms: C4_4  and  C5_5 
REMARK    3  A    between atoms: C5_5  and  C7_8 
REMARK       I    between atoms: C7_8  and  N1_10 
REMARK       I    between atoms: N1_10  and  C9_12 
REMARK    4  A    between atoms: N3_14  and  C10_16 
REMARK    5  A    between atoms: C10_16  and  C11_17 
REMARK    6  A    between atoms: C11_17  and  C12_18 
REMARK    7  A    between atoms: C12_18  and  C13_19 
REMARK    8  A    between atoms: C13_19  and  C14_20 
REMARK    9  A    between atoms: C14_20  and  C15_21 
REMARK   10  A    between atoms: C15_21  and  N4_22 
REMARK       I    between atoms: N4_22  and  C16_24 
REMARK   11  A    between atoms: C16_24  and  C17_26 
REMARK   12  A    between atoms: C17_26  and  C18_27 
REMARK   13  A    between atoms: C18_27  and  C19_28 
REMARK   14  A    between atoms: C23_32  and  C24_33 
ROOT
HETATM    1  C13 UNL     1      47.772  17.283  -3.795  1.00  0.00     0.002 C 
ENDROOT
BRANCH   1   2
HETATM    2  C12 UNL     1      47.285  18.690  -3.856  1.00  0.00     0.002 C 
BRANCH   2   3
HETATM    3  C11 UNL     1      45.780  18.733  -3.866  1.00  0.00     0.020 C 
BRANCH   3   4
HETATM    4  C10 UNL     1      45.207  17.339  -3.872  1.00  0.00     0.122 C 
BRANCH   4   5
HETATM    5  N3  UNL     1      43.896  17.425  -4.509  1.00  0.00    -0.364 N 
HETATM    6  C9  UNL     1      43.394  16.367  -5.018  1.00  0.00     0.192 C 
HETATM    7  N1  UNL     1      42.106  16.330  -5.673  1.00  0.00    -0.295 N 
HETATM    8  N2  UNL     1      44.124  15.158  -4.945  1.00  0.00    -0.063 NA
HETATM    9  C7  UNL     1      41.352  17.523  -5.761  1.00  0.00     0.245 C 
HETATM   10  C8  UNL     1      41.712  15.045  -6.190  1.00  0.00     0.162 C 
HETATM   11  O1  UNL     1      41.909  18.566  -5.222  1.00  0.00    -0.271 OA
ATOM     12  H3  UNL     1      43.392  18.311  -4.548  1.00  0.00     0.162 HD
BRANCH   9  13
HETATM   13  C5  UNL     1      40.023  17.706  -6.392  1.00  0.00     0.096 C 
HETATM   14  C6  UNL     1      39.625  19.149  -6.103  1.00  0.00     0.038 C 
HETATM   15 BR1  UNL     1      38.709  16.616  -5.463  1.00  0.00    -0.075 Br
BRANCH  13  16
HETATM   16  C4  UNL     1      40.099  17.381  -7.835  1.00  0.00     0.034 C 
BRANCH  16  17
HETATM   17  C2  UNL     1      39.324  18.230  -8.780  1.00  0.00    -0.021 C 
HETATM   18  C1  UNL     1      39.969  18.625 -10.051  1.00  0.00     0.009 C 
HETATM   19  C3  UNL     1      38.054  17.426  -9.124  1.00  0.00     0.009 C 
ENDBRANCH  16  17
ENDBRANCH  13  16
ENDBRANCH   9  13
ENDBRANCH   4   5
ENDBRANCH   3   4
ENDBRANCH   2   3
ENDBRANCH   1   2
BRANCH   1  20
HETATM   20  C14 UNL     1      48.880  17.166  -2.759  1.00  0.00     0.020 C 
BRANCH  20  21
HETATM   21  C15 UNL     1      49.621  15.880  -2.825  1.00  0.00     0.122 C 
BRANCH  21  22
HETATM   22  N4  UNL     1      51.029  16.076  -2.695  1.00  0.00    -0.361 N 
HETATM   23  C16 UNL     1      51.854  16.412  -3.778  1.00  0.00     0.217 C 
HETATM   24  O2  UNL     1      51.382  16.567  -4.947  1.00  0.00    -0.274 OA
ATOM     25  H4  UNL     1      51.453  15.967  -1.774  1.00  0.00     0.162 HD
BRANCH  23  26
HETATM   26  C17 UNL     1      53.325  16.606  -3.624  1.00  0.00     0.103 C 
BRANCH  26  27
HETATM   27  C18 UNL     1      53.882  17.168  -4.910  1.00  0.00     0.014 C 
BRANCH  27  28
HETATM   28  C19 UNL     1      55.150  17.916  -4.588  1.00  0.00    -0.014 C 
HETATM   29  C20 UNL     1      55.538  18.802  -5.734  1.00  0.00     0.005 C 
HETATM   30  C21 UNL     1      54.642  20.003  -5.721  1.00  0.00     0.001 C 
HETATM   31  C22 UNL     1      55.305  21.218  -5.124  1.00  0.00     0.013 C 
HETATM   32  C23 UNL     1      55.461  21.140  -3.638  1.00  0.00     0.093 C 
HETATM   33  C25 UNL     1      55.868  19.817  -3.098  1.00  0.00     0.014 C 
HETATM   34  C26 UNL     1      54.925  18.688  -3.305  1.00  0.00     0.005 C 
BRANCH  32  35
HETATM   35  C24 UNL     1      54.300  21.769  -2.899  1.00  0.00     0.391 C 
HETATM   36  F1  UNL     1      54.758  22.920  -2.238  1.00  0.00    -0.171 F 
HETATM   37  F2  UNL     1      53.304  22.229  -3.738  1.00  0.00    -0.171 F 
HETATM   38  F3  UNL     1      53.837  20.923  -1.915  1.00  0.00    -0.171 F 
ENDBRANCH  32  35
ENDBRANCH  27  28
ENDBRANCH  26  27
ENDBRANCH  23  26
ENDBRANCH  21  22
ENDBRANCH  20  21
ENDBRANCH   1  20
TORSDOF 14
ENDMDL
MODEL 2
REMARK VINA RESULT: -9.064059298      8.866     12.425
REMARK  14 active torsions:
REMARK  status: ('A' for Active; 'I' for Inactive)
REMARK    1  A    between atoms: C2_2  and  C4_4 
REMARK    2  A    between atoms: C4_4  and  C5_5 
REMARK    3  A    between atoms: C5_5  and  C7_8 
REMARK       I    between atoms: C7_8  and  N1_10 
REMARK       I    between atoms: N1_10  and  C9_12 
REMARK    4  A    between atoms: N3_14  and  C10_16 
REMARK    5  A    between atoms: C10_16  and  C11_17 
REMARK    6  A    between atoms: C11_17  and  C12_18 
REMARK    7  A    between atoms: C12_18  and  C13_19 
REMARK    8  A    between atoms: C13_19  and  C14_20 
REMARK    9  A    between atoms: C14_20  and  C15_21 
REMARK   10  A    between atoms: C15_21  and  N4_22 
REMARK       I    between atoms: N4_22  and  C16_24 
REMARK   11  A    between atoms: C16_24  and  C17_26 
REMARK   12  A    between atoms: C17_26  and  C18_27 
REMARK   13  A    between atoms: C18_27  and  C19_28 
REMARK   14  A    between atoms: C23_32  and  C24_33 
ROOT
HETATM    1  C13 UNL     1      43.597  16.183  -4.116  1.00  0.00     0.002 C 
ENDROOT
BRANCH   1   2
HETATM    2  C12 UNL     1      44.098  15.128  -5.043  1.00  0.00     0.002 C 
BRANCH   2   3
HETATM    3  C11 UNL     1      43.107  14.000  -5.151  1.00  0.00     0.020 C 
BRANCH   3   4
HETATM    4  C10 UNL     1      42.730  13.758  -6.591  1.00  0.00     0.122 C 
BRANCH   4   5
HETATM    5  N3  UNL     1      42.007  14.944  -7.042  1.00  0.00    -0.364 N 
HETATM    6  C9  UNL     1      40.732  14.943  -6.975  1.00  0.00     0.192 C 
HETATM    7  N1  UNL     1      39.910  16.058  -7.391  1.00  0.00    -0.295 N 
HETATM    8  N2  UNL     1      40.073  13.798  -6.471  1.00  0.00    -0.063 NA
HETATM    9  C7  UNL     1      40.541  17.216  -7.899  1.00  0.00     0.245 C 
HETATM   10  C8  UNL     1      38.490  15.866  -7.246  1.00  0.00     0.162 C 
HETATM   11  O1  UNL     1      41.839  17.164  -7.938  1.00  0.00    -0.271 OA
ATOM     12  H3  UNL     1      42.509  15.755  -7.401  1.00  0.00     0.162 HD
BRANCH   9  13
HETATM   13  C5  UNL     1      39.892  18.458  -8.383  1.00  0.00     0.096 C 
HETATM   14  C6  UNL     1      40.707  18.905  -9.592  1.00  0.00     0.038 C 
HETATM   15 BR1  UNL     1      40.119  19.866  -7.063  1.00  0.00    -0.075 Br
BRANCH  13  16
HETATM   16  C4  UNL     1      38.465  18.199  -8.683  1.00  0.00     0.034 C 
BRANCH  16  17
HETATM   17  C2  UNL     1      38.113  17.765 -10.063  1.00  0.00    -0.021 C 
HETATM   18  C1  UNL     1      36.841  17.036 -10.261  1.00  0.00     0.009 C 
HETATM   19  C3  UNL     1      38.056  19.053 -10.908  1.00  0.00     0.009 C 
ENDBRANCH  16  17
ENDBRANCH  13  16
ENDBRANCH   9  13
ENDBRANCH   4   5
ENDBRANCH   3   4
ENDBRANCH   2   3
ENDBRANCH   1   2
BRANCH   1  20
HETATM   20  C14 UNL     1      43.135  17.393  -4.914  1.00  0.00     0.020 C 
BRANCH  20  21
HETATM   21  C15 UNL     1      41.883  18.003  -4.396  1.00  0.00     0.122 C 
BRANCH  21  22
HETATM   22  N4  UNL     1      40.811  17.062  -4.367  1.00  0.00    -0.361 N 
HETATM   23  C16 UNL     1      39.495  17.416  -4.040  1.00  0.00     0.217 C 
HETATM   24  O2  UNL     1      39.183  18.614  -3.755  1.00  0.00    -0.274 OA
ATOM     25  H4  UNL     1      41.012  16.088  -4.594  1.00  0.00     0.162 HD
BRANCH  23  26
HETATM   26  C17 UNL     1      38.389  16.415  -4.008  1.00  0.00     0.103 C 
BRANCH  26  27
HETATM   27  C18 UNL     1      37.390  16.823  -2.951  1.00  0.00     0.014 C 
BRANCH  27  28
HETATM   28  C19 UNL     1      36.826  15.573  -2.327  1.00  0.00    -0.014 C 
HETATM   29  C20 UNL     1      35.408  15.364  -2.770  1.00  0.00     0.005 C 
HETATM   30  C21 UNL     1      35.430  14.839  -4.174  1.00  0.00     0.001 C 
HETATM   31  C22 UNL     1      35.214  13.349  -4.243  1.00  0.00     0.013 C 
HETATM   32  C23 UNL     1      36.393  12.556  -3.776  1.00  0.00     0.093 C 
HETATM   33  C25 UNL     1      37.093  13.080  -2.575  1.00  0.00     0.014 C 
HETATM   34  C26 UNL     1      37.729  14.417  -2.698  1.00  0.00     0.005 C 
BRANCH  32  35
HETATM   35  C24 UNL     1      37.325  12.180  -4.909  1.00  0.00     0.391 C 
HETATM   36  F1  UNL     1      38.643  12.175  -4.425  1.00  0.00    -0.171 F 
HETATM   37  F2  UNL     1      37.125  10.896  -5.376  1.00  0.00    -0.171 F 
HETATM   38  F3  UNL     1      37.288  13.134  -5.903  1.00  0.00    -0.171 F 
ENDBRANCH  32  35
ENDBRANCH  27  28
ENDBRANCH  26  27
ENDBRANCH  23  26
ENDBRANCH  21  22
ENDBRANCH  20  21
ENDBRANCH   1  20
TORSDOF 14
ENDMDL
MODEL 3
REMARK VINA RESULT: -8.926086268      7.819     11.269
REMARK  14 active torsions:
REMARK  status: ('A' for Active; 'I' for Inactive)
REMARK    1  A    between atoms: C2_2  and  C4_4 
REMARK    2  A    between atoms: C4_4  and  C5_5 
REMARK    3  A    between atoms: C5_5  and  C7_8 
REMARK       I    between atoms: C7_8  and  N1_10 
REMARK       I    between atoms: N1_10  and  C9_12 
REMARK    4  A    between atoms: N3_14  and  C10_16 
REMARK    5  A    between atoms: C10_16  and  C11_17 
REMARK    6  A    between atoms: C11_17  and  C12_18 
REMARK    7  A    between atoms: C12_18  and  C13_19 
REMARK    8  A    between atoms: C13_19  and  C14_20 
REMARK    9  A    between atoms: C14_20  and  C15_21 
REMARK   10  A    between atoms: C15_21  and  N4_22 
REMARK       I    between atoms: N4_22  and  C16_24 
REMARK   11  A    between atoms: C16_24  and  C17_26 
REMARK   12  A    between atoms: C17_26  and  C18_27 
REMARK   13  A    between atoms: C18_27  and  C19_28 
REMARK   14  A    between atoms: C23_32  and  C24_33 
ROOT
HETATM    1  C13 UNL     1      45.440  17.438  -3.920  1.00  0.00     0.002 C 
ENDROOT
BRANCH   1   2
HETATM    2  C12 UNL     1      45.338  15.988  -4.250  1.00  0.00     0.002 C 
BRANCH   2   3
HETATM    3  C11 UNL     1      43.933  15.491  -4.035  1.00  0.00     0.020 C 
BRANCH   3   4
HETATM    4  C10 UNL     1      43.508  14.587  -5.164  1.00  0.00     0.122 C 
BRANCH   4   5
HETATM    5  N3  UNL     1      42.092  14.295  -4.960  1.00  0.00    -0.364 N 
HETATM    6  C9  UNL     1      41.335  14.199  -5.983  1.00  0.00     0.192 C 
HETATM    7  N1  UNL     1      39.920  13.914  -5.906  1.00  0.00    -0.295 N 
HETATM    8  N2  UNL     1      41.896  14.379  -7.270  1.00  0.00    -0.063 NA
HETATM    9  C7  UNL     1      39.332  13.728  -4.634  1.00  0.00     0.245 C 
HETATM   10  C8  UNL     1      39.232  13.851  -7.170  1.00  0.00     0.162 C 
HETATM   11  O1  UNL     1      40.150  13.831  -3.629  1.00  0.00    -0.271 OA
ATOM     12  H3  UNL     1      41.716  14.171  -4.020  1.00  0.00     0.162 HD
BRANCH   9  13
HETATM   13  C5  UNL     1      37.910  13.437  -4.332  1.00  0.00     0.096 C 
HETATM   14  C6  UNL     1      37.899  12.857  -2.922  1.00  0.00     0.038 C 
HETATM   15 BR1  UNL     1      37.284  12.000  -5.481  1.00  0.00    -0.075 Br
BRANCH  13  16
HETATM   16  C4  UNL     1      37.099  14.666  -4.482  1.00  0.00     0.034 C 
BRANCH  16  17
HETATM   17  C2  UNL     1      36.650  15.358  -3.244  1.00  0.00    -0.021 C 
HETATM   18  C1  UNL     1      37.197  16.703  -2.959  1.00  0.00     0.009 C 
HETATM   19  C3  UNL     1      35.118  15.487  -3.364  1.00  0.00     0.009 C 
ENDBRANCH  16  17
ENDBRANCH  13  16
ENDBRANCH   9  13
ENDBRANCH   4   5
ENDBRANCH   3   4
ENDBRANCH   2   3
ENDBRANCH   1   2
BRANCH   1  20
HETATM   20  C14 UNL     1      44.100  17.947  -3.409  1.00  0.00     0.020 C 
BRANCH  20  21
HETATM   21  C15 UNL     1      43.334  18.721  -4.420  1.00  0.00     0.122 C 
BRANCH  21  22
HETATM   22  N4  UNL     1      41.928  18.526  -4.278  1.00  0.00    -0.361 N 
HETATM   23  C16 UNL     1      40.989  19.534  -4.537  1.00  0.00     0.217 C 
HETATM   24  O2  UNL     1      41.348  20.689  -4.925  1.00  0.00    -0.274 OA
ATOM     25  H4  UNL     1      41.591  17.612  -3.974  1.00  0.00     0.162 HD
BRANCH  23  26
HETATM   26  C17 UNL     1      39.523  19.313  -4.375  1.00  0.00     0.103 C 
BRANCH  26  27
HETATM   27  C18 UNL     1      38.873  19.317  -5.738  1.00  0.00     0.014 C 
BRANCH  27  28
HETATM   28  C19 UNL     1      39.698  18.452  -6.656  1.00  0.00    -0.014 C 
HETATM   29  C20 UNL     1      39.052  17.109  -6.826  1.00  0.00     0.005 C 
HETATM   30  C21 UNL     1      37.891  17.263  -7.760  1.00  0.00     0.001 C 
HETATM   31  C22 UNL     1      38.205  16.805  -9.162  1.00  0.00     0.013 C 
HETATM   32  C23 UNL     1      39.108  17.740  -9.903  1.00  0.00     0.093 C 
HETATM   33  C25 UNL     1      40.228  18.319  -9.117  1.00  0.00     0.014 C 
HETATM   34  C26 UNL     1      39.863  19.189  -7.969  1.00  0.00     0.005 C 
BRANCH  32  35
HETATM   35  C24 UNL     1      38.344  18.760 -10.719  1.00  0.00     0.391 C 
HETATM   36  F1  UNL     1      39.223  19.792 -11.086  1.00  0.00    -0.171 F 
HETATM   37  F2  UNL     1      37.879  18.261 -11.919  1.00  0.00    -0.171 F 
HETATM   38  F3  UNL     1      37.360  19.351  -9.956  1.00  0.00    -0.171 F 
ENDBRANCH  32  35
ENDBRANCH  27  28
ENDBRANCH  26  27
ENDBRANCH  23  26
ENDBRANCH  21  22
ENDBRANCH  20  21
ENDBRANCH   1  20
TORSDOF 14
ENDMDL
MODEL 4
REMARK VINA RESULT: -8.911926008      1.639      2.166
REMARK  14 active torsions:
REMARK  status: ('A' for Active; 'I' for Inactive)
REMARK    1  A    between atoms: C2_2  and  C4_4 
REMARK    2  A    between atoms: C4_4  and  C5_5 
REMARK    3  A    between atoms: C5_5  and  C7_8 
REMARK       I    between atoms: C7_8  and  N1_10 
REMARK       I    between atoms: N1_10  and  C9_12 
REMARK    4  A    between atoms: N3_14  and  C10_16 
REMARK    5  A    between atoms: C10_16  and  C11_17 
REMARK    6  A    between atoms: C11_17  and  C12_18 
REMARK    7  A    between atoms: C12_18  and  C13_19 
REMARK    8  A    between atoms: C13_19  and  C14_20 
REMARK    9  A    between atoms: C14_20  and  C15_21 
REMARK   10  A    between atoms: C15_21  and  N4_22 
REMARK       I    between atoms: N4_22  and  C16_24 
REMARK   11  A    between atoms: C16_24  and  C17_26 
REMARK   12  A    between atoms: C17_26  and  C18_27 
REMARK   13  A    between atoms: C18_27  and  C19_28 
REMARK   14  A    between atoms: C23_32  and  C24_33 
ROOT
HETATM    1  C13 UNL     1      47.619  17.537  -4.098  1.00  0.00     0.002 C 
ENDROOT
BRANCH   1   2
HETATM    2  C12 UNL     1      47.043  18.912  -4.124  1.00  0.00     0.002 C 
BRANCH   2   3
HETATM    3  C11 UNL     1      45.560  18.873  -3.866  1.00  0.00     0.020 C 
BRANCH   3   4
HETATM    4  C10 UNL     1      45.056  17.452  -3.866  1.00  0.00     0.122 C 
BRANCH   4   5
HETATM    5  N3  UNL     1      43.745  17.470  -4.508  1.00  0.00    -0.364 N 
HETATM    6  C9  UNL     1      43.294  16.384  -5.006  1.00  0.00     0.192 C 
HETATM    7  N1  UNL     1      42.012  16.280  -5.665  1.00  0.00    -0.295 N 
HETATM    8  N2  UNL     1      44.080  15.211  -4.917  1.00  0.00    -0.063 NA
HETATM    9  C7  UNL     1      41.204  17.435  -5.768  1.00  0.00     0.245 C 
HETATM   10  C8  UNL     1      41.680  14.972  -6.167  1.00  0.00     0.162 C 
HETATM   11  O1  UNL     1      41.710  18.510  -5.239  1.00  0.00    -0.271 OA
ATOM     12  H3  UNL     1      43.201  18.331  -4.558  1.00  0.00     0.162 HD
BRANCH   9  13
HETATM   13  C5  UNL     1      39.869  17.550  -6.405  1.00  0.00     0.096 C 
HETATM   14  C6  UNL     1      39.371  18.950  -6.068  1.00  0.00     0.038 C 
HETATM   15 BR1  UNL     1      38.628  16.338  -5.529  1.00  0.00    -0.075 Br
BRANCH  13  16
HETATM   16  C4  UNL     1      39.979  17.284  -7.858  1.00  0.00     0.034 C 
BRANCH  16  17
HETATM   17  C2  UNL     1      39.311  18.233  -8.789  1.00  0.00    -0.021 C 
HETATM   18  C1  UNL     1      40.049  18.656 -10.000  1.00  0.00     0.009 C 
HETATM   19  C3  UNL     1      38.015  17.535  -9.246  1.00  0.00     0.009 C 
ENDBRANCH  16  17
ENDBRANCH  13  16
ENDBRANCH   9  13
ENDBRANCH   4   5
ENDBRANCH   3   4
ENDBRANCH   2   3
ENDBRANCH   1   2
BRANCH   1  20
HETATM   20  C14 UNL     1      48.511  17.374  -2.876  1.00  0.00     0.020 C 
BRANCH  20  21
HETATM   21  C15 UNL     1      49.096  16.015  -2.745  1.00  0.00     0.122 C 
BRANCH  21  22
HETATM   22  N4  UNL     1      50.518  16.062  -2.643  1.00  0.00    -0.361 N 
HETATM   23  C16 UNL     1      51.354  16.293  -3.745  1.00  0.00     0.217 C 
HETATM   24  O2  UNL     1      50.879  16.482  -4.908  1.00  0.00    -0.274 OA
ATOM     25  H4  UNL     1      50.946  15.921  -1.728  1.00  0.00     0.162 HD
BRANCH  23  26
HETATM   26  C17 UNL     1      52.840  16.331  -3.620  1.00  0.00     0.103 C 
BRANCH  26  27
HETATM   27  C18 UNL     1      53.430  16.797  -4.929  1.00  0.00     0.014 C 
BRANCH  27  28
HETATM   28  C19 UNL     1      54.925  16.896  -4.765  1.00  0.00    -0.014 C 
HETATM   29  C20 UNL     1      55.364  18.327  -4.845  1.00  0.00     0.005 C 
HETATM   30  C21 UNL     1      55.022  18.995  -3.548  1.00  0.00     0.001 C 
HETATM   31  C22 UNL     1      56.211  19.135  -2.632  1.00  0.00     0.013 C 
HETATM   32  C23 UNL     1      56.642  17.841  -2.017  1.00  0.00     0.093 C 
HETATM   33  C25 UNL     1      56.618  16.657  -2.914  1.00  0.00     0.014 C 
HETATM   34  C26 UNL     1      55.294  16.246  -3.448  1.00  0.00     0.005 C 
BRANCH  32  35
HETATM   35  C24 UNL     1      55.999  17.597  -0.668  1.00  0.00     0.391 C 
HETATM   36  F1  UNL     1      56.680  18.353   0.298  1.00  0.00    -0.171 F 
HETATM   37  F2  UNL     1      54.694  18.044  -0.598  1.00  0.00    -0.171 F 
HETATM   38  F3  UNL     1      56.145  16.279  -0.294  1.00  0.00    -0.171 F 
ENDBRANCH  32  35
ENDBRANCH  27  28
ENDBRANCH  26  27
ENDBRANCH  23  26
ENDBRANCH  21  22
ENDBRANCH  20  21
ENDBRANCH   1  20
TORSDOF 14
ENDMDL
MODEL 5
REMARK VINA RESULT: -8.902638560      6.589     13.566
REMARK  14 active torsions:
REMARK  status: ('A' for Active; 'I' for Inactive)
REMARK    1  A    between atoms: C2_2  and  C4_4 
REMARK    2  A    between atoms: C4_4  and  C5_5 
REMARK    3  A    between atoms: C5_5  and  C7_8 
REMARK       I    between atoms: C7_8  and  N1_10 
REMARK       I    between atoms: N1_10  and  C9_12 
REMARK    4  A    between atoms: N3_14  and  C10_16 
REMARK    5  A    between atoms: C10_16  and  C11_17 
REMARK    6  A    between atoms: C11_17  and  C12_18 
REMARK    7  A    between atoms: C12_18  and  C13_19 
REMARK    8  A    between atoms: C13_19  and  C14_20 
REMARK    9  A    between atoms: C14_20  and  C15_21 
REMARK   10  A    between atoms: C15_21  and  N4_22 
REMARK       I    between atoms: N4_22  and  C16_24 
REMARK   11  A    between atoms: C16_24  and  C17_26 
REMARK   12  A    between atoms: C17_26  and  C18_27 
REMARK   13  A    between atoms: C18_27  and  C19_28 
REMARK   14  A    between atoms: C23_32  and  C24_33 
ROOT
HETATM    1  C13 UNL     1      40.708  15.813  -7.345  1.00  0.00     0.002 C 
ENDROOT
BRANCH   1   2
HETATM    2  C12 UNL     1      40.780  14.432  -6.788  1.00  0.00     0.002 C 
BRANCH   2   3
HETATM    3  C11 UNL     1      41.658  14.397  -5.565  1.00  0.00     0.020 C 
BRANCH   3   4
HETATM    4  C10 UNL     1      41.937  15.792  -5.068  1.00  0.00     0.122 C 
BRANCH   4   5
HETATM    5  N3  UNL     1      43.365  15.856  -4.769  1.00  0.00    -0.364 N 
HETATM    6  C9  UNL     1      43.877  16.987  -4.474  1.00  0.00     0.192 C 
HETATM    7  N1  UNL     1      45.276  17.172  -4.160  1.00  0.00    -0.295 N 
HETATM    8  N2  UNL     1      43.045  18.131  -4.449  1.00  0.00    -0.063 NA
HETATM    9  C7  UNL     1      46.132  16.048  -4.177  1.00  0.00     0.245 C 
HETATM   10  C8  UNL     1      45.668  18.525  -3.858  1.00  0.00     0.162 C 
HETATM   11  O1  UNL     1      45.556  14.922  -4.478  1.00  0.00    -0.271 OA
ATOM     12  H3  UNL     1      43.940  15.014  -4.796  1.00  0.00     0.162 HD
BRANCH   9  13
HETATM   13  C5  UNL     1      47.588  16.017  -3.895  1.00  0.00     0.096 C 
HETATM   14  C6  UNL     1      48.259  16.619  -5.125  1.00  0.00     0.038 C 
HETATM   15 BR1  UNL     1      48.197  14.173  -3.830  1.00  0.00    -0.075 Br
BRANCH  13  16
HETATM   16  C4  UNL     1      47.874  16.745  -2.638  1.00  0.00     0.034 C 
BRANCH  16  17
HETATM   17  C2  UNL     1      48.939  17.784  -2.664  1.00  0.00    -0.021 C 
HETATM   18  C1  UNL     1      48.929  18.819  -1.606  1.00  0.00     0.009 C 
HETATM   19  C3  UNL     1      50.275  17.021  -2.567  1.00  0.00     0.009 C 
ENDBRANCH  16  17
ENDBRANCH  13  16
ENDBRANCH   9  13
ENDBRANCH   4   5
ENDBRANCH   3   4
ENDBRANCH   2   3
ENDBRANCH   1   2
BRANCH   1  20
HETATM   20  C14 UNL     1      39.253  16.210  -7.553  1.00  0.00     0.020 C 
BRANCH  20  21
HETATM   21  C15 UNL     1      38.788  17.271  -6.622  1.00  0.00     0.122 C 
BRANCH  21  22
HETATM   22  N4  UNL     1      38.449  16.737  -5.343  1.00  0.00    -0.361 N 
HETATM   23  C16 UNL     1      38.849  17.334  -4.139  1.00  0.00     0.217 C 
HETATM   24  O2  UNL     1      39.538  18.400  -4.125  1.00  0.00    -0.274 OA
ATOM     25  H4  UNL     1      37.892  15.884  -5.303  1.00  0.00     0.162 HD
BRANCH  23  26
HETATM   26  C17 UNL     1      38.490  16.756  -2.810  1.00  0.00     0.103 C 
BRANCH  26  27
HETATM   27  C18 UNL     1      36.988  16.781  -2.655  1.00  0.00     0.014 C 
BRANCH  27  28
HETATM   28  C19 UNL     1      36.537  15.415  -2.208  1.00  0.00    -0.014 C 
HETATM   29  C20 UNL     1      35.185  15.101  -2.775  1.00  0.00     0.005 C 
HETATM   30  C21 UNL     1      35.355  14.742  -4.219  1.00  0.00     0.001 C 
HETATM   31  C22 UNL     1      35.320  13.254  -4.459  1.00  0.00     0.013 C 
HETATM   32  C23 UNL     1      36.553  12.549  -3.991  1.00  0.00     0.093 C 
HETATM   33  C25 UNL     1      37.111  13.009  -2.693  1.00  0.00     0.014 C 
HETATM   34  C26 UNL     1      37.592  14.413  -2.629  1.00  0.00     0.005 C 
BRANCH  32  35
HETATM   35  C24 UNL     1      37.591  12.407  -5.084  1.00  0.00     0.391 C 
HETATM   36  F1  UNL     1      37.273  11.284  -5.864  1.00  0.00    -0.171 F 
HETATM   37  F2  UNL     1      37.588  13.459  -5.979  1.00  0.00    -0.171 F 
HETATM   38  F3  UNL     1      38.833  12.156  -4.543  1.00  0.00    -0.171 F 
ENDBRANCH  32  35
ENDBRANCH  27  28
ENDBRANCH  26  27
ENDBRANCH  23  26
ENDBRANCH  21  22
ENDBRANCH  20  21
ENDBRANCH   1  20
TORSDOF 14
ENDMDL
