MODEL 1
REMARK VINA RESULT: -9.618666400      0.000      0.000
REMARK  11 active torsions:
REMARK  status: ('A' for Active; 'I' for Inactive)
REMARK    1  A    between atoms: C4_4  and  O1_5 
REMARK    2  A    between atoms: C4_4  and  C5_7 
REMARK    3  A    between atoms: C5_7  and  O2_8 
REMARK    4  A    between atoms: O2_8  and  C6_9 
REMARK    5  A    between atoms: C6_9  and  C7_10 
REMARK    6  A    between atoms: C7_10  and  N1_11 
REMARK    7  A    between atoms: N1_11  and  C8_14 
REMARK    8  A    between atoms: C8_14  and  C9_15 
REMARK    9  A    between atoms: C9_15  and  C12_18 
REMARK   10  A    between atoms: C12_18  and  C13_19 
REMARK   11  A    between atoms: C20_28  and  C21_29 
ROOT
HETATM    1  O2  UNL     1      22.146 -16.853  18.057  1.00  0.00    -0.385 OA
ENDROOT
BRANCH   1   2
HETATM    2  C5  UNL     1      22.807 -16.444  19.185  1.00  0.00     0.224 C 
BRANCH   2   3
HETATM    3  C4  UNL     1      24.219 -15.975  18.897  1.00  0.00     0.157 C 
HETATM    4  C3  UNL     1      24.303 -14.445  18.970  1.00  0.00     0.066 C 
HETATM    5  C2  UNL     1      25.673 -14.037  19.473  1.00  0.00     0.021 C 
HETATM    6  C1  UNL     1      25.556 -13.671  20.910  1.00  0.00     0.013 C 
HETATM    7  C20 UNL     1      26.679 -15.103  19.155  1.00  0.00     0.203 C 
HETATM    8  O3  UNL     1      26.358 -16.329  19.726  1.00  0.00    -0.291 OA
HETATM    9  N2  UNL     1      25.042 -16.426  20.014  1.00  0.00    -0.164 NA
HETATM   10  C19 UNL     1      24.786 -17.831  20.304  1.00  0.00     0.147 C 
BRANCH   7  11
HETATM   11  C21 UNL     1      28.076 -14.758  19.547  1.00  0.00     0.216 C 
HETATM   12 CL1  UNL     1      28.440 -15.016  21.260  1.00  0.00    -0.081 Cl
HETATM   13 CL2  UNL     1      28.555 -13.133  19.013  1.00  0.00    -0.081 Cl
HETATM   14 CL3  UNL     1      29.143 -15.897  18.641  1.00  0.00    -0.081 Cl
ENDBRANCH   7  11
BRANCH   3  15
HETATM   15  O1  UNL     1      24.607 -16.475  17.678  1.00  0.00    -0.371 OA
ATOM     16  H1  UNL     1      25.093 -17.287  17.749  1.00  0.00     0.212 HD
ENDBRANCH   3  15
ENDBRANCH   2   3
ENDBRANCH   1   2
BRANCH   1  17
HETATM   17  C6  UNL     1      20.833 -17.183  18.247  1.00  0.00     0.195 C 
BRANCH  17  18
HETATM   18  C7  UNL     1      20.560 -18.227  19.294  1.00  0.00     0.258 C 
BRANCH  18  19
HETATM   19  N1  UNL     1      19.348 -18.979  18.908  1.00  0.00    -0.072 N 
ATOM     20  H12 UNL     1      19.013 -18.683  17.991  1.00  0.00     0.277 HD
ATOM     21  H11 UNL     1      19.574 -19.951  18.697  1.00  0.00     0.277 HD
BRANCH  19  22
HETATM   22  C8  UNL     1      18.309 -18.899  19.880  1.00  0.00     0.241 C 
BRANCH  22  23
HETATM   23  C9  UNL     1      16.985 -18.441  19.266  1.00  0.00    -0.020 C 
HETATM   24  C10 UNL     1      16.642 -19.310  18.092  1.00  0.00     0.016 C 
HETATM   25  C11 UNL     1      15.951 -18.429  20.351  1.00  0.00     0.016 C 
BRANCH  23  26
HETATM   26  C12 UNL     1      17.184 -17.005  18.785  1.00  0.00     0.048 C 
BRANCH  26  27
HETATM   27  C13 UNL     1      15.943 -16.339  18.384  1.00  0.00    -0.057 A 
HETATM   28  C14 UNL     1      14.815 -17.049  18.008  1.00  0.00     0.007 A 
HETATM   29  C15 UNL     1      13.663 -16.413  17.635  1.00  0.00     0.001 A 
HETATM   30  C16 UNL     1      13.643 -15.033  17.639  1.00  0.00     0.000 A 
HETATM   31  C17 UNL     1      14.737 -14.285  18.005  1.00  0.00     0.001 A 
HETATM   32  C18 UNL     1      15.878 -14.956  18.374  1.00  0.00     0.007 A 
ENDBRANCH  26  27
ENDBRANCH  23  26
ENDBRANCH  22  23
ENDBRANCH  19  22
ENDBRANCH  18  19
ENDBRANCH  17  18
ENDBRANCH   1  17
TORSDOF 11
ENDMDL
MODEL 2
REMARK VINA RESULT: -9.585237039      0.998      1.371
REMARK  11 active torsions:
REMARK  status: ('A' for Active; 'I' for Inactive)
REMARK    1  A    between atoms: C4_4  and  O1_5 
REMARK    2  A    between atoms: C4_4  and  C5_7 
REMARK    3  A    between atoms: C5_7  and  O2_8 
REMARK    4  A    between atoms: O2_8  and  C6_9 
REMARK    5  A    between atoms: C6_9  and  C7_10 
REMARK    6  A    between atoms: C7_10  and  N1_11 
REMARK    7  A    between atoms: N1_11  and  C8_14 
REMARK    8  A    between atoms: C8_14  and  C9_15 
REMARK    9  A    between atoms: C9_15  and  C12_18 
REMARK   10  A    between atoms: C12_18  and  C13_19 
REMARK   11  A    between atoms: C20_28  and  C21_29 
ROOT
HETATM    1  O2  UNL     1      22.772 -16.789  17.802  1.00  0.00    -0.385 OA
ENDROOT
BRANCH   1   2
HETATM    2  C5  UNL     1      23.292 -16.389  19.004  1.00  0.00     0.224 C 
BRANCH   2   3
HETATM    3  C4  UNL     1      24.678 -15.791  18.871  1.00  0.00     0.157 C 
HETATM    4  C3  UNL     1      24.644 -14.284  19.154  1.00  0.00     0.066 C 
HETATM    5  C2  UNL     1      25.951 -13.859  19.791  1.00  0.00     0.021 C 
HETATM    6  C1  UNL     1      25.732 -13.704  21.254  1.00  0.00     0.013 C 
HETATM    7  C20 UNL     1      27.049 -14.801  19.396  1.00  0.00     0.203 C 
HETATM    8  O3  UNL     1      26.792 -16.113  19.776  1.00  0.00    -0.291 OA
HETATM    9  N2  UNL     1      25.473 -16.337  19.966  1.00  0.00    -0.164 NA
HETATM   10  C19 UNL     1      25.308 -17.782  20.048  1.00  0.00     0.147 C 
BRANCH   7  11
HETATM   11  C21 UNL     1      28.395 -14.421  19.917  1.00  0.00     0.216 C 
HETATM   12 CL1  UNL     1      28.868 -15.264  21.401  1.00  0.00    -0.081 Cl
HETATM   13 CL2  UNL     1      28.597 -12.663  20.069  1.00  0.00    -0.081 Cl
HETATM   14 CL3  UNL     1      29.580 -14.937  18.659  1.00  0.00    -0.081 Cl
ENDBRANCH   7  11
BRANCH   3  15
HETATM   15  O1  UNL     1      25.166 -16.090  17.622  1.00  0.00    -0.371 OA
ATOM     16  H1  UNL     1      24.494 -16.398  17.026  1.00  0.00     0.212 HD
ENDBRANCH   3  15
ENDBRANCH   2   3
ENDBRANCH   1   2
BRANCH   1  17
HETATM   17  C6  UNL     1      22.153 -18.008  17.820  1.00  0.00     0.195 C 
BRANCH  17  18
HETATM   18  C7  UNL     1      21.882 -18.591  19.179  1.00  0.00     0.258 C 
BRANCH  18  19
HETATM   19  N1  UNL     1      20.421 -18.739  19.347  1.00  0.00    -0.072 N 
ATOM     20  H12 UNL     1      19.978 -19.001  18.466  1.00  0.00     0.277 HD
ATOM     21  H11 UNL     1      20.199 -19.568  19.899  1.00  0.00     0.277 HD
BRANCH  19  22
HETATM   22  C8  UNL     1      19.804 -17.580  19.901  1.00  0.00     0.241 C 
BRANCH  22  23
HETATM   23  C9  UNL     1      18.671 -17.056  19.016  1.00  0.00    -0.020 C 
HETATM   24  C10 UNL     1      19.200 -16.009  18.081  1.00  0.00     0.016 C 
HETATM   25  C11 UNL     1      18.035 -18.231  18.335  1.00  0.00     0.016 C 
BRANCH  23  26
HETATM   26  C12 UNL     1      17.631 -16.424  19.940  1.00  0.00     0.048 C 
BRANCH  26  27
HETATM   27  C13 UNL     1      16.338 -16.185  19.297  1.00  0.00    -0.057 A 
HETATM   28  C14 UNL     1      15.289 -17.084  19.397  1.00  0.00     0.007 A 
HETATM   29  C15 UNL     1      14.086 -16.847  18.790  1.00  0.00     0.001 A 
HETATM   30  C16 UNL     1      13.933 -15.681  18.067  1.00  0.00     0.000 A 
HETATM   31  C17 UNL     1      14.945 -14.759  17.939  1.00  0.00     0.001 A 
HETATM   32  C18 UNL     1      16.140 -15.028  18.562  1.00  0.00     0.007 A 
ENDBRANCH  26  27
ENDBRANCH  23  26
ENDBRANCH  22  23
ENDBRANCH  19  22
ENDBRANCH  18  19
ENDBRANCH  17  18
ENDBRANCH   1  17
TORSDOF 11
ENDMDL
MODEL 3
REMARK VINA RESULT: -9.548324968      0.867      1.327
REMARK  11 active torsions:
REMARK  status: ('A' for Active; 'I' for Inactive)
REMARK    1  A    between atoms: C4_4  and  O1_5 
REMARK    2  A    between atoms: C4_4  and  C5_7 
REMARK    3  A    between atoms: C5_7  and  O2_8 
REMARK    4  A    between atoms: O2_8  and  C6_9 
REMARK    5  A    between atoms: C6_9  and  C7_10 
REMARK    6  A    between atoms: C7_10  and  N1_11 
REMARK    7  A    between atoms: N1_11  and  C8_14 
REMARK    8  A    between atoms: C8_14  and  C9_15 
REMARK    9  A    between atoms: C9_15  and  C12_18 
REMARK   10  A    between atoms: C12_18  and  C13_19 
REMARK   11  A    between atoms: C20_28  and  C21_29 
ROOT
HETATM    1  O2  UNL     1      22.040 -15.259  18.753  1.00  0.00    -0.385 OA
ENDROOT
BRANCH   1   2
HETATM    2  C5  UNL     1      22.931 -16.261  19.037  1.00  0.00     0.224 C 
BRANCH   2   3
HETATM    3  C4  UNL     1      24.370 -15.846  18.807  1.00  0.00     0.157 C 
HETATM    4  C3  UNL     1      24.516 -14.323  18.925  1.00  0.00     0.066 C 
HETATM    5  C2  UNL     1      25.885 -13.988  19.482  1.00  0.00     0.021 C 
HETATM    6  C1  UNL     1      25.737 -13.656  20.925  1.00  0.00     0.013 C 
HETATM    7  C20 UNL     1      26.855 -15.087  19.167  1.00  0.00     0.203 C 
HETATM    8  O3  UNL     1      26.464 -16.313  19.693  1.00  0.00    -0.291 OA
HETATM    9  N2  UNL     1      25.136 -16.361  19.936  1.00  0.00    -0.164 NA
HETATM   10  C19 UNL     1      24.811 -17.761  20.179  1.00  0.00     0.147 C 
BRANCH   7  11
HETATM   11  C21 UNL     1      28.252 -14.814  19.612  1.00  0.00     0.216 C 
HETATM   12 CL1  UNL     1      28.567 -15.204  21.310  1.00  0.00    -0.081 Cl
HETATM   13 CL2  UNL     1      28.789 -13.171  19.206  1.00  0.00    -0.081 Cl
HETATM   14 CL3  UNL     1      29.306 -15.917  18.651  1.00  0.00    -0.081 Cl
ENDBRANCH   7  11
BRANCH   3  15
HETATM   15  O1  UNL     1      24.776 -16.329  17.587  1.00  0.00    -0.371 OA
ATOM     16  H1  UNL     1      24.469 -17.212  17.418  1.00  0.00     0.212 HD
ENDBRANCH   3  15
ENDBRANCH   2   3
ENDBRANCH   1   2
BRANCH   1  17
HETATM   17  C6  UNL     1      20.724 -15.610  18.867  1.00  0.00     0.195 C 
BRANCH  17  18
HETATM   18  C7  UNL     1      20.420 -16.727  19.828  1.00  0.00     0.258 C 
BRANCH  18  19
HETATM   19  N1  UNL     1      18.955 -16.809  20.010  1.00  0.00    -0.072 N 
ATOM     20  H12 UNL     1      18.723 -17.290  20.878  1.00  0.00     0.277 HD
ATOM     21  H11 UNL     1      18.562 -15.891  20.217  1.00  0.00     0.277 HD
BRANCH  19  22
HETATM   22  C8  UNL     1      18.289 -17.409  18.901  1.00  0.00     0.241 C 
BRANCH  22  23
HETATM   23  C9  UNL     1      17.208 -18.395  19.350  1.00  0.00    -0.020 C 
HETATM   24  C10 UNL     1      16.568 -19.026  18.149  1.00  0.00     0.016 C 
HETATM   25  C11 UNL     1      17.836 -19.368  20.301  1.00  0.00     0.016 C 
BRANCH  23  26
HETATM   26  C12 UNL     1      16.157 -17.594  20.116  1.00  0.00     0.048 C 
BRANCH  26  27
HETATM   27  C13 UNL     1      15.347 -16.719  19.266  1.00  0.00    -0.057 A 
HETATM   28  C14 UNL     1      15.800 -15.481  18.840  1.00  0.00     0.007 A 
HETATM   29  C15 UNL     1      15.031 -14.675  18.047  1.00  0.00     0.001 A 
HETATM   30  C16 UNL     1      13.779 -15.121  17.674  1.00  0.00     0.000 A 
HETATM   31  C17 UNL     1      13.286 -16.341  18.071  1.00  0.00     0.001 A 
HETATM   32  C18 UNL     1      14.084 -17.126  18.867  1.00  0.00     0.007 A 
ENDBRANCH  26  27
ENDBRANCH  23  26
ENDBRANCH  22  23
ENDBRANCH  19  22
ENDBRANCH  18  19
ENDBRANCH  17  18
ENDBRANCH   1  17
TORSDOF 11
ENDMDL
MODEL 4
REMARK VINA RESULT: -9.380182873      1.335      1.695
REMARK  11 active torsions:
REMARK  status: ('A' for Active; 'I' for Inactive)
REMARK    1  A    between atoms: C4_4  and  O1_5 
REMARK    2  A    between atoms: C4_4  and  C5_7 
REMARK    3  A    between atoms: C5_7  and  O2_8 
REMARK    4  A    between atoms: O2_8  and  C6_9 
REMARK    5  A    between atoms: C6_9  and  C7_10 
REMARK    6  A    between atoms: C7_10  and  N1_11 
REMARK    7  A    between atoms: N1_11  and  C8_14 
REMARK    8  A    between atoms: C8_14  and  C9_15 
REMARK    9  A    between atoms: C9_15  and  C12_18 
REMARK   10  A    between atoms: C12_18  and  C13_19 
REMARK   11  A    between atoms: C20_28  and  C21_29 
ROOT
HETATM    1  O2  UNL     1      22.978 -17.213  17.529  1.00  0.00    -0.385 OA
ENDROOT
BRANCH   1   2
HETATM    2  C5  UNL     1      23.959 -17.922  18.169  1.00  0.00     0.224 C 
BRANCH   2   3
HETATM    3  C4  UNL     1      25.217 -17.108  18.391  1.00  0.00     0.157 C 
HETATM    4  C3  UNL     1      25.155 -15.794  17.602  1.00  0.00     0.066 C 
HETATM    5  C2  UNL     1      25.895 -14.712  18.362  1.00  0.00     0.021 C 
HETATM    6  C1  UNL     1      24.894 -13.850  19.047  1.00  0.00     0.013 C 
HETATM    7  C20 UNL     1      26.938 -15.324  19.249  1.00  0.00     0.203 C 
HETATM    8  O3  UNL     1      26.400 -16.210  20.175  1.00  0.00    -0.291 OA
HETATM    9  N2  UNL     1      25.196 -16.682  19.786  1.00  0.00    -0.164 NA
HETATM   10  C19 UNL     1      24.892 -17.808  20.661  1.00  0.00     0.147 C 
BRANCH   7  11
HETATM   11  C21 UNL     1      27.772 -14.330  19.985  1.00  0.00     0.216 C 
HETATM   12 CL1  UNL     1      27.021 -13.696  21.458  1.00  0.00    -0.081 Cl
HETATM   13 CL2  UNL     1      28.364 -13.025  18.937  1.00  0.00    -0.081 Cl
HETATM   14 CL3  UNL     1      29.244 -15.219  20.528  1.00  0.00    -0.081 Cl
ENDBRANCH   7  11
BRANCH   3  15
HETATM   15  O1  UNL     1      26.304 -17.881  18.058  1.00  0.00    -0.371 OA
ATOM     16  H1  UNL     1      26.186 -18.798  18.275  1.00  0.00     0.212 HD
ENDBRANCH   3  15
ENDBRANCH   2   3
ENDBRANCH   1   2
BRANCH   1  17
HETATM   17  C6  UNL     1      21.743 -17.284  18.113  1.00  0.00     0.195 C 
BRANCH  17  18
HETATM   18  C7  UNL     1      21.631 -16.697  19.493  1.00  0.00     0.258 C 
BRANCH  18  19
HETATM   19  N1  UNL     1      20.379 -15.915  19.574  1.00  0.00    -0.072 N 
ATOM     20  H12 UNL     1      20.530 -15.037  20.070  1.00  0.00     0.277 HD
ATOM     21  H11 UNL     1      20.119 -15.548  18.659  1.00  0.00     0.277 HD
BRANCH  19  22
HETATM   22  C8  UNL     1      19.302 -16.648  20.153  1.00  0.00     0.241 C 
BRANCH  22  23
HETATM   23  C9  UNL     1      18.099 -16.736  19.212  1.00  0.00    -0.020 C 
HETATM   24  C10 UNL     1      18.293 -15.804  18.053  1.00  0.00     0.016 C 
HETATM   25  C11 UNL     1      17.916 -18.173  18.828  1.00  0.00     0.016 C 
BRANCH  23  26
HETATM   26  C12 UNL     1      16.871 -16.298  20.008  1.00  0.00     0.048 C 
BRANCH  26  27
HETATM   27  C13 UNL     1      15.713 -15.969  19.174  1.00  0.00    -0.057 A 
HETATM   28  C14 UNL     1      14.751 -16.910  18.847  1.00  0.00     0.007 A 
HETATM   29  C15 UNL     1      13.675 -16.588  18.066  1.00  0.00     0.001 A 
HETATM   30  C16 UNL     1      13.563 -15.293  17.604  1.00  0.00     0.000 A 
HETATM   31  C17 UNL     1      14.492 -14.324  17.902  1.00  0.00     0.001 A 
HETATM   32  C18 UNL     1      15.560 -14.681  18.689  1.00  0.00     0.007 A 
ENDBRANCH  26  27
ENDBRANCH  23  26
ENDBRANCH  22  23
ENDBRANCH  19  22
ENDBRANCH  18  19
ENDBRANCH  17  18
ENDBRANCH   1  17
TORSDOF 11
ENDMDL
MODEL 5
REMARK VINA RESULT: -9.232269712      1.107      1.915
REMARK  11 active torsions:
REMARK  status: ('A' for Active; 'I' for Inactive)
REMARK    1  A    between atoms: C4_4  and  O1_5 
REMARK    2  A    between atoms: C4_4  and  C5_7 
REMARK    3  A    between atoms: C5_7  and  O2_8 
REMARK    4  A    between atoms: O2_8  and  C6_9 
REMARK    5  A    between atoms: C6_9  and  C7_10 
REMARK    6  A    between atoms: C7_10  and  N1_11 
REMARK    7  A    between atoms: N1_11  and  C8_14 
REMARK    8  A    between atoms: C8_14  and  C9_15 
REMARK    9  A    between atoms: C9_15  and  C12_18 
REMARK   10  A    between atoms: C12_18  and  C13_19 
REMARK   11  A    between atoms: C20_28  and  C21_29 
ROOT
HETATM    1  O2  UNL     1      21.366 -16.524  18.826  1.00  0.00    -0.385 OA
ENDROOT
BRANCH   1   2
HETATM    2  C5  UNL     1      22.604 -17.088  18.665  1.00  0.00     0.224 C 
BRANCH   2   3
HETATM    3  C4  UNL     1      23.728 -16.149  19.053  1.00  0.00     0.157 C 
HETATM    4  C3  UNL     1      24.197 -16.434  20.486  1.00  0.00     0.066 C 
HETATM    5  C2  UNL     1      25.680 -16.147  20.600  1.00  0.00     0.021 C 
HETATM    6  C1  UNL     1      26.413 -17.441  20.560  1.00  0.00     0.013 C 
HETATM    7  C20 UNL     1      26.092 -15.138  19.570  1.00  0.00     0.203 C 
HETATM    8  O3  UNL     1      25.833 -15.561  18.271  1.00  0.00    -0.291 OA
HETATM    9  N2  UNL     1      24.876 -16.513  18.229  1.00  0.00    -0.164 NA
HETATM   10  C19 UNL     1      24.483 -16.641  16.832  1.00  0.00     0.147 C 
BRANCH   7  11
HETATM   11  C21 UNL     1      27.526 -14.735  19.651  1.00  0.00     0.216 C 
HETATM   12 CL1  UNL     1      28.631 -15.779  18.742  1.00  0.00    -0.081 Cl
HETATM   13 CL2  UNL     1      28.076 -14.499  21.323  1.00  0.00    -0.081 Cl
HETATM   14 CL3  UNL     1      27.633 -13.111  18.874  1.00  0.00    -0.081 Cl
ENDBRANCH   7  11
BRANCH   3  15
HETATM   15  O1  UNL     1      23.300 -14.855  18.877  1.00  0.00    -0.371 OA
ATOM     16  H1  UNL     1      22.402 -14.722  19.154  1.00  0.00     0.212 HD
ENDBRANCH   3  15
ENDBRANCH   2   3
ENDBRANCH   1   2
BRANCH   1  17
HETATM   17  C6  UNL     1      20.317 -17.326  18.470  1.00  0.00     0.195 C 
BRANCH  17  18
HETATM   18  C7  UNL     1      20.135 -18.575  19.288  1.00  0.00     0.258 C 
BRANCH  18  19
HETATM   19  N1  UNL     1      18.824 -19.171  18.956  1.00  0.00    -0.072 N 
ATOM     20  H12 UNL     1      18.433 -18.745  18.116  1.00  0.00     0.277 HD
ATOM     21  H11 UNL     1      18.933 -20.129  18.622  1.00  0.00     0.277 HD
BRANCH  19  22
HETATM   22  C8  UNL     1      17.896 -19.112  20.036  1.00  0.00     0.241 C 
BRANCH  22  23
HETATM   23  C9  UNL     1      16.547 -18.538  19.600  1.00  0.00    -0.020 C 
HETATM   24  C10 UNL     1      16.232 -18.985  18.204  1.00  0.00     0.016 C 
HETATM   25  C11 UNL     1      15.524 -18.932  20.623  1.00  0.00     0.016 C 
BRANCH  23  26
HETATM   26  C12 UNL     1      16.677 -17.016  19.622  1.00  0.00     0.048 C 
BRANCH  26  27
HETATM   27  C13 UNL     1      15.589 -16.320  18.930  1.00  0.00    -0.057 A 
HETATM   28  C14 UNL     1      15.775 -15.096  18.311  1.00  0.00     0.007 A 
HETATM   29  C15 UNL     1      14.749 -14.458  17.669  1.00  0.00     0.001 A 
HETATM   30  C16 UNL     1      13.509 -15.064  17.649  1.00  0.00     0.000 A 
HETATM   31  C17 UNL     1      13.276 -16.278  18.250  1.00  0.00     0.001 A 
HETATM   32  C18 UNL     1      14.328 -16.891  18.885  1.00  0.00     0.007 A 
ENDBRANCH  26  27
ENDBRANCH  23  26
ENDBRANCH  22  23
ENDBRANCH  19  22
ENDBRANCH  18  19
ENDBRANCH  17  18
ENDBRANCH   1  17
TORSDOF 11
ENDMDL
