MODEL 1
REMARK VINA RESULT: -6.655884257      0.000      0.000
REMARK  4 active torsions:
REMARK  status: ('A' for Active; 'I' for Inactive)
REMARK    1  A    between atoms: C1_2  and  C2_3 
REMARK       I    between atoms: C1_2  and  N2_10 
REMARK    2  A    between atoms: C2_3  and  N1_4 
REMARK    3  A    between atoms: N2_10  and  C8_12 
REMARK    4  A    between atoms: C13_18  and  O2_19 
ROOT
HETATM    1  O1  UNL     1      18.063  11.818  -1.209  1.00  0.00    -0.272 OA
HETATM    2  C1  UNL     1      17.755  10.613  -0.863  1.00  0.00     0.246 C 
HETATM    3  N2  UNL     1      18.636   9.920   0.006  1.00  0.00    -0.352 N 
ATOM      4  H2  UNL     1      18.431   8.964   0.296  1.00  0.00     0.163 HD
ENDROOT
BRANCH   3   5
HETATM    5  C8  UNL     1      19.838  10.591   0.477  1.00  0.00     0.114 C 
HETATM    6  C9  UNL     1      21.035   9.697   0.312  1.00  0.00     0.038 C 
HETATM    7  C10 UNL     1      21.101   8.525   1.216  1.00  0.00     0.076 C 
HETATM    8  S1  UNL     1      20.385   8.744   2.842  1.00  0.00    -0.169 SA
HETATM    9  C11 UNL     1      21.039  10.246   3.621  1.00  0.00     0.076 C 
HETATM   10  C12 UNL     1      20.904  11.364   2.604  1.00  0.00     0.044 C 
HETATM   11  C13 UNL     1      19.623  11.121   1.854  1.00  0.00     0.141 C 
BRANCH  11  12
HETATM   12  O2  UNL     1      18.967  12.360   1.744  1.00  0.00    -0.393 OA
ATOM     13  H2  UNL     1      18.152  12.304   2.229  1.00  0.00     0.210 HD
ENDBRANCH  11  12
ENDBRANCH   3   5
BRANCH   2  14
HETATM   14  C2  UNL     1      16.506  10.122  -1.439  1.00  0.00     0.374 C 
BRANCH  14  15
HETATM   15  N1  UNL     1      15.450   9.787  -0.544  1.00  0.00     0.097 N 
HETATM   16  C3  UNL     1      14.635   8.761  -1.199  1.00  0.00     0.273 C 
HETATM   17  C4  UNL     1      13.862   9.246  -2.373  1.00  0.00     0.030 C 
HETATM   18  C5  UNL     1      12.899  10.316  -1.869  1.00  0.00     0.003 C 
HETATM   19  C6  UNL     1      13.776  11.427  -1.356  1.00  0.00     0.030 C 
HETATM   20  C7  UNL     1      14.602  10.929  -0.218  1.00  0.00     0.273 C 
ENDBRANCH  14  15
ENDBRANCH   2  14
TORSDOF 4
ENDMDL
MODEL 2
REMARK VINA RESULT: -6.553550394      4.293      4.946
REMARK  4 active torsions:
REMARK  status: ('A' for Active; 'I' for Inactive)
REMARK    1  A    between atoms: C1_2  and  C2_3 
REMARK       I    between atoms: C1_2  and  N2_10 
REMARK    2  A    between atoms: C2_3  and  N1_4 
REMARK    3  A    between atoms: N2_10  and  C8_12 
REMARK    4  A    between atoms: C13_18  and  O2_19 
ROOT
HETATM    1  O1  UNL     1      13.529   7.701   0.312  1.00  0.00    -0.272 OA
HETATM    2  C1  UNL     1      14.406   8.612   0.054  1.00  0.00     0.246 C 
HETATM    3  N2  UNL     1      14.982   9.313   1.144  1.00  0.00    -0.352 N 
ATOM      4  H2  UNL     1      15.674  10.045   0.980  1.00  0.00     0.163 HD
ENDROOT
BRANCH   3   5
HETATM    5  C8  UNL     1      14.573   8.975   2.498  1.00  0.00     0.114 C 
HETATM    6  C9  UNL     1      13.405   9.824   2.918  1.00  0.00     0.038 C 
HETATM    7  C10 UNL     1      13.695  11.257   3.156  1.00  0.00     0.076 C 
HETATM    8  S1  UNL     1      15.327  11.637   3.783  1.00  0.00    -0.169 SA
HETATM    9  C11 UNL     1      15.697  10.615   5.235  1.00  0.00     0.076 C 
HETATM   10  C12 UNL     1      15.371   9.181   4.860  1.00  0.00     0.044 C 
HETATM   11  C13 UNL     1      15.749   9.011   3.413  1.00  0.00     0.141 C 
BRANCH  11  12
HETATM   12  O2  UNL     1      16.422   7.781   3.303  1.00  0.00    -0.393 OA
ATOM     13  H2  UNL     1      15.959   7.145   3.835  1.00  0.00     0.210 HD
ENDBRANCH  11  12
ENDBRANCH   3   5
BRANCH   2  14
HETATM   14  C2  UNL     1      14.683   8.797  -1.368  1.00  0.00     0.374 C 
BRANCH  14  15
HETATM   15  N1  UNL     1      14.575  10.113  -1.899  1.00  0.00     0.097 N 
HETATM   16  C3  UNL     1      13.147  10.408  -2.042  1.00  0.00     0.273 C 
HETATM   17  C4  UNL     1      12.459   9.623  -3.101  1.00  0.00     0.030 C 
HETATM   18  C5  UNL     1      13.117   9.984  -4.430  1.00  0.00     0.003 C 
HETATM   19  C6  UNL     1      14.542   9.514  -4.306  1.00  0.00     0.030 C 
HETATM   20  C7  UNL     1      15.220  10.252  -3.201  1.00  0.00     0.273 C 
ENDBRANCH  14  15
ENDBRANCH   2  14
TORSDOF 4
ENDMDL
MODEL 3
REMARK VINA RESULT: -6.444018010      2.240      6.647
REMARK  4 active torsions:
REMARK  status: ('A' for Active; 'I' for Inactive)
REMARK    1  A    between atoms: C1_2  and  C2_3 
REMARK       I    between atoms: C1_2  and  N2_10 
REMARK    2  A    between atoms: C2_3  and  N1_4 
REMARK    3  A    between atoms: N2_10  and  C8_12 
REMARK    4  A    between atoms: C13_18  and  O2_19 
ROOT
HETATM    1  O1  UNL     1      19.182  11.530  -0.949  1.00  0.00    -0.272 OA
HETATM    2  C1  UNL     1      18.985  10.274  -0.726  1.00  0.00     0.246 C 
HETATM    3  N2  UNL     1      17.651   9.792  -0.746  1.00  0.00    -0.352 N 
ATOM      4  H2  UNL     1      17.454   8.808  -0.567  1.00  0.00     0.163 HD
ENDROOT
BRANCH   3   5
HETATM    5  C8  UNL     1      16.568  10.722  -1.025  1.00  0.00     0.114 C 
HETATM    6  C9  UNL     1      15.930  11.182   0.258  1.00  0.00     0.038 C 
HETATM    7  C10 UNL     1      15.132  10.168   0.986  1.00  0.00     0.076 C 
HETATM    8  S1  UNL     1      14.297   8.949  -0.023  1.00  0.00    -0.169 SA
HETATM    9  C11 UNL     1      13.338   9.764  -1.329  1.00  0.00     0.076 C 
HETATM   10  C12 UNL     1      14.265  10.760  -2.001  1.00  0.00     0.044 C 
HETATM   11  C13 UNL     1      15.633  10.135  -2.027  1.00  0.00     0.141 C 
BRANCH  11  12
HETATM   12  O2  UNL     1      16.169  10.366  -3.306  1.00  0.00    -0.393 OA
ATOM     13  H2  UNL     1      16.080  11.292  -3.498  1.00  0.00     0.210 HD
ENDBRANCH  11  12
ENDBRANCH   3   5
BRANCH   2  14
HETATM   14  C2  UNL     1      20.203   9.509  -0.472  1.00  0.00     0.374 C 
BRANCH  14  15
HETATM   15  N1  UNL     1      20.514   9.186   0.879  1.00  0.00     0.097 N 
HETATM   16  C3  UNL     1      20.849  10.439   1.559  1.00  0.00     0.273 C 
HETATM   17  C4  UNL     1      22.128  11.055   1.119  1.00  0.00     0.030 C 
HETATM   18  C5  UNL     1      23.243  10.066   1.447  1.00  0.00     0.003 C 
HETATM   19  C6  UNL     1      22.956   8.853   0.602  1.00  0.00     0.030 C 
HETATM   20  C7  UNL     1      21.642   8.266   0.995  1.00  0.00     0.273 C 
ENDBRANCH  14  15
ENDBRANCH   2  14
TORSDOF 4
ENDMDL
MODEL 4
REMARK VINA RESULT: -6.397221313      2.213      6.527
REMARK  4 active torsions:
REMARK  status: ('A' for Active; 'I' for Inactive)
REMARK    1  A    between atoms: C1_2  and  C2_3 
REMARK       I    between atoms: C1_2  and  N2_10 
REMARK    2  A    between atoms: C2_3  and  N1_4 
REMARK    3  A    between atoms: N2_10  and  C8_12 
REMARK    4  A    between atoms: C13_18  and  O2_19 
ROOT
HETATM    1  O1  UNL     1      19.166  11.424  -0.877  1.00  0.00    -0.272 OA
HETATM    2  C1  UNL     1      18.935  10.162  -0.739  1.00  0.00     0.246 C 
HETATM    3  N2  UNL     1      17.593   9.713  -0.831  1.00  0.00    -0.352 N 
ATOM      4  H2  UNL     1      17.369   8.724  -0.721  1.00  0.00     0.163 HD
ENDROOT
BRANCH   3   5
HETATM    5  C8  UNL     1      16.539  10.683  -1.084  1.00  0.00     0.114 C 
HETATM    6  C9  UNL     1      15.920  11.133   0.211  1.00  0.00     0.038 C 
HETATM    7  C10 UNL     1      15.092  10.129   0.918  1.00  0.00     0.076 C 
HETATM    8  S1  UNL     1      14.215   8.961  -0.116  1.00  0.00    -0.169 SA
HETATM    9  C11 UNL     1      13.279   9.836  -1.399  1.00  0.00     0.076 C 
HETATM   10  C12 UNL     1      14.235  10.818  -2.050  1.00  0.00     0.044 C 
HETATM   11  C13 UNL     1      15.583  10.150  -2.097  1.00  0.00     0.141 C 
BRANCH  11  12
HETATM   12  O2  UNL     1      16.122  10.395  -3.372  1.00  0.00    -0.393 OA
ATOM     13  H2  UNL     1      15.570   9.961  -4.011  1.00  0.00     0.210 HD
ENDBRANCH  11  12
ENDBRANCH   3   5
BRANCH   2  14
HETATM   14  C2  UNL     1      20.128   9.354  -0.497  1.00  0.00     0.374 C 
BRANCH  14  15
HETATM   15  N1  UNL     1      21.143   9.904   0.336  1.00  0.00     0.097 N 
HETATM   16  C3  UNL     1      22.351   9.099   0.137  1.00  0.00     0.273 C 
HETATM   17  C4  UNL     1      22.266   7.717   0.677  1.00  0.00     0.030 C 
HETATM   18  C5  UNL     1      22.059   7.833   2.185  1.00  0.00     0.003 C 
HETATM   19  C6  UNL     1      20.727   8.516   2.349  1.00  0.00     0.030 C 
HETATM   20  C7  UNL     1      20.786   9.881   1.751  1.00  0.00     0.273 C 
ENDBRANCH  14  15
ENDBRANCH   2  14
TORSDOF 4
ENDMDL
MODEL 5
REMARK VINA RESULT: -6.394206757      5.278      7.267
REMARK  4 active torsions:
REMARK  status: ('A' for Active; 'I' for Inactive)
REMARK    1  A    between atoms: C1_2  and  C2_3 
REMARK       I    between atoms: C1_2  and  N2_10 
REMARK    2  A    between atoms: C2_3  and  N1_4 
REMARK    3  A    between atoms: N2_10  and  C8_12 
REMARK    4  A    between atoms: C13_18  and  O2_19 
ROOT
HETATM    1  O1  UNL     1      14.819  11.540   4.190  1.00  0.00    -0.272 OA
HETATM    2  C1  UNL     1      14.520  10.295   4.027  1.00  0.00     0.246 C 
HETATM    3  N2  UNL     1      14.343   9.818   2.703  1.00  0.00    -0.352 N 
ATOM      4  H2  UNL     1      14.099   8.842   2.534  1.00  0.00     0.163 HD
ENDROOT
BRANCH   3   5
HETATM    5  C8  UNL     1      14.514  10.739   1.591  1.00  0.00     0.114 C 
HETATM    6  C9  UNL     1      13.326  10.672   0.670  1.00  0.00     0.038 C 
HETATM    7  C10 UNL     1      13.190   9.431  -0.127  1.00  0.00     0.076 C 
HETATM    8  S1  UNL     1      14.718   8.629  -0.603  1.00  0.00    -0.169 SA
HETATM    9  C11 UNL     1      15.837   9.823  -1.385  1.00  0.00     0.076 C 
HETATM   10  C12 UNL     1      15.899  11.034  -0.472  1.00  0.00     0.044 C 
HETATM   11  C13 UNL     1      15.838  10.519   0.941  1.00  0.00     0.141 C 
BRANCH  11  12
HETATM   12  O2  UNL     1      16.805  11.223   1.680  1.00  0.00    -0.393 OA
ATOM     13  H2  UNL     1      17.372  11.674   1.065  1.00  0.00     0.210 HD
ENDBRANCH  11  12
ENDBRANCH   3   5
BRANCH   2  14
HETATM   14  C2  UNL     1      14.399   9.536   5.269  1.00  0.00     0.374 C 
BRANCH  14  15
HETATM   15  N1  UNL     1      14.880  10.141   6.465  1.00  0.00     0.097 N 
HETATM   16  C3  UNL     1      15.862   9.225   7.050  1.00  0.00     0.273 C 
HETATM   17  C4  UNL     1      15.285   7.964   7.588  1.00  0.00     0.030 C 
HETATM   18  C5  UNL     1      14.323   8.350   8.708  1.00  0.00     0.003 C 
HETATM   19  C6  UNL     1      13.237   9.151   8.038  1.00  0.00     0.030 C 
HETATM   20  C7  UNL     1      13.821  10.386   7.439  1.00  0.00     0.273 C 
ENDBRANCH  14  15
ENDBRANCH   2  14
TORSDOF 4
ENDMDL
