MODEL 1
REMARK VINA RESULT: -7.755315571      0.000      0.000
REMARK  5 active torsions:
REMARK  status: ('A' for Active; 'I' for Inactive)
REMARK    1  A    between atoms: C5_8  and  N2_9 
REMARK    2  A    between atoms: N2_9  and  C6_11 
REMARK    3  A    between atoms: C6_11  and  N3_13 
REMARK    4  A    between atoms: N3_13  and  C7_15 
REMARK    5  A    between atoms: C7_15  and  C8_16 
ROOT
HETATM    1  N1  UNL     1      16.124  12.942   3.563  1.00  0.00    -0.194 NA
HETATM    2  C1  UNL     1      16.794  12.250   2.916  1.00  0.00     0.094 C 
HETATM    3  C2  UNL     1      17.612  11.374   2.095  1.00  0.00     0.261 C 
HETATM    4  O1  UNL     1      18.742  12.145   1.627  1.00  0.00    -0.299 OA
HETATM    5  C3  UNL     1      19.139  11.649   0.399  1.00  0.00     0.262 C 
HETATM    6  O2  UNL     1      20.156  12.011  -0.221  1.00  0.00    -0.265 OA
HETATM    7  C4  UNL     1      18.157  10.626  -0.044  1.00  0.00     0.139 C 
HETATM    8  C5  UNL     1      16.966  11.042   0.776  1.00  0.00     0.136 C 
ENDROOT
BRANCH   8   9
HETATM    9  N2  UNL     1      15.872  10.149   0.811  1.00  0.00    -0.359 N 
ATOM     10  H2  UNL     1      16.114   9.160   0.882  1.00  0.00     0.162 HD
BRANCH   9  11
HETATM   11  C6  UNL     1      14.498  10.434   0.763  1.00  0.00     0.168 C 
HETATM   12  S1  UNL     1      13.536  10.338   2.104  1.00  0.00    -0.041 SA
BRANCH  11  13
HETATM   13  N3  UNL     1      13.854  10.824  -0.437  1.00  0.00    -0.367 N 
ATOM     14  H3  UNL     1      13.912  11.810  -0.688  1.00  0.00     0.161 HD
BRANCH  13  15
HETATM   15  C7  UNL     1      13.127   9.971  -1.333  1.00  0.00     0.126 C 
BRANCH  15  16
HETATM   16  C8  UNL     1      13.197  10.339  -2.780  1.00  0.00     0.003 C 
HETATM   17  C9  UNL     1      14.554   9.992  -3.359  1.00  0.00     0.006 C 
HETATM   18  C10 UNL     1      14.314   9.536  -4.778  1.00  0.00     0.000 C 
HETATM   19  C11 UNL     1      12.827   9.733  -5.021  1.00  0.00     0.000 C 
HETATM   20  C12 UNL     1      12.285   9.464  -3.630  1.00  0.00     0.006 C 
ENDBRANCH  15  16
ENDBRANCH  13  15
ENDBRANCH  11  13
ENDBRANCH   9  11
ENDBRANCH   8   9
TORSDOF 5
ENDMDL
MODEL 2
REMARK VINA RESULT: -7.745602894      0.525      1.041
REMARK  5 active torsions:
REMARK  status: ('A' for Active; 'I' for Inactive)
REMARK    1  A    between atoms: C5_8  and  N2_9 
REMARK    2  A    between atoms: N2_9  and  C6_11 
REMARK    3  A    between atoms: C6_11  and  N3_13 
REMARK    4  A    between atoms: N3_13  and  C7_15 
REMARK    5  A    between atoms: C7_15  and  C8_16 
ROOT
HETATM    1  N1  UNL     1      15.854  12.856   3.659  1.00  0.00    -0.194 NA
HETATM    2  C1  UNL     1      16.528  12.194   2.985  1.00  0.00     0.094 C 
HETATM    3  C2  UNL     1      17.350  11.357   2.129  1.00  0.00     0.261 C 
HETATM    4  O1  UNL     1      18.444  12.169   1.646  1.00  0.00    -0.299 OA
HETATM    5  C3  UNL     1      18.824  11.705   0.400  1.00  0.00     0.262 C 
HETATM    6  O2  UNL     1      19.814  12.106  -0.240  1.00  0.00    -0.265 OA
HETATM    7  C4  UNL     1      17.861  10.659  -0.035  1.00  0.00     0.139 C 
HETATM    8  C5  UNL     1      16.680  11.026   0.821  1.00  0.00     0.136 C 
ENDROOT
BRANCH   8   9
HETATM    9  N2  UNL     1      15.615  10.100   0.869  1.00  0.00    -0.359 N 
ATOM     10  H2  UNL     1      15.887   9.116   0.880  1.00  0.00     0.162 HD
BRANCH   9  11
HETATM   11  C6  UNL     1      14.232  10.346   0.904  1.00  0.00     0.168 C 
HETATM   12  S1  UNL     1      13.370  10.299   2.313  1.00  0.00    -0.041 SA
BRANCH  11  13
HETATM   13  N3  UNL     1      13.495  10.652  -0.266  1.00  0.00    -0.367 N 
ATOM     14  H3  UNL     1      12.479  10.612  -0.190  1.00  0.00     0.161 HD
BRANCH  13  15
HETATM   15  C7  UNL     1      14.033  11.013  -1.547  1.00  0.00     0.126 C 
BRANCH  15  16
HETATM   16  C8  UNL     1      13.975   9.952  -2.598  1.00  0.00     0.003 C 
HETATM   17  C9  UNL     1      12.579   9.848  -3.180  1.00  0.00     0.006 C 
HETATM   18  C10 UNL     1      12.746   9.532  -4.647  1.00  0.00     0.000 C 
HETATM   19  C11 UNL     1      14.241   9.353  -4.856  1.00  0.00     0.000 C 
HETATM   20  C12 UNL     1      14.777  10.337  -3.834  1.00  0.00     0.006 C 
ENDBRANCH  15  16
ENDBRANCH  13  15
ENDBRANCH  11  13
ENDBRANCH   9  11
ENDBRANCH   8   9
TORSDOF 5
ENDMDL
MODEL 3
REMARK VINA RESULT: -7.341313644      1.522      2.638
REMARK  5 active torsions:
REMARK  status: ('A' for Active; 'I' for Inactive)
REMARK    1  A    between atoms: C5_8  and  N2_9 
REMARK    2  A    between atoms: N2_9  and  C6_11 
REMARK    3  A    between atoms: C6_11  and  N3_13 
REMARK    4  A    between atoms: N3_13  and  C7_15 
REMARK    5  A    between atoms: C7_15  and  C8_16 
ROOT
HETATM    1  N1  UNL     1      19.872   9.524  -1.230  1.00  0.00    -0.194 NA
HETATM    2  C1  UNL     1      19.086  10.334  -0.958  1.00  0.00     0.094 C 
HETATM    3  C2  UNL     1      18.088  11.328  -0.607  1.00  0.00     0.261 C 
HETATM    4  O1  UNL     1      18.781  12.455  -0.024  1.00  0.00    -0.299 OA
HETATM    5  C3  UNL     1      17.942  13.067   0.889  1.00  0.00     0.262 C 
HETATM    6  O2  UNL     1      18.188  14.136   1.478  1.00  0.00    -0.265 OA
HETATM    7  C4  UNL     1      16.716  12.242   1.040  1.00  0.00     0.139 C 
HETATM    8  C5  UNL     1      17.241  10.914   0.567  1.00  0.00     0.136 C 
ENDROOT
BRANCH   8   9
HETATM    9  N2  UNL     1      16.288   9.897   0.336  1.00  0.00    -0.359 N 
ATOM     10  H2  UNL     1      16.628   9.084  -0.178  1.00  0.00     0.162 HD
BRANCH   9  11
HETATM   11  C6  UNL     1      14.936   9.852   0.715  1.00  0.00     0.168 C 
HETATM   12  S1  UNL     1      14.461   9.300   2.199  1.00  0.00    -0.041 SA
BRANCH  11  13
HETATM   13  N3  UNL     1      13.900  10.279  -0.150  1.00  0.00    -0.367 N 
ATOM     14  H3  UNL     1      12.945  10.188   0.199  1.00  0.00     0.161 HD
BRANCH  13  15
HETATM   15  C7  UNL     1      14.056  10.826  -1.468  1.00  0.00     0.126 C 
BRANCH  15  16
HETATM   16  C8  UNL     1      13.973   9.846  -2.593  1.00  0.00     0.003 C 
HETATM   17  C9  UNL     1      12.575   9.813  -3.176  1.00  0.00     0.006 C 
HETATM   18  C10 UNL     1      12.732   9.600  -4.663  1.00  0.00     0.000 C 
HETATM   19  C11 UNL     1      14.222   9.407  -4.889  1.00  0.00     0.000 C 
HETATM   20  C12 UNL     1      14.782  10.303  -3.800  1.00  0.00     0.006 C 
ENDBRANCH  15  16
ENDBRANCH  13  15
ENDBRANCH  11  13
ENDBRANCH   9  11
ENDBRANCH   8   9
TORSDOF 5
ENDMDL
MODEL 4
REMARK VINA RESULT: -7.326641534      2.884      3.763
REMARK  5 active torsions:
REMARK  status: ('A' for Active; 'I' for Inactive)
REMARK    1  A    between atoms: C5_8  and  N2_9 
REMARK    2  A    between atoms: N2_9  and  C6_11 
REMARK    3  A    between atoms: C6_11  and  N3_13 
REMARK    4  A    between atoms: N3_13  and  C7_15 
REMARK    5  A    between atoms: C7_15  and  C8_16 
ROOT
HETATM    1  N1  UNL     1      16.301  13.038   3.485  1.00  0.00    -0.194 NA
HETATM    2  C1  UNL     1      15.479  12.232   3.631  1.00  0.00     0.094 C 
HETATM    3  C2  UNL     1      14.453  11.217   3.789  1.00  0.00     0.261 C 
HETATM    4  O1  UNL     1      14.777  10.448   4.969  1.00  0.00    -0.299 OA
HETATM    5  C3  UNL     1      14.304   9.160   4.802  1.00  0.00     0.262 C 
HETATM    6  O2  UNL     1      14.313   8.277   5.681  1.00  0.00    -0.265 OA
HETATM    7  C4  UNL     1      13.790   9.014   3.415  1.00  0.00     0.139 C 
HETATM    8  C5  UNL     1      14.539  10.134   2.746  1.00  0.00     0.136 C 
ENDROOT
BRANCH   8   9
HETATM    9  N2  UNL     1      14.135  10.479   1.437  1.00  0.00    -0.359 N 
ATOM     10  H2  UNL     1      13.129  10.460   1.268  1.00  0.00     0.162 HD
BRANCH   9  11
HETATM   11  C6  UNL     1      14.928  10.844   0.337  1.00  0.00     0.168 C 
HETATM   12  S1  UNL     1      16.580  10.834   0.406  1.00  0.00    -0.041 SA
BRANCH  11  13
HETATM   13  N3  UNL     1      14.360  11.239  -0.899  1.00  0.00    -0.367 N 
ATOM     14  H3  UNL     1      14.839  11.984  -1.405  1.00  0.00     0.161 HD
BRANCH  13  15
HETATM   15  C7  UNL     1      13.180  10.698  -1.510  1.00  0.00     0.126 C 
BRANCH  15  16
HETATM   16  C8  UNL     1      13.410   9.753  -2.645  1.00  0.00     0.003 C 
HETATM   17  C9  UNL     1      12.225   9.749  -3.590  1.00  0.00     0.006 C 
HETATM   18  C10 UNL     1      12.785   9.580  -4.982  1.00  0.00     0.000 C 
HETATM   19  C11 UNL     1      14.280   9.382  -4.797  1.00  0.00     0.000 C 
HETATM   20  C12 UNL     1      14.518  10.240  -3.569  1.00  0.00     0.006 C 
ENDBRANCH  15  16
ENDBRANCH  13  15
ENDBRANCH  11  13
ENDBRANCH   9  11
ENDBRANCH   8   9
TORSDOF 5
ENDMDL
MODEL 5
REMARK VINA RESULT: -7.324332324      4.406      7.303
REMARK  5 active torsions:
REMARK  status: ('A' for Active; 'I' for Inactive)
REMARK    1  A    between atoms: C5_8  and  N2_9 
REMARK    2  A    between atoms: N2_9  and  C6_11 
REMARK    3  A    between atoms: C6_11  and  N3_13 
REMARK    4  A    between atoms: N3_13  and  C7_15 
REMARK    5  A    between atoms: C7_15  and  C8_16 
ROOT
HETATM    1  N1  UNL     1      17.534  12.359   1.955  1.00  0.00    -0.194 NA
HETATM    2  C1  UNL     1      16.881  11.695   1.263  1.00  0.00     0.094 C 
HETATM    3  C2  UNL     1      16.057  10.849   0.417  1.00  0.00     0.261 C 
HETATM    4  O1  UNL     1      15.278  11.716  -0.440  1.00  0.00    -0.299 OA
HETATM    5  C3  UNL     1      14.083  11.087  -0.736  1.00  0.00     0.262 C 
HETATM    6  O2  UNL     1      13.237  11.509  -1.546  1.00  0.00    -0.265 OA
HETATM    7  C4  UNL     1      13.986   9.839   0.065  1.00  0.00     0.139 C 
HETATM    8  C5  UNL     1      14.946  10.173   1.175  1.00  0.00     0.136 C 
ENDROOT
BRANCH   8   9
HETATM    9  N2  UNL     1      15.316   9.117   2.037  1.00  0.00    -0.359 N 
ATOM     10  H2  UNL     1      15.491   8.219   1.584  1.00  0.00     0.162 HD
BRANCH   9  11
HETATM   11  C6  UNL     1      15.476   9.132   3.432  1.00  0.00     0.168 C 
HETATM   12  S1  UNL     1      16.934   8.824   4.149  1.00  0.00    -0.041 SA
BRANCH  11  13
HETATM   13  N3  UNL     1      14.401   9.414   4.309  1.00  0.00    -0.367 N 
ATOM     14  H3  UNL     1      13.483   9.064   4.035  1.00  0.00     0.161 HD
BRANCH  13  15
HETATM   15  C7  UNL     1      14.472  10.144   5.543  1.00  0.00     0.126 C 
BRANCH  15  16
HETATM   16  C8  UNL     1      13.748   9.536   6.700  1.00  0.00     0.003 C 
HETATM   17  C9  UNL     1      14.582   8.446   7.344  1.00  0.00     0.006 C 
HETATM   18  C10 UNL     1      14.314   8.518   8.828  1.00  0.00     0.000 C 
HETATM   19  C11 UNL     1      13.244   9.583   8.995  1.00  0.00     0.000 C 
HETATM   20  C12 UNL     1      13.607  10.516   7.857  1.00  0.00     0.006 C 
ENDBRANCH  15  16
ENDBRANCH  13  15
ENDBRANCH  11  13
ENDBRANCH   9  11
ENDBRANCH   8   9
TORSDOF 5
ENDMDL
