MODEL 1
REMARK VINA RESULT: -4.083666256      0.000      0.000
REMARK  5 active torsions:
REMARK  status: ('A' for Active; 'I' for Inactive)
REMARK    1  A    between atoms: N1_2  and  C3_4 
REMARK    2  A    between atoms: C3_4  and  N2_5 
REMARK    3  A    between atoms: C3_4  and  C4_9 
REMARK    4  A    between atoms: C3_4  and  C5_14 
REMARK    5  A    between atoms: C4_9  and  N3_10 
ROOT
HETATM    1  C3  UNL     1      11.990  18.128 -11.322  1.00  0.00     0.393 C 
ENDROOT
BRANCH   1   2
HETATM    2  N1  UNL     1      11.970  18.568 -12.688  1.00  0.00     0.122 N 
HETATM    3  C1  UNL     1      12.560  19.870 -12.870  1.00  0.00     0.312 C 
HETATM    4  C2  UNL     1      12.497  17.655 -13.644  1.00  0.00     0.312 C 
ENDBRANCH   1   2
BRANCH   1   5
HETATM    5  N2  UNL     1      12.206  16.701 -11.190  1.00  0.00    -0.036 N 
ATOM      6  H23 UNL     1      12.337  16.267 -12.104  1.00  0.00     0.277 HD
ATOM      7  H22 UNL     1      13.120  16.508 -10.780  1.00  0.00     0.277 HD
ATOM      8  H21 UNL     1      11.465  16.234 -10.667  1.00  0.00     0.277 HD
ENDBRANCH   1   5
BRANCH   1   9
HETATM    9  C4  UNL     1      13.166  18.804 -10.608  1.00  0.00     0.306 C 
BRANCH   9  10
HETATM   10  N3  UNL     1      14.083  17.833 -10.077  1.00  0.00    -0.075 N 
ATOM     11  H33 UNL     1      14.952  18.270  -9.770  1.00  0.00     0.274 HD
ATOM     12  H32 UNL     1      13.765  17.469  -9.180  1.00  0.00     0.274 HD
ATOM     13  H31 UNL     1      14.258  17.083 -10.745  1.00  0.00     0.274 HD
ENDBRANCH   9  10
ENDBRANCH   1   9
BRANCH   1  14
HETATM   14  C5  UNL     1      10.789  18.492 -10.533  1.00  0.00     0.455 C 
HETATM   15  N4  UNL     1      10.895  19.395  -9.437  1.00  0.00    -0.018 N 
HETATM   16  C6  UNL     1       9.957  18.592  -8.640  1.00  0.00     0.468 C 
ATOM     17  H42 UNL     1      11.815  19.615  -9.056  1.00  0.00     0.281 HD
ATOM     18  H41 UNL     1      10.705  20.387  -9.585  1.00  0.00     0.281 HD
HETATM   19  N5  UNL     1      10.282  17.513  -9.585  1.00  0.00    -0.018 N 
ATOM     20  H52 UNL     1       9.560  16.853  -9.872  1.00  0.00     0.281 HD
ATOM     21  H51 UNL     1      10.875  16.737  -9.287  1.00  0.00     0.281 HD
ENDBRANCH   1  14
TORSDOF 5
ENDMDL
MODEL 2
REMARK VINA RESULT: -4.061686929      1.372      1.535
REMARK  5 active torsions:
REMARK  status: ('A' for Active; 'I' for Inactive)
REMARK    1  A    between atoms: N1_2  and  C3_4 
REMARK    2  A    between atoms: C3_4  and  N2_5 
REMARK    3  A    between atoms: C3_4  and  C4_9 
REMARK    4  A    between atoms: C3_4  and  C5_14 
REMARK    5  A    between atoms: C4_9  and  N3_10 
ROOT
HETATM    1  C3  UNL     1      12.119  18.836 -11.024  1.00  0.00     0.393 C 
ENDROOT
BRANCH   1   2
HETATM    2  N1  UNL     1      11.775  19.009 -12.405  1.00  0.00     0.122 N 
HETATM    3  C1  UNL     1      12.159  20.296 -12.926  1.00  0.00     0.312 C 
HETATM    4  C2  UNL     1      12.203  17.978 -13.288  1.00  0.00     0.312 C 
ENDBRANCH   1   2
BRANCH   1   5
HETATM    5  N2  UNL     1      11.639  17.585 -10.473  1.00  0.00    -0.036 N 
ATOM      6  H23 UNL     1      11.240  17.725  -9.544  1.00  0.00     0.277 HD
ATOM      7  H22 UNL     1      10.805  17.266 -10.966  1.00  0.00     0.277 HD
ATOM      8  H21 UNL     1      12.353  16.857 -10.456  1.00  0.00     0.277 HD
ENDBRANCH   1   5
BRANCH   1   9
HETATM    9  C4  UNL     1      13.646  18.796 -10.901  1.00  0.00     0.306 C 
BRANCH   9  10
HETATM   10  N3  UNL     1      14.082  17.644 -10.162  1.00  0.00    -0.075 N 
ATOM     11  H33 UNL     1      15.098  17.557 -10.170  1.00  0.00     0.274 HD
ATOM     12  H32 UNL     1      13.943  17.768  -9.159  1.00  0.00     0.274 HD
ATOM     13  H31 UNL     1      13.632  16.794 -10.500  1.00  0.00     0.274 HD
ENDBRANCH   9  10
ENDBRANCH   1   9
BRANCH   1  14
HETATM   14  C5  UNL     1      11.681  19.935 -10.130  1.00  0.00     0.455 C 
HETATM   15  N4  UNL     1      12.643  20.774  -9.497  1.00  0.00    -0.018 N 
HETATM   16  C6  UNL     1      11.866  20.783  -8.250  1.00  0.00     0.468 C 
ATOM     17  H42 UNL     1      13.621  20.487  -9.476  1.00  0.00     0.281 HD
ATOM     18  H41 UNL     1      12.899  21.660  -9.934  1.00  0.00     0.281 HD
HETATM   19  N5  UNL     1      11.220  19.580  -8.798  1.00  0.00    -0.018 N 
ATOM     20  H52 UNL     1      10.228  19.413  -8.630  1.00  0.00     0.281 HD
ATOM     21  H51 UNL     1      11.441  18.662  -8.410  1.00  0.00     0.281 HD
ENDBRANCH   1  14
TORSDOF 5
ENDMDL
MODEL 3
REMARK VINA RESULT: -3.962571034      2.074      2.880
REMARK  5 active torsions:
REMARK  status: ('A' for Active; 'I' for Inactive)
REMARK    1  A    between atoms: N1_2  and  C3_4 
REMARK    2  A    between atoms: C3_4  and  N2_5 
REMARK    3  A    between atoms: C3_4  and  C4_9 
REMARK    4  A    between atoms: C3_4  and  C5_14 
REMARK    5  A    between atoms: C4_9  and  N3_10 
ROOT
HETATM    1  C3  UNL     1      11.975  20.119  -9.772  1.00  0.00     0.393 C 
ENDROOT
BRANCH   1   2
HETATM    2  N1  UNL     1      12.135  21.186 -10.717  1.00  0.00     0.122 N 
HETATM    3  C1  UNL     1      13.221  20.966 -11.638  1.00  0.00     0.312 C 
HETATM    4  C2  UNL     1      10.963  21.570 -11.427  1.00  0.00     0.312 C 
ENDBRANCH   1   2
BRANCH   1   5
HETATM    5  N2  UNL     1      13.149  19.275  -9.669  1.00  0.00    -0.036 N 
ATOM      6  H23 UNL     1      13.701  19.312 -10.526  1.00  0.00     0.277 HD
ATOM      7  H22 UNL     1      13.826  19.671  -9.017  1.00  0.00     0.277 HD
ATOM      8  H21 UNL     1      12.925  18.311  -9.421  1.00  0.00     0.277 HD
ENDBRANCH   1   5
BRANCH   1   9
HETATM    9  C4  UNL     1      11.765  20.726  -8.380  1.00  0.00     0.306 C 
BRANCH   9  10
HETATM   10  N3  UNL     1      12.473  21.967  -8.237  1.00  0.00    -0.075 N 
ATOM     11  H33 UNL     1      13.474  21.814  -8.113  1.00  0.00     0.274 HD
ATOM     12  H32 UNL     1      12.501  22.486  -9.115  1.00  0.00     0.274 HD
ATOM     13  H31 UNL     1      12.085  22.531  -7.481  1.00  0.00     0.274 HD
ENDBRANCH   9  10
ENDBRANCH   1   9
BRANCH   1  14
HETATM   14  C5  UNL     1      10.797  19.251 -10.005  1.00  0.00     0.455 C 
HETATM   15  N4  UNL     1       9.893  18.964  -8.942  1.00  0.00    -0.018 N 
HETATM   16  C6  UNL     1       9.767  17.567  -9.378  1.00  0.00     0.468 C 
ATOM     17  H42 UNL     1      10.169  19.166  -7.981  1.00  0.00     0.281 HD
ATOM     18  H41 UNL     1       9.052  19.532  -8.832  1.00  0.00     0.281 HD
HETATM   19  N5  UNL     1      11.023  17.817 -10.102  1.00  0.00    -0.018 N 
ATOM     20  H52 UNL     1      11.179  17.388 -11.014  1.00  0.00     0.281 HD
ATOM     21  H51 UNL     1      11.896  17.415  -9.761  1.00  0.00     0.281 HD
ENDBRANCH   1  14
TORSDOF 5
ENDMDL
MODEL 4
REMARK VINA RESULT: -3.946486952      1.145      1.529
REMARK  5 active torsions:
REMARK  status: ('A' for Active; 'I' for Inactive)
REMARK    1  A    between atoms: N1_2  and  C3_4 
REMARK    2  A    between atoms: C3_4  and  N2_5 
REMARK    3  A    between atoms: C3_4  and  C4_9 
REMARK    4  A    between atoms: C3_4  and  C5_14 
REMARK    5  A    between atoms: C4_9  and  N3_10 
ROOT
HETATM    1  C3  UNL     1      13.182  18.555 -11.094  1.00  0.00     0.393 C 
ENDROOT
BRANCH   1   2
HETATM    2  N1  UNL     1      13.357  18.554 -12.517  1.00  0.00     0.122 N 
HETATM    3  C1  UNL     1      13.723  17.262 -13.039  1.00  0.00     0.312 C 
HETATM    4  C2  UNL     1      12.288  19.103 -13.278  1.00  0.00     0.312 C 
ENDBRANCH   1   2
BRANCH   1   5
HETATM    5  N2  UNL     1      13.607  17.319 -10.470  1.00  0.00    -0.036 N 
ATOM      6  H23 UNL     1      12.804  16.754 -10.195  1.00  0.00     0.277 HD
ATOM      7  H22 UNL     1      14.027  16.690 -11.155  1.00  0.00     0.277 HD
ATOM      8  H21 UNL     1      14.235  17.467  -9.679  1.00  0.00     0.277 HD
ENDBRANCH   1   5
BRANCH   1   9
HETATM    9  C4  UNL     1      14.060  19.659 -10.493  1.00  0.00     0.306 C 
BRANCH   9  10
HETATM   10  N3  UNL     1      15.452  19.309 -10.549  1.00  0.00    -0.075 N 
ATOM     11  H33 UNL     1      15.851  19.210  -9.616  1.00  0.00     0.274 HD
ATOM     12  H32 UNL     1      15.585  18.353 -10.879  1.00  0.00     0.274 HD
ATOM     13  H31 UNL     1      15.980  19.975 -11.112  1.00  0.00     0.274 HD
ENDBRANCH   9  10
ENDBRANCH   1   9
BRANCH   1  14
HETATM   14  C5  UNL     1      11.805  18.856 -10.636  1.00  0.00     0.455 C 
HETATM   15  N4  UNL     1      11.586  19.486  -9.376  1.00  0.00    -0.018 N 
HETATM   16  C6  UNL     1      10.425  18.626  -9.109  1.00  0.00     0.468 C 
ATOM     17  H42 UNL     1      12.346  19.525  -8.698  1.00  0.00     0.281 HD
ATOM     18  H41 UNL     1      11.479  20.500  -9.335  1.00  0.00     0.281 HD
HETATM   19  N5  UNL     1      11.000  17.750 -10.141  1.00  0.00    -0.018 N 
ATOM     20  H52 UNL     1      10.386  17.243 -10.778  1.00  0.00     0.281 HD
ATOM     21  H51 UNL     1      11.448  16.874  -9.873  1.00  0.00     0.281 HD
ENDBRANCH   1  14
TORSDOF 5
ENDMDL
MODEL 5
REMARK VINA RESULT: -3.937927806      1.736      3.771
REMARK  5 active torsions:
REMARK  status: ('A' for Active; 'I' for Inactive)
REMARK    1  A    between atoms: N1_2  and  C3_4 
REMARK    2  A    between atoms: C3_4  and  N2_5 
REMARK    3  A    between atoms: C3_4  and  C4_9 
REMARK    4  A    between atoms: C3_4  and  C5_14 
REMARK    5  A    between atoms: C4_9  and  N3_10 
ROOT
HETATM    1  C3  UNL     1      11.899  19.328 -10.301  1.00  0.00     0.393 C 
ENDROOT
BRANCH   1   2
HETATM    2  N1  UNL     1      11.022  20.123  -9.491  1.00  0.00     0.122 N 
HETATM    3  C1  UNL     1      11.696  20.760  -8.388  1.00  0.00     0.312 C 
HETATM    4  C2  UNL     1      10.220  21.070 -10.186  1.00  0.00     0.312 C 
ENDBRANCH   1   2
BRANCH   1   5
HETATM    5  N2  UNL     1      11.566  17.918 -10.279  1.00  0.00    -0.036 N 
ATOM      6  H23 UNL     1      12.311  17.374  -9.844  1.00  0.00     0.277 HD
ATOM      7  H22 UNL     1      10.814  17.732  -9.615  1.00  0.00     0.277 HD
ATOM      8  H21 UNL     1      11.337  17.548 -11.202  1.00  0.00     0.277 HD
ENDBRANCH   1   5
BRANCH   1   9
HETATM    9  C4  UNL     1      11.758  19.775 -11.760  1.00  0.00     0.306 C 
BRANCH   9  10
HETATM   10  N3  UNL     1      11.710  18.649 -12.651  1.00  0.00    -0.075 N 
ATOM     11  H33 UNL     1      12.645  18.316 -12.884  1.00  0.00     0.274 HD
ATOM     12  H32 UNL     1      11.360  17.814 -12.180  1.00  0.00     0.274 HD
ATOM     13  H31 UNL     1      11.169  18.861 -13.489  1.00  0.00     0.274 HD
ENDBRANCH   9  10
ENDBRANCH   1   9
BRANCH   1  14
HETATM   14  C5  UNL     1      13.340  19.469  -9.984  1.00  0.00     0.455 C 
HETATM   15  N4  UNL     1      14.221  20.104 -10.906  1.00  0.00    -0.018 N 
HETATM   16  C6  UNL     1      15.274  19.115 -10.635  1.00  0.00     0.468 C 
ATOM     17  H42 UNL     1      13.915  20.258 -11.867  1.00  0.00     0.281 HD
ATOM     18  H41 UNL     1      14.427  21.097 -10.800  1.00  0.00     0.281 HD
HETATM   19  N5  UNL     1      14.178  18.287 -10.108  1.00  0.00    -0.018 N 
ATOM     20  H52 UNL     1      14.337  17.689  -9.297  1.00  0.00     0.281 HD
ATOM     21  H51 UNL     1      13.848  17.482 -10.639  1.00  0.00     0.281 HD
ENDBRANCH   1  14
TORSDOF 5
ENDMDL
