MODEL 1
REMARK VINA RESULT: -8.996221415      0.000      0.000
REMARK  4 active torsions:
REMARK  status: ('A' for Active; 'I' for Inactive)
REMARK    1  A    between atoms: C10_10  and  N1_11 
REMARK       I    between atoms: N1_11  and  C11_13 
REMARK    2  A    between atoms: C11_13  and  C12_15 
REMARK    3  A    between atoms: C12_15  and  N2_16 
REMARK       I    between atoms: N2_16  and  C13_18 
REMARK    4  A    between atoms: C13_18  and  C14_20 
ROOT
HETATM    1  N1  UNL     1      18.296   9.963   1.002  1.00  0.00    -0.355 N 
ATOM      2  H1  UNL     1      17.720   9.158   1.245  1.00  0.00     0.162 HD
HETATM    3  C11 UNL     1      17.707  11.063   0.357  1.00  0.00     0.235 C 
HETATM    4  O1  UNL     1      18.489  12.031   0.083  1.00  0.00    -0.272 OA
ENDROOT
BRANCH   1   5
HETATM    5  C10 UNL     1      19.702   9.949   1.326  1.00  0.00     0.087 C 
HETATM    6  C9  UNL     1      20.410   9.178   0.238  1.00  0.00     0.025 C 
HETATM    7  C8  UNL     1      21.856   8.882   0.606  1.00  0.00     0.005 C 
HETATM    8  C7  UNL     1      21.813   8.089   1.900  1.00  0.00     0.045 C 
HETATM    9  C6  UNL     1      21.327   9.033   2.975  1.00  0.00     0.116 C 
HETATM   10  C5  UNL     1      22.163  10.247   3.081  1.00  0.00     0.013 C 
HETATM   11  C18 UNL     1      19.892   9.370   2.690  1.00  0.00     0.070 C 
HETATM   12  O4  UNL     1      21.420   8.361   4.194  1.00  0.00    -0.224 OA
HETATM   13  C4  UNL     1      23.200  10.232   3.903  1.00  0.00     0.012 C 
HETATM   14  C2  UNL     1      23.506   9.013   4.698  1.00  0.00     0.107 C 
HETATM   15  C1  UNL     1      23.350   9.248   6.179  1.00  0.00     0.053 C 
HETATM   16  C3  UNL     1      24.960   8.678   4.444  1.00  0.00     0.053 C 
HETATM   17  O5  UNL     1      22.670   7.967   4.307  1.00  0.00    -0.225 OA
ENDBRANCH   1   5
BRANCH   3  18
HETATM   18  C12 UNL     1      16.303  11.210  -0.029  1.00  0.00     0.225 C 
BRANCH  18  19
HETATM   19  N2  UNL     1      15.860  10.415  -1.132  1.00  0.00    -0.350 N 
HETATM   20  C13 UNL     1      14.595  10.601  -1.757  1.00  0.00     0.247 C 
HETATM   21  O2  UNL     1      13.854  11.515  -1.296  1.00  0.00    -0.271 OA
ATOM     22  H2  UNL     1      16.477   9.683  -1.486  1.00  0.00     0.163 HD
BRANCH  20  23
HETATM   23  C14 UNL     1      14.211   9.749  -2.878  1.00  0.00     0.213 C 
HETATM   24  C15 UNL     1      14.966  10.102  -4.167  1.00  0.00     0.043 C 
HETATM   25  C16 UNL     1      14.116   9.324  -5.162  1.00  0.00     0.029 C 
HETATM   26  C17 UNL     1      12.757   9.431  -4.545  1.00  0.00     0.168 C 
HETATM   27  O3  UNL     1      12.902   9.869  -3.252  1.00  0.00    -0.376 OA
ENDBRANCH  20  23
ENDBRANCH  18  19
ENDBRANCH   3  18
TORSDOF 4
ENDMDL
MODEL 2
REMARK VINA RESULT: -8.971768828      2.619      3.073
REMARK  4 active torsions:
REMARK  status: ('A' for Active; 'I' for Inactive)
REMARK    1  A    between atoms: C10_10  and  N1_11 
REMARK       I    between atoms: N1_11  and  C11_13 
REMARK    2  A    between atoms: C11_13  and  C12_15 
REMARK    3  A    between atoms: C12_15  and  N2_16 
REMARK       I    between atoms: N2_16  and  C13_18 
REMARK    4  A    between atoms: C13_18  and  C14_20 
ROOT
HETATM    1  N1  UNL     1      19.810   9.052   0.494  1.00  0.00    -0.355 N 
ATOM      2  H1  UNL     1      19.189   8.242   0.505  1.00  0.00     0.162 HD
HETATM    3  C11 UNL     1      19.393  10.232  -0.143  1.00  0.00     0.235 C 
HETATM    4  O1  UNL     1      20.221  11.200  -0.117  1.00  0.00    -0.272 OA
ENDROOT
BRANCH   1   5
HETATM    5  C10 UNL     1      21.101   8.961   1.134  1.00  0.00     0.087 C 
HETATM    6  C9  UNL     1      21.904   7.923   0.387  1.00  0.00     0.025 C 
HETATM    7  C8  UNL     1      23.184   7.562   1.126  1.00  0.00     0.005 C 
HETATM    8  C7  UNL     1      22.758   7.048   2.490  1.00  0.00     0.045 C 
HETATM    9  C6  UNL     1      22.196   8.228   3.247  1.00  0.00     0.116 C 
HETATM   10  C5  UNL     1      23.155   9.349   3.336  1.00  0.00     0.013 C 
HETATM   11  C18 UNL     1      20.915   8.645   2.583  1.00  0.00     0.070 C 
HETATM   12  O4  UNL     1      21.935   7.804   4.549  1.00  0.00    -0.224 OA
HETATM   13  C4  UNL     1      23.983   9.393   4.367  1.00  0.00     0.012 C 
HETATM   14  C2  UNL     1      23.939   8.330   5.406  1.00  0.00     0.107 C 
HETATM   15  C1  UNL     1      23.511   8.867   6.749  1.00  0.00     0.053 C 
HETATM   16  C3  UNL     1      25.352   7.807   5.558  1.00  0.00     0.053 C 
HETATM   17  O5  UNL     1      23.064   7.317   5.015  1.00  0.00    -0.225 OA
ENDBRANCH   1   5
BRANCH   3  18
HETATM   18  C12 UNL     1      18.120  10.461  -0.827  1.00  0.00     0.225 C 
BRANCH  18  19
HETATM   19  N2  UNL     1      16.951   9.948  -0.184  1.00  0.00    -0.350 N 
HETATM   20  C13 UNL     1      16.341  10.589   0.930  1.00  0.00     0.247 C 
HETATM   21  O2  UNL     1      16.877  11.655   1.346  1.00  0.00    -0.271 OA
ATOM     22  H2  UNL     1      16.537   9.086  -0.538  1.00  0.00     0.163 HD
BRANCH  20  23
HETATM   23  C14 UNL     1      15.148  10.004   1.536  1.00  0.00     0.213 C 
HETATM   24  C15 UNL     1      14.213   9.370   0.497  1.00  0.00     0.043 C 
HETATM   25  C16 UNL     1      12.975   9.196   1.365  1.00  0.00     0.029 C 
HETATM   26  C17 UNL     1      13.071  10.384   2.270  1.00  0.00     0.168 C 
HETATM   27  O3  UNL     1      14.336  10.907   2.163  1.00  0.00    -0.376 OA
ENDBRANCH  20  23
ENDBRANCH  18  19
ENDBRANCH   3  18
TORSDOF 4
ENDMDL
MODEL 3
REMARK VINA RESULT: -8.876991977      1.346      1.488
REMARK  4 active torsions:
REMARK  status: ('A' for Active; 'I' for Inactive)
REMARK    1  A    between atoms: C10_10  and  N1_11 
REMARK       I    between atoms: N1_11  and  C11_13 
REMARK    2  A    between atoms: C11_13  and  C12_15 
REMARK    3  A    between atoms: C12_15  and  N2_16 
REMARK       I    between atoms: N2_16  and  C13_18 
REMARK    4  A    between atoms: C13_18  and  C14_20 
ROOT
HETATM    1  N1  UNL     1      17.470  10.113   1.058  1.00  0.00    -0.355 N 
ATOM      2  H1  UNL     1      17.484   9.481   0.257  1.00  0.00     0.162 HD
HETATM    3  C11 UNL     1      16.252  10.686   1.462  1.00  0.00     0.235 C 
HETATM    4  O1  UNL     1      16.312  11.465   2.469  1.00  0.00    -0.272 OA
ENDROOT
BRANCH   1   5
HETATM    5  C10 UNL     1      18.701  10.401   1.753  1.00  0.00     0.087 C 
HETATM    6  C9  UNL     1      19.546  11.257   0.840  1.00  0.00     0.025 C 
HETATM    7  C8  UNL     1      20.966  11.410   1.364  1.00  0.00     0.005 C 
HETATM    8  C7  UNL     1      21.532  10.006   1.476  1.00  0.00     0.045 C 
HETATM    9  C6  UNL     1      20.780   9.318   2.592  1.00  0.00     0.116 C 
HETATM   10  C5  UNL     1      20.856  10.064   3.866  1.00  0.00     0.013 C 
HETATM   11  C18 UNL     1      19.359   9.120   2.149  1.00  0.00     0.070 C 
HETATM   12  O4  UNL     1      21.386   8.080   2.804  1.00  0.00    -0.224 OA
HETATM   13  C4  UNL     1      21.850   9.797   4.698  1.00  0.00     0.012 C 
HETATM   14  C2  UNL     1      22.861   8.765   4.346  1.00  0.00     0.107 C 
HETATM   15  C1  UNL     1      22.818   7.586   5.285  1.00  0.00     0.053 C 
HETATM   16  C3  UNL     1      24.221   9.415   4.500  1.00  0.00     0.053 C 
HETATM   17  O5  UNL     1      22.657   8.322   3.040  1.00  0.00    -0.225 OA
ENDBRANCH   1   5
BRANCH   3  18
HETATM   18  C12 UNL     1      14.938  10.483   0.853  1.00  0.00     0.225 C 
BRANCH  18  19
HETATM   19  N2  UNL     1      14.922   9.850  -0.429  1.00  0.00    -0.350 N 
HETATM   20  C13 UNL     1      14.160  10.347  -1.524  1.00  0.00     0.247 C 
HETATM   21  O2  UNL     1      13.480  11.393  -1.324  1.00  0.00    -0.271 OA
ATOM     22  H2  UNL     1      15.480   9.007  -0.565  1.00  0.00     0.163 HD
BRANCH  20  23
HETATM   23  C14 UNL     1      14.193   9.647  -2.804  1.00  0.00     0.213 C 
HETATM   24  C15 UNL     1      15.177  10.284  -3.795  1.00  0.00     0.043 C 
HETATM   25  C16 UNL     1      14.721   9.582  -5.067  1.00  0.00     0.029 C 
HETATM   26  C17 UNL     1      13.253   9.434  -4.820  1.00  0.00     0.168 C 
HETATM   27  O3  UNL     1      13.012   9.674  -3.490  1.00  0.00    -0.376 OA
ENDBRANCH  20  23
ENDBRANCH  18  19
ENDBRANCH   3  18
TORSDOF 4
ENDMDL
MODEL 4
REMARK VINA RESULT: -8.812279406      5.788     10.303
REMARK  4 active torsions:
REMARK  status: ('A' for Active; 'I' for Inactive)
REMARK    1  A    between atoms: C10_10  and  N1_11 
REMARK       I    between atoms: N1_11  and  C11_13 
REMARK    2  A    between atoms: C11_13  and  C12_15 
REMARK    3  A    between atoms: C12_15  and  N2_16 
REMARK       I    between atoms: N2_16  and  C13_18 
REMARK    4  A    between atoms: C13_18  and  C14_20 
ROOT
HETATM    1  N1  UNL     1      13.384   9.272   2.767  1.00  0.00    -0.355 N 
ATOM      2  H1  UNL     1      12.393   9.515   2.798  1.00  0.00     0.162 HD
HETATM    3  C11 UNL     1      14.031   8.868   3.946  1.00  0.00     0.235 C 
HETATM    4  O1  UNL     1      15.267   8.580   3.831  1.00  0.00    -0.272 OA
ENDROOT
BRANCH   1   5
HETATM    5  C10 UNL     1      14.091   9.348   1.512  1.00  0.00     0.087 C 
HETATM    6  C9  UNL     1      15.038  10.522   1.597  1.00  0.00     0.025 C 
HETATM    7  C8  UNL     1      15.650  10.852   0.244  1.00  0.00     0.005 C 
HETATM    8  C7  UNL     1      14.489  11.153  -0.686  1.00  0.00     0.045 C 
HETATM    9  C6  UNL     1      13.753   9.851  -0.903  1.00  0.00     0.116 C 
HETATM   10  C5  UNL     1      14.636   8.784  -1.422  1.00  0.00     0.013 C 
HETATM   11  C18 UNL     1      13.107   9.455   0.393  1.00  0.00     0.070 C 
HETATM   12  O4  UNL     1      12.773  10.080  -1.869  1.00  0.00    -0.224 OA
HETATM   13  C4  UNL     1      14.764   8.650  -2.732  1.00  0.00     0.012 C 
HETATM   14  C2  UNL     1      14.029   9.559  -3.652  1.00  0.00     0.107 C 
HETATM   15  C1  UNL     1      13.006   8.822  -4.480  1.00  0.00     0.053 C 
HETATM   16  C3  UNL     1      15.052  10.136  -4.607  1.00  0.00     0.053 C 
HETATM   17  O5  UNL     1      13.394  10.564  -2.923  1.00  0.00    -0.225 OA
ENDBRANCH   1   5
BRANCH   3  18
HETATM   18  C12 UNL     1      13.440   8.746   5.279  1.00  0.00     0.225 C 
BRANCH  18  19
HETATM   19  N2  UNL     1      13.770   9.773   6.218  1.00  0.00    -0.350 N 
HETATM   20  C13 UNL     1      13.348   9.739   7.576  1.00  0.00     0.247 C 
HETATM   21  O2  UNL     1      12.655   8.746   7.939  1.00  0.00    -0.271 OA
ATOM     22  H2  UNL     1      14.331  10.563   5.900  1.00  0.00     0.163 HD
BRANCH  20  23
HETATM   23  C14 UNL     1      13.723  10.825   8.477  1.00  0.00     0.213 C 
HETATM   24  C15 UNL     1      14.528  10.331   9.686  1.00  0.00     0.043 C 
HETATM   25  C16 UNL     1      14.443  11.580  10.554  1.00  0.00     0.029 C 
HETATM   26  C17 UNL     1      13.089  12.104  10.196  1.00  0.00     0.168 C 
HETATM   27  O3  UNL     1      12.664  11.464   9.058  1.00  0.00    -0.376 OA
ENDBRANCH  20  23
ENDBRANCH  18  19
ENDBRANCH   3  18
TORSDOF 4
ENDMDL
MODEL 5
REMARK VINA RESULT: -8.770158234      4.793      9.447
REMARK  4 active torsions:
REMARK  status: ('A' for Active; 'I' for Inactive)
REMARK    1  A    between atoms: C10_10  and  N1_11 
REMARK       I    between atoms: N1_11  and  C11_13 
REMARK    2  A    between atoms: C11_13  and  C12_15 
REMARK    3  A    between atoms: C12_15  and  N2_16 
REMARK       I    between atoms: N2_16  and  C13_18 
REMARK    4  A    between atoms: C13_18  and  C14_20 
ROOT
HETATM    1  N1  UNL     1      16.805   9.800   3.663  1.00  0.00    -0.355 N 
ATOM      2  H1  UNL     1      16.531  10.682   4.097  1.00  0.00     0.162 HD
HETATM    3  C11 UNL     1      17.274   8.750   4.471  1.00  0.00     0.235 C 
HETATM    4  O1  UNL     1      17.597   7.681   3.860  1.00  0.00    -0.272 OA
ENDROOT
BRANCH   1   5
HETATM    5  C10 UNL     1      16.703   9.655   2.231  1.00  0.00     0.087 C 
HETATM    6  C9  UNL     1      17.906  10.334   1.622  1.00  0.00     0.025 C 
HETATM    7  C8  UNL     1      17.775  10.465   0.111  1.00  0.00     0.005 C 
HETATM    8  C7  UNL     1      16.509  11.266  -0.138  1.00  0.00     0.045 C 
HETATM    9  C6  UNL     1      15.349  10.392   0.276  1.00  0.00     0.116 C 
HETATM   10  C5  UNL     1      15.345   9.091  -0.426  1.00  0.00     0.013 C 
HETATM   11  C18 UNL     1      15.400  10.218   1.767  1.00  0.00     0.070 C 
HETATM   12  O4  UNL     1      14.176  11.056  -0.082  1.00  0.00    -0.224 OA
HETATM   13  C4  UNL     1      14.694   8.993  -1.574  1.00  0.00     0.012 C 
HETATM   14  C2  UNL     1      13.986  10.174  -2.134  1.00  0.00     0.107 C 
HETATM   15  C1  UNL     1      12.493   9.968  -2.188  1.00  0.00     0.053 C 
HETATM   16  C3  UNL     1      14.471  10.340  -3.560  1.00  0.00     0.053 C 
HETATM   17  O5  UNL     1      14.268  11.306  -1.370  1.00  0.00    -0.225 OA
ENDBRANCH   1   5
BRANCH   3  18
HETATM   18  C12 UNL     1      17.427   8.760   5.926  1.00  0.00     0.225 C 
BRANCH  18  19
HETATM   19  N2  UNL     1      16.337   9.299   6.678  1.00  0.00    -0.350 N 
HETATM   20  C13 UNL     1      15.742   8.612   7.772  1.00  0.00     0.247 C 
HETATM   21  O2  UNL     1      16.219   7.480   8.070  1.00  0.00    -0.271 OA
ATOM     22  H2  UNL     1      15.970  10.214   6.418  1.00  0.00     0.163 HD
BRANCH  20  23
HETATM   23  C14 UNL     1      14.630   9.225   8.492  1.00  0.00     0.213 C 
HETATM   24  C15 UNL     1      13.851  10.224   7.626  1.00  0.00     0.043 C 
HETATM   25  C16 UNL     1      13.045  10.911   8.721  1.00  0.00     0.029 C 
HETATM   26  C17 UNL     1      14.001  10.868   9.871  1.00  0.00     0.168 C 
HETATM   27  O3  UNL     1      15.005   9.983   9.565  1.00  0.00    -0.376 OA
ENDBRANCH  20  23
ENDBRANCH  18  19
ENDBRANCH   3  18
TORSDOF 4
ENDMDL
