MODEL 1
REMARK VINA RESULT: -8.397037772      0.000      0.000
REMARK  6 active torsions:
REMARK  status: ('A' for Active; 'I' for Inactive)
REMARK    1  A    between atoms: N1_2  and  S1_4 
REMARK    2  A    between atoms: S1_4  and  N2_7 
REMARK    3  A    between atoms: C5_10  and  C7_12 
REMARK       I    between atoms: C7_12  and  N3_14 
REMARK    4  A    between atoms: N3_14  and  C8_16 
REMARK    5  A    between atoms: C11_19  and  O4_20 
REMARK    6  A    between atoms: O4_20  and  C12_21 
ROOT
HETATM    1  C7  UNL     1     -19.762  -2.180   4.684  1.00  0.00     0.227 C 
HETATM    2  O3  UNL     1     -20.118  -3.380   4.782  1.00  0.00    -0.273 OA
HETATM    3  N3  UNL     1     -18.562  -1.780   4.040  1.00  0.00    -0.356 N 
ATOM      4  H3  UNL     1     -18.338  -0.785   3.999  1.00  0.00     0.162 HD
ENDROOT
BRANCH   1   5
HETATM    5  C5  UNL     1     -20.645  -1.146   5.270  1.00  0.00     0.051 C 
HETATM    6  C4  UNL     1     -21.007  -0.093   4.247  1.00  0.00     0.035 C 
HETATM    7  C3  UNL     1     -22.487   0.046   4.410  1.00  0.00     0.110 C 
HETATM    8  N2  UNL     1     -22.837  -0.583   5.660  1.00  0.00    -0.196 NA
HETATM    9  C19 UNL     1     -21.973  -1.724   5.718  1.00  0.00     0.127 C 
HETATM   10  C6  UNL     1     -19.973  -0.517   6.476  1.00  0.00     0.027 C 
BRANCH   8  11
HETATM   11  S1  UNL     1     -24.509  -1.004   5.576  1.00  0.00     0.282 S 
HETATM   12  O1  UNL     1     -24.638  -2.470   5.888  1.00  0.00    -0.194 OA
HETATM   13  O2  UNL     1     -25.326  -0.194   6.534  1.00  0.00    -0.194 OA
BRANCH  11  14
HETATM   14  N1  UNL     1     -25.041  -0.664   3.967  1.00  0.00    -0.206 NA
HETATM   15  C1  UNL     1     -25.846   0.519   3.947  1.00  0.00     0.130 C 
HETATM   16  C2  UNL     1     -25.656  -1.806   3.342  1.00  0.00     0.130 C 
ENDBRANCH  11  14
ENDBRANCH   8  11
ENDBRANCH   1   5
BRANCH   3  17
HETATM   17  C8  UNL     1     -17.642  -2.724   3.439  1.00  0.00     0.084 C 
HETATM   18  C9  UNL     1     -17.393  -3.901   4.357  1.00  0.00     0.028 C 
HETATM   19  C10 UNL     1     -16.540  -4.922   3.691  1.00  0.00     0.034 C 
HETATM   20  C11 UNL     1     -15.982  -4.473   2.354  1.00  0.00     0.122 C 
HETATM   21  C17 UNL     1     -17.073  -4.012   1.412  1.00  0.00     0.034 C 
HETATM   22  C18 UNL     1     -18.165  -3.269   2.140  1.00  0.00     0.028 C 
BRANCH  20  23
HETATM   23  O4  UNL     1     -15.290  -5.534   1.828  1.00  0.00    -0.381 OA
BRANCH  23  24
HETATM   24  C12 UNL     1     -13.942  -5.538   2.076  1.00  0.00     0.122 C 
HETATM   25  C13 UNL     1     -13.546  -4.149   2.533  1.00  0.00     0.032 C 
HETATM   26  C14 UNL     1     -12.730  -3.542   1.416  1.00  0.00     0.002 C 
HETATM   27  C15 UNL     1     -12.910  -4.472   0.228  1.00  0.00     0.002 C 
HETATM   28  C16 UNL     1     -13.073  -5.801   0.908  1.00  0.00     0.032 C 
ENDBRANCH  23  24
ENDBRANCH  20  23
ENDBRANCH   3  17
TORSDOF 6
ENDMDL
MODEL 2
REMARK VINA RESULT: -8.386107413      1.165      1.686
REMARK  6 active torsions:
REMARK  status: ('A' for Active; 'I' for Inactive)
REMARK    1  A    between atoms: N1_2  and  S1_4 
REMARK    2  A    between atoms: S1_4  and  N2_7 
REMARK    3  A    between atoms: C5_10  and  C7_12 
REMARK       I    between atoms: C7_12  and  N3_14 
REMARK    4  A    between atoms: N3_14  and  C8_16 
REMARK    5  A    between atoms: C11_19  and  O4_20 
REMARK    6  A    between atoms: O4_20  and  C12_21 
ROOT
HETATM    1  C7  UNL     1     -19.450  -2.227   4.655  1.00  0.00     0.227 C 
HETATM    2  O3  UNL     1     -19.825  -3.423   4.592  1.00  0.00    -0.273 OA
HETATM    3  N3  UNL     1     -18.244  -1.763   4.067  1.00  0.00    -0.356 N 
ATOM      4  H3  UNL     1     -18.004  -0.775   4.159  1.00  0.00     0.162 HD
ENDROOT
BRANCH   1   5
HETATM    5  C5  UNL     1     -20.316  -1.267   5.377  1.00  0.00     0.051 C 
HETATM    6  C4  UNL     1     -20.498   0.007   4.584  1.00  0.00     0.035 C 
HETATM    7  C3  UNL     1     -21.974   0.239   4.646  1.00  0.00     0.110 C 
HETATM    8  N2  UNL     1     -22.493  -0.608   5.693  1.00  0.00    -0.196 NA
HETATM    9  C19 UNL     1     -21.718  -1.807   5.572  1.00  0.00     0.127 C 
HETATM   10  C6  UNL     1     -19.729  -0.971   6.744  1.00  0.00     0.027 C 
BRANCH   8  11
HETATM   11  S1  UNL     1     -24.172  -0.852   5.376  1.00  0.00     0.282 S 
HETATM   12  O1  UNL     1     -24.958  -0.092   6.409  1.00  0.00    -0.194 OA
HETATM   13  O2  UNL     1     -24.542  -0.395   3.999  1.00  0.00    -0.194 OA
BRANCH  11  14
HETATM   14  N1  UNL     1     -24.472  -2.551   5.497  1.00  0.00    -0.206 NA
HETATM   15  C1  UNL     1     -25.463  -2.952   4.546  1.00  0.00     0.130 C 
HETATM   16  C2  UNL     1     -24.752  -2.960   6.849  1.00  0.00     0.130 C 
ENDBRANCH  11  14
ENDBRANCH   8  11
ENDBRANCH   1   5
BRANCH   3  17
HETATM   17  C8  UNL     1     -17.339  -2.632   3.342  1.00  0.00     0.084 C 
HETATM   18  C9  UNL     1     -17.021  -3.876   4.143  1.00  0.00     0.028 C 
HETATM   19  C10 UNL     1     -16.185  -4.817   3.350  1.00  0.00     0.034 C 
HETATM   20  C11 UNL     1     -15.707  -4.245   2.030  1.00  0.00     0.122 C 
HETATM   21  C17 UNL     1     -16.854  -3.732   1.187  1.00  0.00     0.034 C 
HETATM   22  C18 UNL     1     -17.920  -3.078   2.030  1.00  0.00     0.028 C 
BRANCH  20  23
HETATM   23  O4  UNL     1     -15.024  -5.242   1.381  1.00  0.00    -0.381 OA
BRANCH  23  24
HETATM   24  C12 UNL     1     -13.757  -4.918   0.972  1.00  0.00     0.122 C 
HETATM   25  C13 UNL     1     -12.895  -6.157   1.090  1.00  0.00     0.032 C 
HETATM   26  C14 UNL     1     -11.940  -5.914   2.234  1.00  0.00     0.002 C 
HETATM   27  C15 UNL     1     -12.453  -4.667   2.935  1.00  0.00     0.002 C 
HETATM   28  C16 UNL     1     -13.055  -3.904   1.790  1.00  0.00     0.032 C 
ENDBRANCH  23  24
ENDBRANCH  20  23
ENDBRANCH   3  17
TORSDOF 6
ENDMDL
MODEL 3
REMARK VINA RESULT: -8.286283670      1.734      2.412
REMARK  6 active torsions:
REMARK  status: ('A' for Active; 'I' for Inactive)
REMARK    1  A    between atoms: N1_2  and  S1_4 
REMARK    2  A    between atoms: S1_4  and  N2_7 
REMARK    3  A    between atoms: C5_10  and  C7_12 
REMARK       I    between atoms: C7_12  and  N3_14 
REMARK    4  A    between atoms: N3_14  and  C8_16 
REMARK    5  A    between atoms: C11_19  and  O4_20 
REMARK    6  A    between atoms: O4_20  and  C12_21 
ROOT
HETATM    1  C7  UNL     1     -20.651  -3.380   5.335  1.00  0.00     0.227 C 
HETATM    2  O3  UNL     1     -20.671  -4.605   5.063  1.00  0.00    -0.273 OA
HETATM    3  N3  UNL     1     -19.532  -2.547   5.069  1.00  0.00    -0.356 N 
ATOM      4  H3  UNL     1     -19.589  -1.559   5.317  1.00  0.00     0.162 HD
ENDROOT
BRANCH   1   5
HETATM    5  C5  UNL     1     -21.856  -2.790   5.960  1.00  0.00     0.051 C 
HETATM    6  C4  UNL     1     -21.619  -1.349   6.352  1.00  0.00     0.035 C 
HETATM    7  C3  UNL     1     -22.831  -0.649   5.825  1.00  0.00     0.110 C 
HETATM    8  N2  UNL     1     -23.810  -1.665   5.524  1.00  0.00    -0.196 NA
HETATM    9  C19 UNL     1     -23.027  -2.744   4.998  1.00  0.00     0.127 C 
HETATM   10  C6  UNL     1     -22.268  -3.615   7.165  1.00  0.00     0.027 C 
BRANCH   8  11
HETATM   11  S1  UNL     1     -24.906  -1.000   4.368  1.00  0.00     0.282 S 
HETATM   12  O1  UNL     1     -24.110  -0.204   3.372  1.00  0.00    -0.194 OA
HETATM   13  O2  UNL     1     -25.687  -2.073   3.673  1.00  0.00    -0.194 OA
BRANCH  11  14
HETATM   14  N1  UNL     1     -26.006   0.014   5.234  1.00  0.00    -0.206 NA
HETATM   15  C1  UNL     1     -26.503  -0.663   6.392  1.00  0.00     0.130 C 
HETATM   16  C2  UNL     1     -27.033   0.556   4.383  1.00  0.00     0.130 C 
ENDBRANCH  11  14
ENDBRANCH   8  11
ENDBRANCH   1   5
BRANCH   3  17
HETATM   17  C8  UNL     1     -18.315  -3.040   4.458  1.00  0.00     0.084 C 
HETATM   18  C9  UNL     1     -18.481  -3.199   2.963  1.00  0.00     0.028 C 
HETATM   19  C10 UNL     1     -17.197  -3.596   2.325  1.00  0.00     0.034 C 
HETATM   20  C11 UNL     1     -16.097  -3.918   3.318  1.00  0.00     0.122 C 
HETATM   21  C17 UNL     1     -15.865  -2.785   4.293  1.00  0.00     0.034 C 
HETATM   22  C18 UNL     1     -17.156  -2.110   4.685  1.00  0.00     0.028 C 
BRANCH  20  23
HETATM   23  O4  UNL     1     -14.964  -4.186   2.593  1.00  0.00    -0.381 OA
BRANCH  23  24
HETATM   24  C12 UNL     1     -14.944  -5.401   1.959  1.00  0.00     0.122 C 
HETATM   25  C13 UNL     1     -15.292  -6.466   2.978  1.00  0.00     0.032 C 
HETATM   26  C14 UNL     1     -14.028  -7.253   3.232  1.00  0.00     0.002 C 
HETATM   27  C15 UNL     1     -12.914  -6.455   2.577  1.00  0.00     0.002 C 
HETATM   28  C16 UNL     1     -13.633  -5.825   1.419  1.00  0.00     0.032 C 
ENDBRANCH  23  24
ENDBRANCH  20  23
ENDBRANCH   3  17
TORSDOF 6
ENDMDL
MODEL 4
REMARK VINA RESULT: -8.276745807      0.625      1.186
REMARK  6 active torsions:
REMARK  status: ('A' for Active; 'I' for Inactive)
REMARK    1  A    between atoms: N1_2  and  S1_4 
REMARK    2  A    between atoms: S1_4  and  N2_7 
REMARK    3  A    between atoms: C5_10  and  C7_12 
REMARK       I    between atoms: C7_12  and  N3_14 
REMARK    4  A    between atoms: N3_14  and  C8_16 
REMARK    5  A    between atoms: C11_19  and  O4_20 
REMARK    6  A    between atoms: O4_20  and  C12_21 
ROOT
HETATM    1  C7  UNL     1     -20.149  -2.296   4.886  1.00  0.00     0.227 C 
HETATM    2  O3  UNL     1     -20.463  -3.479   5.163  1.00  0.00    -0.273 OA
HETATM    3  N3  UNL     1     -19.011  -1.960   4.106  1.00  0.00    -0.356 N 
ATOM      4  H3  UNL     1     -18.818  -0.975   3.922  1.00  0.00     0.162 HD
ENDROOT
BRANCH   1   5
HETATM    5  C5  UNL     1     -21.014  -1.211   5.402  1.00  0.00     0.051 C 
HETATM    6  C4  UNL     1     -21.377  -0.233   4.307  1.00  0.00     0.035 C 
HETATM    7  C3  UNL     1     -22.853  -0.067   4.474  1.00  0.00     0.110 C 
HETATM    8  N2  UNL     1     -23.195  -0.595   5.772  1.00  0.00    -0.196 NA
HETATM    9  C19 UNL     1     -22.342  -1.738   5.907  1.00  0.00     0.127 C 
HETATM   10  C6  UNL     1     -20.321  -0.500   6.550  1.00  0.00     0.027 C 
BRANCH   8  11
HETATM   11  S1  UNL     1     -24.873  -1.003   5.739  1.00  0.00     0.282 S 
HETATM   12  O1  UNL     1     -25.013  -2.440   6.158  1.00  0.00    -0.194 OA
HETATM   13  O2  UNL     1     -25.670  -0.115   6.644  1.00  0.00    -0.194 OA
BRANCH  11  14
HETATM   14  N1  UNL     1     -25.420  -0.775   4.115  1.00  0.00    -0.206 NA
HETATM   15  C1  UNL     1     -26.356   0.305   4.050  1.00  0.00     0.130 C 
HETATM   16  C2  UNL     1     -25.891  -2.000   3.522  1.00  0.00     0.130 C 
ENDBRANCH  11  14
ENDBRANCH   8  11
ENDBRANCH   1   5
BRANCH   3  17
HETATM   17  C8  UNL     1     -18.112  -2.957   3.561  1.00  0.00     0.084 C 
HETATM   18  C9  UNL     1     -18.109  -2.918   2.048  1.00  0.00     0.028 C 
HETATM   19  C10 UNL     1     -17.102  -3.863   1.495  1.00  0.00     0.034 C 
HETATM   20  C11 UNL     1     -16.462  -4.754   2.542  1.00  0.00     0.122 C 
HETATM   21  C17 UNL     1     -15.856  -3.952   3.673  1.00  0.00     0.034 C 
HETATM   22  C18 UNL     1     -16.696  -2.748   4.019  1.00  0.00     0.028 C 
BRANCH  20  23
HETATM   23  O4  UNL     1     -15.509  -5.507   1.905  1.00  0.00    -0.381 OA
BRANCH  23  24
HETATM   24  C12 UNL     1     -14.210  -5.185   2.201  1.00  0.00     0.122 C 
HETATM   25  C13 UNL     1     -13.773  -4.084   1.258  1.00  0.00     0.032 C 
HETATM   26  C14 UNL     1     -12.773  -4.698   0.308  1.00  0.00     0.002 C 
HETATM   27  C15 UNL     1     -12.864  -6.198   0.534  1.00  0.00     0.002 C 
HETATM   28  C16 UNL     1     -13.217  -6.262   1.992  1.00  0.00     0.032 C 
ENDBRANCH  23  24
ENDBRANCH  20  23
ENDBRANCH   3  17
TORSDOF 6
ENDMDL
MODEL 5
REMARK VINA RESULT: -8.247141270      0.922      1.113
REMARK  6 active torsions:
REMARK  status: ('A' for Active; 'I' for Inactive)
REMARK    1  A    between atoms: N1_2  and  S1_4 
REMARK    2  A    between atoms: S1_4  and  N2_7 
REMARK    3  A    between atoms: C5_10  and  C7_12 
REMARK       I    between atoms: C7_12  and  N3_14 
REMARK    4  A    between atoms: N3_14  and  C8_16 
REMARK    5  A    between atoms: C11_19  and  O4_20 
REMARK    6  A    between atoms: O4_20  and  C12_21 
ROOT
HETATM    1  C7  UNL     1     -19.960  -2.344   4.766  1.00  0.00     0.227 C 
HETATM    2  O3  UNL     1     -20.226  -3.565   4.874  1.00  0.00    -0.273 OA
HETATM    3  N3  UNL     1     -18.804  -1.859   4.098  1.00  0.00    -0.356 N 
ATOM      4  H3  UNL     1     -18.654  -0.851   4.050  1.00  0.00     0.162 HD
ENDROOT
BRANCH   1   5
HETATM    5  C5  UNL     1     -20.904  -1.374   5.367  1.00  0.00     0.051 C 
HETATM    6  C4  UNL     1     -21.333  -0.333   4.359  1.00  0.00     0.035 C 
HETATM    7  C3  UNL     1     -22.818  -0.289   4.525  1.00  0.00     0.110 C 
HETATM    8  N2  UNL     1     -23.126  -0.954   5.768  1.00  0.00    -0.196 NA
HETATM    9  C19 UNL     1     -22.192  -2.039   5.810  1.00  0.00     0.127 C 
HETATM   10  C6  UNL     1     -20.269  -0.720   6.580  1.00  0.00     0.027 C 
BRANCH   8  11
HETATM   11  S1  UNL     1     -24.769  -1.478   5.681  1.00  0.00     0.282 S 
HETATM   12  O1  UNL     1     -25.006  -2.049   4.310  1.00  0.00    -0.194 OA
HETATM   13  O2  UNL     1     -25.073  -2.501   6.732  1.00  0.00    -0.194 OA
BRANCH  11  14
HETATM   14  N1  UNL     1     -25.761  -0.089   5.955  1.00  0.00    -0.206 NA
HETATM   15  C1  UNL     1     -26.553  -0.266   7.134  1.00  0.00     0.130 C 
HETATM   16  C2  UNL     1     -26.517   0.279   4.787  1.00  0.00     0.130 C 
ENDBRANCH  11  14
ENDBRANCH   8  11
ENDBRANCH   1   5
BRANCH   3  17
HETATM   17  C8  UNL     1     -17.830  -2.736   3.481  1.00  0.00     0.084 C 
HETATM   18  C9  UNL     1     -17.447  -3.865   4.413  1.00  0.00     0.028 C 
HETATM   19  C10 UNL     1     -16.535  -4.826   3.736  1.00  0.00     0.034 C 
HETATM   20  C11 UNL     1     -16.068  -4.364   2.369  1.00  0.00     0.122 C 
HETATM   21  C17 UNL     1     -17.229  -4.021   1.461  1.00  0.00     0.034 C 
HETATM   22  C18 UNL     1     -18.353  -3.356   2.216  1.00  0.00     0.028 C 
BRANCH  20  23
HETATM   23  O4  UNL     1     -15.308  -5.375   1.839  1.00  0.00    -0.381 OA
BRANCH  23  24
HETATM   24  C12 UNL     1     -13.982  -5.360   2.188  1.00  0.00     0.122 C 
HETATM   25  C13 UNL     1     -13.585  -3.923   2.454  1.00  0.00     0.032 C 
HETATM   26  C14 UNL     1     -12.672  -3.510   1.324  1.00  0.00     0.002 C 
HETATM   27  C15 UNL     1     -12.787  -4.611   0.284  1.00  0.00     0.002 C 
HETATM   28  C16 UNL     1     -13.036  -5.815   1.146  1.00  0.00     0.032 C 
ENDBRANCH  23  24
ENDBRANCH  20  23
ENDBRANCH   3  17
TORSDOF 6
ENDMDL
