MODEL 1
REMARK VINA RESULT: -9.596037805      0.000      0.000
REMARK  13 active torsions:
REMARK  status: ('A' for Active; 'I' for Inactive)
REMARK    1  A    between atoms: N1_1  and  C1_4 
REMARK    2  A    between atoms: C5_9  and  C6_10 
REMARK    3  A    between atoms: C6_10  and  C7_11 
REMARK    4  A    between atoms: C7_11  and  C8_12 
REMARK    5  A    between atoms: C7_11  and  C22_32 
REMARK       I    between atoms: C8_12  and  N2_14 
REMARK    6  A    between atoms: N2_14  and  C9_15 
REMARK    7  A    between atoms: N2_14  and  C13_23 
REMARK    8  A    between atoms: C9_15  and  C10_16 
REMARK    9  A    between atoms: C10_16  and  C11_17 
REMARK   10  A    between atoms: C11_17  and  N3_18 
REMARK   11  A    between atoms: C13_23  and  C14_24 
REMARK   12  A    between atoms: C14_24  and  C15_25 
REMARK   13  A    between atoms: C15_25  and  C16_26 
ROOT
HETATM    1  C7  UNL     1      22.479  47.236  43.769  1.00  0.00     0.135 C 
ENDROOT
BRANCH   1   2
HETATM    2  C6  UNL     1      22.319  48.699  43.620  1.00  0.00     0.077 C 
BRANCH   2   3
HETATM    3  C5  UNL     1      22.643  49.604  44.691  1.00  0.00     0.013 A 
HETATM    4  C4  UNL     1      22.913  49.104  45.961  1.00  0.00     0.044 A 
HETATM    5  C3  UNL     1      23.179  49.966  46.987  1.00  0.00     0.016 A 
HETATM    6  C2  UNL     1      23.179  51.328  46.760  1.00  0.00     0.067 A 
HETATM    7 BR1  UNL     1      23.549  49.252  48.729  1.00  0.00    -0.051 Br
HETATM    8  C1  UNL     1      22.910  51.819  45.503  1.00  0.00     0.100 A 
HETATM    9  N8  UNL     1      22.653  50.937  44.519  1.00  0.00    -0.346 N 
ATOM     10  H8  UNL     1      22.454  51.303  43.588  1.00  0.00     0.167 HD
BRANCH   8  11
HETATM   11  N1  UNL     1      22.913  53.098  45.306  1.00  0.00    -0.385 N 
ATOM     12  H12 UNL     1      22.911  53.771  46.073  1.00  0.00     0.157 HD
ATOM     13  H11 UNL     1      22.918  53.458  44.351  1.00  0.00     0.157 HD
ENDBRANCH   8  11
ENDBRANCH   2   3
ENDBRANCH   1   2
BRANCH   1  14
HETATM   14  C8  UNL     1      21.628  46.356  42.969  1.00  0.00     0.233 C 
HETATM   15  O1  UNL     1      22.083  45.996  41.832  1.00  0.00    -0.272 OA
HETATM   16  N2  UNL     1      20.331  45.886  43.370  1.00  0.00    -0.331 N 
BRANCH  16  17
HETATM   17  C9  UNL     1      19.653  46.126  44.579  1.00  0.00     0.068 C 
BRANCH  17  18
HETATM   18  C10 UNL     1      19.998  45.289  45.767  1.00  0.00     0.064 C 
BRANCH  18  19
HETATM   19  C11 UNL     1      20.098  43.806  45.472  1.00  0.00     0.127 C 
BRANCH  19  20
HETATM   20  N3  UNL     1      21.146  43.202  46.308  1.00  0.00    -0.367 N 
HETATM   21  C12 UNL     1      22.348  43.034  45.882  1.00  0.00     0.196 C 
HETATM   22  N4  UNL     1      23.307  42.438  46.758  1.00  0.00    -0.067 NA
HETATM   23  N5  UNL     1      22.809  43.398  44.592  1.00  0.00    -0.067 NA
ATOM     24  H3  UNL     1      20.913  42.906  47.256  1.00  0.00     0.161 HD
ENDBRANCH  19  20
ENDBRANCH  18  19
ENDBRANCH  17  18
ENDBRANCH  16  17
BRANCH  16  25
HETATM   25  C13 UNL     1      19.655  45.057  42.347  1.00  0.00     0.131 C 
BRANCH  25  26
HETATM   26  C14 UNL     1      18.174  45.004  42.527  1.00  0.00     0.025 C 
BRANCH  26  27
HETATM   27  C15 UNL     1      17.395  44.428  41.393  1.00  0.00     0.040 C 
BRANCH  27  28
HETATM   28  C16 UNL     1      16.332  45.390  40.922  1.00  0.00    -0.058 A 
HETATM   29  C17 UNL     1      14.998  45.147  41.156  1.00  0.00     0.007 A 
HETATM   30  C18 UNL     1      14.050  46.047  40.712  1.00  0.00     0.001 A 
HETATM   31  C19 UNL     1      14.411  47.193  40.035  1.00  0.00     0.000 A 
HETATM   32  C20 UNL     1      15.760  47.463  39.784  1.00  0.00     0.001 A 
HETATM   33  C21 UNL     1      16.671  46.540  40.244  1.00  0.00     0.007 A 
ENDBRANCH  27  28
ENDBRANCH  26  27
ENDBRANCH  25  26
ENDBRANCH  16  25
ENDBRANCH   1  14
BRANCH   1  34
HETATM   34  C22 UNL     1      23.876  46.766  43.710  1.00  0.00     0.039 A 
HETATM   35  C23 UNL     1      24.880  47.121  42.853  1.00  0.00     0.114 A 
HETATM   36  N6  UNL     1      26.002  46.464  43.169  1.00  0.00    -0.360 N 
HETATM   37  C24 UNL     1      25.722  45.686  44.230  1.00  0.00     0.180 A 
ATOM     38  H6  UNL     1      26.902  46.539  42.694  1.00  0.00     0.166 HD
HETATM   39  N7  UNL     1      24.424  45.877  44.553  1.00  0.00    -0.354 N 
ATOM     40  H7  UNL     1      23.935  45.415  45.321  1.00  0.00     0.166 HD
ENDBRANCH   1  34
TORSDOF 13
ENDMDL
MODEL 2
REMARK VINA RESULT: -9.385287708      1.232      1.882
REMARK  13 active torsions:
REMARK  status: ('A' for Active; 'I' for Inactive)
REMARK    1  A    between atoms: N1_1  and  C1_4 
REMARK    2  A    between atoms: C5_9  and  C6_10 
REMARK    3  A    between atoms: C6_10  and  C7_11 
REMARK    4  A    between atoms: C7_11  and  C8_12 
REMARK    5  A    between atoms: C7_11  and  C22_32 
REMARK       I    between atoms: C8_12  and  N2_14 
REMARK    6  A    between atoms: N2_14  and  C9_15 
REMARK    7  A    between atoms: N2_14  and  C13_23 
REMARK    8  A    between atoms: C9_15  and  C10_16 
REMARK    9  A    between atoms: C10_16  and  C11_17 
REMARK   10  A    between atoms: C11_17  and  N3_18 
REMARK   11  A    between atoms: C13_23  and  C14_24 
REMARK   12  A    between atoms: C14_24  and  C15_25 
REMARK   13  A    between atoms: C15_25  and  C16_26 
ROOT
HETATM    1  C7  UNL     1      21.303  47.341  43.729  1.00  0.00     0.135 C 
ENDROOT
BRANCH   1   2
HETATM    2  C6  UNL     1      21.178  48.813  43.801  1.00  0.00     0.077 C 
BRANCH   2   3
HETATM    3  C5  UNL     1      21.948  49.588  44.738  1.00  0.00     0.013 A 
HETATM    4  C4  UNL     1      22.449  48.985  45.888  1.00  0.00     0.044 A 
HETATM    5  C3  UNL     1      23.144  49.731  46.797  1.00  0.00     0.016 A 
HETATM    6  C2  UNL     1      23.347  51.077  46.573  1.00  0.00     0.067 A 
HETATM    7 BR1  UNL     1      23.825  48.876  48.374  1.00  0.00    -0.051 Br
HETATM    8  C1  UNL     1      22.848  51.671  45.435  1.00  0.00     0.100 A 
HETATM    9  N8  UNL     1      22.169  50.903  44.564  1.00  0.00    -0.346 N 
ATOM     10  H8  UNL     1      21.801  51.344  43.722  1.00  0.00     0.167 HD
BRANCH   8  11
HETATM   11  N1  UNL     1      23.046  52.936  45.240  1.00  0.00    -0.385 N 
ATOM     12  H12 UNL     1      23.976  53.354  45.260  1.00  0.00     0.157 HD
ATOM     13  H11 UNL     1      22.248  53.544  45.057  1.00  0.00     0.157 HD
ENDBRANCH   8  11
ENDBRANCH   2   3
ENDBRANCH   1   2
BRANCH   1  14
HETATM   14  C8  UNL     1      20.085  46.545  43.576  1.00  0.00     0.233 C 
HETATM   15  O1  UNL     1      19.289  46.889  42.639  1.00  0.00    -0.272 OA
HETATM   16  N2  UNL     1      19.730  45.426  44.403  1.00  0.00    -0.331 N 
BRANCH  16  17
HETATM   17  C9  UNL     1      20.462  44.857  45.461  1.00  0.00     0.068 C 
BRANCH  17  18
HETATM   18  C10 UNL     1      20.365  43.382  45.681  1.00  0.00     0.064 C 
BRANCH  18  19
HETATM   19  C11 UNL     1      21.635  42.623  45.358  1.00  0.00     0.127 C 
BRANCH  19  20
HETATM   20  N3  UNL     1      22.570  43.499  44.636  1.00  0.00    -0.367 N 
HETATM   21  C12 UNL     1      23.736  43.782  45.097  1.00  0.00     0.196 C 
HETATM   22  N4  UNL     1      24.583  44.643  44.333  1.00  0.00    -0.067 NA
HETATM   23  N5  UNL     1      24.262  43.303  46.323  1.00  0.00    -0.067 NA
ATOM     24  H3  UNL     1      22.284  43.894  43.740  1.00  0.00     0.161 HD
ENDBRANCH  19  20
ENDBRANCH  18  19
ENDBRANCH  17  18
ENDBRANCH  16  17
BRANCH  16  25
HETATM   25  C13 UNL     1      18.414  44.834  44.072  1.00  0.00     0.131 C 
BRANCH  25  26
HETATM   26  C14 UNL     1      18.357  44.282  42.687  1.00  0.00     0.025 C 
BRANCH  26  27
HETATM   27  C15 UNL     1      17.002  43.910  42.184  1.00  0.00     0.040 C 
BRANCH  27  28
HETATM   28  C16 UNL     1      16.401  45.029  41.369  1.00  0.00    -0.058 A 
HETATM   29  C17 UNL     1      17.192  45.858  40.608  1.00  0.00     0.007 A 
HETATM   30  C18 UNL     1      16.612  46.873  39.873  1.00  0.00     0.001 A 
HETATM   31  C19 UNL     1      15.247  47.077  39.885  1.00  0.00     0.000 A 
HETATM   32  C20 UNL     1      14.422  46.248  40.651  1.00  0.00     0.001 A 
HETATM   33  C21 UNL     1      15.041  45.249  41.366  1.00  0.00     0.007 A 
ENDBRANCH  27  28
ENDBRANCH  26  27
ENDBRANCH  25  26
ENDBRANCH  16  25
ENDBRANCH   1  14
BRANCH   1  34
HETATM   34  C22 UNL     1      22.333  46.861  42.790  1.00  0.00     0.039 A 
HETATM   35  C23 UNL     1      23.541  47.412  42.464  1.00  0.00     0.114 A 
HETATM   36  N6  UNL     1      24.174  46.631  41.580  1.00  0.00    -0.360 N 
HETATM   37  C24 UNL     1      23.374  45.577  41.337  1.00  0.00     0.180 A 
ATOM     38  H6  UNL     1      25.091  46.804  41.168  1.00  0.00     0.166 HD
HETATM   39  N7  UNL     1      22.255  45.725  42.079  1.00  0.00    -0.354 N 
ATOM     40  H7  UNL     1      21.470  45.073  42.096  1.00  0.00     0.166 HD
ENDBRANCH   1  34
TORSDOF 13
ENDMDL
MODEL 3
REMARK VINA RESULT: -9.029112510      1.357      2.260
REMARK  13 active torsions:
REMARK  status: ('A' for Active; 'I' for Inactive)
REMARK    1  A    between atoms: N1_1  and  C1_4 
REMARK    2  A    between atoms: C5_9  and  C6_10 
REMARK    3  A    between atoms: C6_10  and  C7_11 
REMARK    4  A    between atoms: C7_11  and  C8_12 
REMARK    5  A    between atoms: C7_11  and  C22_32 
REMARK       I    between atoms: C8_12  and  N2_14 
REMARK    6  A    between atoms: N2_14  and  C9_15 
REMARK    7  A    between atoms: N2_14  and  C13_23 
REMARK    8  A    between atoms: C9_15  and  C10_16 
REMARK    9  A    between atoms: C10_16  and  C11_17 
REMARK   10  A    between atoms: C11_17  and  N3_18 
REMARK   11  A    between atoms: C13_23  and  C14_24 
REMARK   12  A    between atoms: C14_24  and  C15_25 
REMARK   13  A    between atoms: C15_25  and  C16_26 
ROOT
HETATM    1  C7  UNL     1      21.471  47.330  43.677  1.00  0.00     0.135 C 
ENDROOT
BRANCH   1   2
HETATM    2  C6  UNL     1      21.297  48.798  43.732  1.00  0.00     0.077 C 
BRANCH   2   3
HETATM    3  C5  UNL     1      21.998  49.602  44.698  1.00  0.00     0.013 A 
HETATM    4  C4  UNL     1      22.471  49.020  45.870  1.00  0.00     0.044 A 
HETATM    5  C3  UNL     1      23.099  49.793  46.805  1.00  0.00     0.016 A 
HETATM    6  C2  UNL     1      23.263  51.145  46.585  1.00  0.00     0.067 A 
HETATM    7 BR1  UNL     1      23.743  48.966  48.413  1.00  0.00    -0.051 Br
HETATM    8  C1  UNL     1      22.792  51.718  45.425  1.00  0.00     0.100 A 
HETATM    9  N8  UNL     1      22.179  50.923  44.529  1.00  0.00    -0.346 N 
ATOM     10  H8  UNL     1      21.831  51.349  43.670  1.00  0.00     0.167 HD
BRANCH   8  11
HETATM   11  N1  UNL     1      22.952  52.988  45.233  1.00  0.00    -0.385 N 
ATOM     12  H12 UNL     1      23.718  53.365  44.674  1.00  0.00     0.157 HD
ATOM     13  H11 UNL     1      22.293  53.644  45.652  1.00  0.00     0.157 HD
ENDBRANCH   8  11
ENDBRANCH   2   3
ENDBRANCH   1   2
BRANCH   1  14
HETATM   14  C8  UNL     1      20.276  46.486  43.653  1.00  0.00     0.233 C 
HETATM   15  O1  UNL     1      19.316  46.872  42.905  1.00  0.00    -0.272 OA
HETATM   16  N2  UNL     1      20.114  45.277  44.411  1.00  0.00    -0.331 N 
BRANCH  16  17
HETATM   17  C9  UNL     1      21.041  44.653  45.265  1.00  0.00     0.068 C 
BRANCH  17  18
HETATM   18  C10 UNL     1      21.786  43.461  44.756  1.00  0.00     0.064 C 
BRANCH  18  19
HETATM   19  C11 UNL     1      23.290  43.638  44.721  1.00  0.00     0.127 C 
BRANCH  19  20
HETATM   20  N3  UNL     1      23.642  44.994  45.167  1.00  0.00    -0.367 N 
HETATM   21  C12 UNL     1      24.714  45.587  44.775  1.00  0.00     0.196 C 
HETATM   22  N4  UNL     1      24.982  46.905  45.256  1.00  0.00    -0.067 NA
HETATM   23  N5  UNL     1      25.670  45.029  43.889  1.00  0.00    -0.067 NA
ATOM     24  H3  UNL     1      23.015  45.482  45.807  1.00  0.00     0.161 HD
ENDBRANCH  19  20
ENDBRANCH  18  19
ENDBRANCH  17  18
ENDBRANCH  16  17
BRANCH  16  25
HETATM   25  C13 UNL     1      18.784  44.648  44.251  1.00  0.00     0.131 C 
BRANCH  25  26
HETATM   26  C14 UNL     1      18.547  44.129  42.872  1.00  0.00     0.025 C 
BRANCH  26  27
HETATM   27  C15 UNL     1      17.135  43.789  42.531  1.00  0.00     0.040 C 
BRANCH  27  28
HETATM   28  C16 UNL     1      16.556  44.788  41.560  1.00  0.00    -0.058 A 
HETATM   29  C17 UNL     1      17.369  45.633  40.840  1.00  0.00     0.007 A 
HETATM   30  C18 UNL     1      16.808  46.537  39.960  1.00  0.00     0.001 A 
HETATM   31  C19 UNL     1      15.442  46.613  39.783  1.00  0.00     0.000 A 
HETATM   32  C20 UNL     1      14.595  45.765  40.503  1.00  0.00     0.001 A 
HETATM   33  C21 UNL     1      15.195  44.880  41.369  1.00  0.00     0.007 A 
ENDBRANCH  27  28
ENDBRANCH  26  27
ENDBRANCH  25  26
ENDBRANCH  16  25
ENDBRANCH   1  14
BRANCH   1  34
HETATM   34  C22 UNL     1      22.427  46.867  42.654  1.00  0.00     0.039 A 
HETATM   35  C23 UNL     1      23.574  47.458  42.200  1.00  0.00     0.114 A 
HETATM   36  N6  UNL     1      24.153  46.680  41.278  1.00  0.00    -0.360 N 
HETATM   37  C24 UNL     1      23.381  45.588  41.137  1.00  0.00     0.180 A 
ATOM     38  H6  UNL     1      25.018  46.879  40.775  1.00  0.00     0.166 HD
HETATM   39  N7  UNL     1      22.332  45.710  41.980  1.00  0.00    -0.354 N 
ATOM     40  H7  UNL     1      21.581  45.027  42.088  1.00  0.00     0.166 HD
ENDBRANCH   1  34
TORSDOF 13
ENDMDL
MODEL 4
REMARK VINA RESULT: -9.014834097      1.307      1.726
REMARK  13 active torsions:
REMARK  status: ('A' for Active; 'I' for Inactive)
REMARK    1  A    between atoms: N1_1  and  C1_4 
REMARK    2  A    between atoms: C5_9  and  C6_10 
REMARK    3  A    between atoms: C6_10  and  C7_11 
REMARK    4  A    between atoms: C7_11  and  C8_12 
REMARK    5  A    between atoms: C7_11  and  C22_32 
REMARK       I    between atoms: C8_12  and  N2_14 
REMARK    6  A    between atoms: N2_14  and  C9_15 
REMARK    7  A    between atoms: N2_14  and  C13_23 
REMARK    8  A    between atoms: C9_15  and  C10_16 
REMARK    9  A    between atoms: C10_16  and  C11_17 
REMARK   10  A    between atoms: C11_17  and  N3_18 
REMARK   11  A    between atoms: C13_23  and  C14_24 
REMARK   12  A    between atoms: C14_24  and  C15_25 
REMARK   13  A    between atoms: C15_25  and  C16_26 
ROOT
HETATM    1  C7  UNL     1      22.290  47.082  43.941  1.00  0.00     0.135 C 
ENDROOT
BRANCH   1   2
HETATM    2  C6  UNL     1      22.004  48.532  44.001  1.00  0.00     0.077 C 
BRANCH   2   3
HETATM    3  C5  UNL     1      22.505  49.353  45.073  1.00  0.00     0.013 A 
HETATM    4  C4  UNL     1      22.810  50.690  44.834  1.00  0.00     0.044 A 
HETATM    5  C3  UNL     1      23.325  51.457  45.840  1.00  0.00     0.016 A 
HETATM    6  C2  UNL     1      23.540  50.906  47.087  1.00  0.00     0.067 A 
HETATM    7 BR1  UNL     1      23.738  53.297  45.487  1.00  0.00    -0.051 Br
HETATM    8  C1  UNL     1      23.237  49.583  47.319  1.00  0.00     0.100 A 
HETATM    9  N8  UNL     1      22.732  48.860  46.302  1.00  0.00    -0.346 N 
ATOM     10  H8  UNL     1      22.509  47.880  46.475  1.00  0.00     0.167 HD
BRANCH   8  11
HETATM   11  N1  UNL     1      23.445  49.079  48.493  1.00  0.00    -0.385 N 
ATOM     12  H12 UNL     1      23.423  49.644  49.343  1.00  0.00     0.157 HD
ATOM     13  H11 UNL     1      23.638  48.082  48.583  1.00  0.00     0.157 HD
ENDBRANCH   8  11
ENDBRANCH   2   3
ENDBRANCH   1   2
BRANCH   1  14
HETATM   14  C8  UNL     1      21.469  46.246  43.064  1.00  0.00     0.233 C 
HETATM   15  O1  UNL     1      21.953  45.971  41.915  1.00  0.00    -0.272 OA
HETATM   16  N2  UNL     1      20.173  45.730  43.405  1.00  0.00    -0.331 N 
BRANCH  16  17
HETATM   17  C9  UNL     1      19.466  45.877  44.612  1.00  0.00     0.068 C 
BRANCH  17  18
HETATM   18  C10 UNL     1      19.877  45.044  45.783  1.00  0.00     0.064 C 
BRANCH  18  19
HETATM   19  C11 UNL     1      20.207  43.607  45.436  1.00  0.00     0.127 C 
BRANCH  19  20
HETATM   20  N3  UNL     1      21.282  43.117  46.311  1.00  0.00    -0.367 N 
HETATM   21  C12 UNL     1      22.499  43.013  45.908  1.00  0.00     0.196 C 
HETATM   22  N4  UNL     1      23.484  42.528  46.822  1.00  0.00    -0.067 NA
HETATM   23  N5  UNL     1      22.952  43.347  44.607  1.00  0.00    -0.067 NA
ATOM     24  H3  UNL     1      21.056  42.851  47.270  1.00  0.00     0.161 HD
ENDBRANCH  19  20
ENDBRANCH  18  19
ENDBRANCH  17  18
ENDBRANCH  16  17
BRANCH  16  25
HETATM   25  C13 UNL     1      19.531  44.963  42.314  1.00  0.00     0.131 C 
BRANCH  25  26
HETATM   26  C14 UNL     1      18.070  44.751  42.533  1.00  0.00     0.025 C 
BRANCH  26  27
HETATM   27  C15 UNL     1      17.290  44.280  41.351  1.00  0.00     0.040 C 
BRANCH  27  28
HETATM   28  C16 UNL     1      16.319  45.338  40.886  1.00  0.00    -0.058 A 
HETATM   29  C17 UNL     1      16.756  46.464  40.228  1.00  0.00     0.007 A 
HETATM   30  C18 UNL     1      15.843  47.413  39.815  1.00  0.00     0.001 A 
HETATM   31  C19 UNL     1      14.492  47.258  40.049  1.00  0.00     0.000 A 
HETATM   32  C20 UNL     1      14.023  46.123  40.717  1.00  0.00     0.001 A 
HETATM   33  C21 UNL     1      14.966  45.202  41.110  1.00  0.00     0.007 A 
ENDBRANCH  27  28
ENDBRANCH  26  27
ENDBRANCH  25  26
ENDBRANCH  16  25
ENDBRANCH   1  14
BRANCH   1  34
HETATM   34  C22 UNL     1      23.714  46.747  43.757  1.00  0.00     0.039 A 
HETATM   35  C23 UNL     1      24.603  47.201  42.823  1.00  0.00     0.114 A 
HETATM   36  N6  UNL     1      25.806  46.652  43.034  1.00  0.00    -0.360 N 
HETATM   37  C24 UNL     1      25.692  45.844  44.104  1.00  0.00     0.180 A 
ATOM     38  H6  UNL     1      26.650  46.816  42.486  1.00  0.00     0.166 HD
HETATM   39  N7  UNL     1      24.414  45.909  44.538  1.00  0.00    -0.354 N 
ATOM     40  H7  UNL     1      24.038  45.398  45.337  1.00  0.00     0.166 HD
ENDBRANCH   1  34
TORSDOF 13
ENDMDL
MODEL 5
REMARK VINA RESULT: -8.952298390      1.815      2.680
REMARK  13 active torsions:
REMARK  status: ('A' for Active; 'I' for Inactive)
REMARK    1  A    between atoms: N1_1  and  C1_4 
REMARK    2  A    between atoms: C5_9  and  C6_10 
REMARK    3  A    between atoms: C6_10  and  C7_11 
REMARK    4  A    between atoms: C7_11  and  C8_12 
REMARK    5  A    between atoms: C7_11  and  C22_32 
REMARK       I    between atoms: C8_12  and  N2_14 
REMARK    6  A    between atoms: N2_14  and  C9_15 
REMARK    7  A    between atoms: N2_14  and  C13_23 
REMARK    8  A    between atoms: C9_15  and  C10_16 
REMARK    9  A    between atoms: C10_16  and  C11_17 
REMARK   10  A    between atoms: C11_17  and  N3_18 
REMARK   11  A    between atoms: C13_23  and  C14_24 
REMARK   12  A    between atoms: C14_24  and  C15_25 
REMARK   13  A    between atoms: C15_25  and  C16_26 
ROOT
HETATM    1  C7  UNL     1      21.330  47.166  43.731  1.00  0.00     0.135 C 
ENDROOT
BRANCH   1   2
HETATM    2  C6  UNL     1      21.220  48.627  43.930  1.00  0.00     0.077 C 
BRANCH   2   3
HETATM    3  C5  UNL     1      22.002  49.312  44.927  1.00  0.00     0.013 A 
HETATM    4  C4  UNL     1      22.334  50.651  44.745  1.00  0.00     0.044 A 
HETATM    5  C3  UNL     1      23.111  51.288  45.671  1.00  0.00     0.016 A 
HETATM    6  C2  UNL     1      23.562  50.603  46.781  1.00  0.00     0.067 A 
HETATM    7 BR1  UNL     1      23.556  53.135  45.398  1.00  0.00    -0.051 Br
HETATM    8  C1  UNL     1      23.232  49.278  46.956  1.00  0.00     0.100 A 
HETATM    9  N8  UNL     1      22.465  48.686  46.022  1.00  0.00    -0.346 N 
ATOM     10  H8  UNL     1      22.222  47.705  46.154  1.00  0.00     0.167 HD
BRANCH   8  11
HETATM   11  N1  UNL     1      23.663  48.649  48.003  1.00  0.00    -0.385 N 
ATOM     12  H12 UNL     1      24.196  47.782  47.939  1.00  0.00     0.157 HD
ATOM     13  H11 UNL     1      23.467  49.027  48.930  1.00  0.00     0.157 HD
ENDBRANCH   8  11
ENDBRANCH   2   3
ENDBRANCH   1   2
BRANCH   1  14
HETATM   14  C8  UNL     1      20.100  46.387  43.589  1.00  0.00     0.233 C 
HETATM   15  O1  UNL     1      19.201  46.870  42.822  1.00  0.00    -0.272 OA
HETATM   16  N2  UNL     1      19.840  45.140  44.252  1.00  0.00    -0.331 N 
BRANCH  16  17
HETATM   17  C9  UNL     1      20.689  44.414  45.107  1.00  0.00     0.068 C 
BRANCH  17  18
HETATM   18  C10 UNL     1      21.766  43.578  44.497  1.00  0.00     0.064 C 
BRANCH  18  19
HETATM   19  C11 UNL     1      23.018  43.465  45.344  1.00  0.00     0.127 C 
BRANCH  19  20
HETATM   20  N3  UNL     1      24.190  43.871  44.555  1.00  0.00    -0.367 N 
HETATM   21  C12 UNL     1      24.675  45.061  44.612  1.00  0.00     0.196 C 
HETATM   22  N4  UNL     1      25.817  45.374  43.813  1.00  0.00    -0.067 NA
HETATM   23  N5  UNL     1      24.160  46.108  45.419  1.00  0.00    -0.067 NA
ATOM     24  H3  UNL     1      24.635  43.187  43.943  1.00  0.00     0.161 HD
ENDBRANCH  19  20
ENDBRANCH  18  19
ENDBRANCH  17  18
ENDBRANCH  16  17
BRANCH  16  25
HETATM   25  C13 UNL     1      18.492  44.592  43.983  1.00  0.00     0.131 C 
BRANCH  25  26
HETATM   26  C14 UNL     1      18.318  44.145  42.569  1.00  0.00     0.025 C 
BRANCH  26  27
HETATM   27  C15 UNL     1      16.918  43.862  42.137  1.00  0.00     0.040 C 
BRANCH  27  28
HETATM   28  C16 UNL     1      16.351  45.015  41.347  1.00  0.00    -0.058 A 
HETATM   29  C17 UNL     1      17.165  45.832  40.597  1.00  0.00     0.007 A 
HETATM   30  C18 UNL     1      16.615  46.879  39.885  1.00  0.00     0.001 A 
HETATM   31  C19 UNL     1      15.258  47.127  39.908  1.00  0.00     0.000 A 
HETATM   32  C20 UNL     1      14.409  46.312  40.662  1.00  0.00     0.001 A 
HETATM   33  C21 UNL     1      14.998  45.280  41.356  1.00  0.00     0.007 A 
ENDBRANCH  27  28
ENDBRANCH  26  27
ENDBRANCH  25  26
ENDBRANCH  16  25
ENDBRANCH   1  14
BRANCH   1  34
HETATM   34  C22 UNL     1      22.298  46.761  42.694  1.00  0.00     0.039 A 
HETATM   35  C23 UNL     1      23.412  47.410  42.240  1.00  0.00     0.114 A 
HETATM   36  N6  UNL     1      24.018  46.673  41.302  1.00  0.00    -0.360 N 
HETATM   37  C24 UNL     1      23.294  45.549  41.151  1.00  0.00     0.180 A 
ATOM     38  H6  UNL     1      24.869  46.917  40.796  1.00  0.00     0.166 HD
HETATM   39  N7  UNL     1      22.248  45.612  42.003  1.00  0.00    -0.354 N 
ATOM     40  H7  UNL     1      21.529  44.894  42.106  1.00  0.00     0.166 HD
ENDBRANCH   1  34
TORSDOF 13
ENDMDL
