MODEL 1
REMARK VINA RESULT: -7.942864397      0.000      0.000
REMARK  13 active torsions:
REMARK  status: ('A' for Active; 'I' for Inactive)
REMARK    1  A    between atoms: O1_2  and  C2_3 
REMARK    2  A    between atoms: C6_10  and  O3_11 
REMARK    3  A    between atoms: C7_13  and  C8_14 
REMARK    4  A    between atoms: C9_15  and  C10_16 
REMARK    5  A    between atoms: C10_16  and  C11_17 
REMARK    6  A    between atoms: C11_17  and  C12_18 
REMARK    7  A    between atoms: C12_18  and  N2_19 
REMARK    8  A    between atoms: C14_21  and  O4_22 
REMARK    9  A    between atoms: C15_24  and  O5_25 
REMARK   10  A    between atoms: C16_27  and  O6_28 
REMARK   11  A    between atoms: C17_30  and  O7_31 
REMARK   12  A    between atoms: O7_31  and  C18_32 
REMARK   13  A    between atoms: C18_32  and  C19_33 
ROOT
HETATM    1  N2  UNL     1     -14.398   0.213 -17.385  1.00  0.00    -0.363 N 
HETATM    2  C13 UNL     1     -13.579  -0.549 -18.177  1.00  0.00     0.159 C 
HETATM    3  C14 UNL     1     -14.342  -1.141 -19.375  1.00  0.00     0.167 C 
HETATM    4  C15 UNL     1     -15.496  -1.953 -18.905  1.00  0.00     0.181 C 
HETATM    5  C16 UNL     1     -15.882  -1.618 -17.476  1.00  0.00     0.198 C 
HETATM    6  C17 UNL     1     -15.788  -0.083 -17.410  1.00  0.00     0.254 C 
ENDROOT
BRANCH   1   7
HETATM    7  C12 UNL     1     -13.985   1.284 -16.607  1.00  0.00     0.061 C 
BRANCH   7   8
HETATM    8  C11 UNL     1     -14.304   2.638 -17.101  1.00  0.00     0.048 C 
BRANCH   8   9
HETATM    9  C10 UNL     1     -13.347   3.399 -17.934  1.00  0.00     0.032 C 
BRANCH   9  10
HETATM   10  C9  UNL     1     -13.454   4.848 -17.928  1.00  0.00    -0.025 C 
HETATM   11  C8  UNL     1     -14.297   5.676 -18.370  1.00  0.00     0.013 C 
BRANCH  11  12
HETATM   12  C7  UNL     1     -15.537   5.747 -19.081  1.00  0.00     0.033 A 
HETATM   13  C2  UNL     1     -15.518   6.148 -20.442  1.00  0.00     0.083 A 
HETATM   14  C3  UNL     1     -16.667   6.142 -21.159  1.00  0.00     0.072 A 
HETATM   15  C4  UNL     1     -17.885   5.763 -20.643  1.00  0.00     0.096 A 
HETATM   16  N1  UNL     1     -19.226   5.537 -20.723  1.00  0.00    -0.258 N 
HETATM   17  C5  UNL     1     -17.920   5.378 -19.352  1.00  0.00     0.161 A 
HETATM   18  O2  UNL     1     -19.209   5.177 -19.482  1.00  0.00    -0.232 OA
ATOM     19  H1  UNL     1     -19.938   5.617 -21.449  1.00  0.00     0.195 HD
HETATM   20  C6  UNL     1     -16.753   5.367 -18.569  1.00  0.00     0.117 A 
BRANCH  13  21
HETATM   21  O1  UNL     1     -14.323   6.539 -21.014  1.00  0.00    -0.355 OA
HETATM   22  C1  UNL     1     -14.095   7.831 -21.510  1.00  0.00     0.210 C 
ENDBRANCH  13  21
BRANCH  20  23
HETATM   23  O3  UNL     1     -16.938   4.937 -17.269  1.00  0.00    -0.357 OA
ATOM     24  H3  UNL     1     -16.171   4.544 -16.870  1.00  0.00     0.217 HD
ENDBRANCH  20  23
ENDBRANCH  11  12
ENDBRANCH   9  10
ENDBRANCH   8   9
ENDBRANCH   7   8
ENDBRANCH   1   7
BRANCH   6  25
HETATM   25  O7  UNL     1     -16.563   0.421 -16.421  1.00  0.00    -0.361 OA
BRANCH  25  26
HETATM   26  C18 UNL     1     -17.849   0.151 -16.258  1.00  0.00     0.202 C 
BRANCH  26  27
HETATM   27  C19 UNL     1     -18.930   1.136 -16.255  1.00  0.00     0.145 C 
HETATM   28  C20 UNL     1     -20.121   0.937 -17.124  1.00  0.00     0.036 C 
HETATM   29  C21 UNL     1     -20.878   2.241 -16.774  1.00  0.00     0.029 C 
HETATM   30  C22 UNL     1     -19.709   3.187 -16.603  1.00  0.00     0.168 C 
HETATM   31  O8  UNL     1     -18.539   2.431 -16.673  1.00  0.00    -0.384 OA
ENDBRANCH  26  27
ENDBRANCH  25  26
ENDBRANCH   6  25
BRANCH   3  32
HETATM   32  O4  UNL     1     -14.736  -0.105 -20.182  1.00  0.00    -0.391 OA
ATOM     33  H4  UNL     1     -14.635  -0.381 -21.085  1.00  0.00     0.210 HD
ENDBRANCH   3  32
BRANCH   5  34
HETATM   34  O6  UNL     1     -15.019  -2.119 -16.528  1.00  0.00    -0.388 OA
ATOM     35  H6  UNL     1     -15.445  -2.621 -15.843  1.00  0.00     0.210 HD
ENDBRANCH   5  34
BRANCH   4  36
HETATM   36  O5  UNL     1     -15.224  -3.293 -19.075  1.00  0.00    -0.390 OA
ATOM     37  H5  UNL     1     -15.541  -3.783 -18.326  1.00  0.00     0.210 HD
ENDBRANCH   4  36
TORSDOF 13
ENDMDL
MODEL 2
REMARK VINA RESULT: -7.902695066      2.218      4.694
REMARK  13 active torsions:
REMARK  status: ('A' for Active; 'I' for Inactive)
REMARK    1  A    between atoms: O1_2  and  C2_3 
REMARK    2  A    between atoms: C6_10  and  O3_11 
REMARK    3  A    between atoms: C7_13  and  C8_14 
REMARK    4  A    between atoms: C9_15  and  C10_16 
REMARK    5  A    between atoms: C10_16  and  C11_17 
REMARK    6  A    between atoms: C11_17  and  C12_18 
REMARK    7  A    between atoms: C12_18  and  N2_19 
REMARK    8  A    between atoms: C14_21  and  O4_22 
REMARK    9  A    between atoms: C15_24  and  O5_25 
REMARK   10  A    between atoms: C16_27  and  O6_28 
REMARK   11  A    between atoms: C17_30  and  O7_31 
REMARK   12  A    between atoms: O7_31  and  C18_32 
REMARK   13  A    between atoms: C18_32  and  C19_33 
ROOT
HETATM    1  N2  UNL     1     -14.343   0.469 -17.700  1.00  0.00    -0.363 N 
HETATM    2  C13 UNL     1     -15.266  -0.390 -18.240  1.00  0.00     0.159 C 
HETATM    3  C14 UNL     1     -15.231  -1.764 -17.549  1.00  0.00     0.167 C 
HETATM    4  C15 UNL     1     -13.870  -2.356 -17.641  1.00  0.00     0.181 C 
HETATM    5  C16 UNL     1     -12.815  -1.311 -17.952  1.00  0.00     0.198 C 
HETATM    6  C17 UNL     1     -13.204  -0.108 -17.073  1.00  0.00     0.254 C 
ENDROOT
BRANCH   1   7
HETATM    7  C12 UNL     1     -14.459   1.851 -17.669  1.00  0.00     0.061 C 
BRANCH   7   8
HETATM    8  C11 UNL     1     -13.966   2.594 -18.845  1.00  0.00     0.048 C 
BRANCH   8   9
HETATM    9  C10 UNL     1     -12.946   3.657 -18.712  1.00  0.00     0.032 C 
BRANCH   9  10
HETATM   10  C9  UNL     1     -13.373   4.934 -18.167  1.00  0.00    -0.025 C 
HETATM   11  C8  UNL     1     -14.384   5.672 -18.325  1.00  0.00     0.013 C 
BRANCH  11  12
HETATM   12  C7  UNL     1     -15.617   5.750 -19.048  1.00  0.00     0.033 A 
HETATM   13  C2  UNL     1     -15.585   6.178 -20.400  1.00  0.00     0.083 A 
HETATM   14  C3  UNL     1     -16.726   6.181 -21.130  1.00  0.00     0.072 A 
HETATM   15  C4  UNL     1     -17.948   5.785 -20.635  1.00  0.00     0.096 A 
HETATM   16  N1  UNL     1     -19.287   5.553 -20.734  1.00  0.00    -0.258 N 
HETATM   17  C5  UNL     1     -17.995   5.374 -19.352  1.00  0.00     0.161 A 
HETATM   18  O2  UNL     1     -19.281   5.169 -19.501  1.00  0.00    -0.232 OA
ATOM     19  H1  UNL     1     -19.991   5.644 -21.467  1.00  0.00     0.195 HD
HETATM   20  C6  UNL     1     -16.836   5.353 -18.557  1.00  0.00     0.117 A 
BRANCH  13  21
HETATM   21  O1  UNL     1     -14.386   6.587 -20.951  1.00  0.00    -0.355 OA
HETATM   22  C1  UNL     1     -14.214   7.827 -21.584  1.00  0.00     0.210 C 
ENDBRANCH  13  21
BRANCH  20  23
HETATM   23  O3  UNL     1     -17.033   4.897 -17.268  1.00  0.00    -0.357 OA
ATOM     24  H3  UNL     1     -16.633   4.055 -17.082  1.00  0.00     0.217 HD
ENDBRANCH  20  23
ENDBRANCH  11  12
ENDBRANCH   9  10
ENDBRANCH   8   9
ENDBRANCH   7   8
ENDBRANCH   1   7
BRANCH   6  25
HETATM   25  O7  UNL     1     -12.141   0.691 -16.824  1.00  0.00    -0.361 OA
BRANCH  25  26
HETATM   26  C18 UNL     1     -10.875   0.332 -16.973  1.00  0.00     0.202 C 
BRANCH  26  27
HETATM   27  C19 UNL     1      -9.783   1.220 -17.369  1.00  0.00     0.145 C 
HETATM   28  C20 UNL     1      -9.904   2.688 -17.161  1.00  0.00     0.036 C 
HETATM   29  C21 UNL     1      -8.551   3.117 -17.778  1.00  0.00     0.029 C 
HETATM   30  C22 UNL     1      -8.441   2.108 -18.901  1.00  0.00     0.168 C 
HETATM   31  O8  UNL     1      -9.486   1.196 -18.753  1.00  0.00    -0.384 OA
ENDBRANCH  26  27
ENDBRANCH  25  26
ENDBRANCH   6  25
BRANCH   3  32
HETATM   32  O4  UNL     1     -15.633  -1.597 -16.249  1.00  0.00    -0.391 OA
ATOM     33  H4  UNL     1     -14.919  -1.195 -15.770  1.00  0.00     0.210 HD
ENDBRANCH   3  32
BRANCH   5  34
HETATM   34  O6  UNL     1     -12.820  -0.878 -19.258  1.00  0.00    -0.388 OA
ATOM     35  H6  UNL     1     -12.856   0.066 -19.355  1.00  0.00     0.210 HD
ENDBRANCH   5  34
BRANCH   4  36
HETATM   36  O5  UNL     1     -13.872  -3.389 -18.553  1.00  0.00    -0.390 OA
ATOM     37  H5  UNL     1     -13.120  -3.950 -18.404  1.00  0.00     0.210 HD
ENDBRANCH   4  36
TORSDOF 13
ENDMDL
MODEL 3
REMARK VINA RESULT: -7.873086479      2.211      4.816
REMARK  13 active torsions:
REMARK  status: ('A' for Active; 'I' for Inactive)
REMARK    1  A    between atoms: O1_2  and  C2_3 
REMARK    2  A    between atoms: C6_10  and  O3_11 
REMARK    3  A    between atoms: C7_13  and  C8_14 
REMARK    4  A    between atoms: C9_15  and  C10_16 
REMARK    5  A    between atoms: C10_16  and  C11_17 
REMARK    6  A    between atoms: C11_17  and  C12_18 
REMARK    7  A    between atoms: C12_18  and  N2_19 
REMARK    8  A    between atoms: C14_21  and  O4_22 
REMARK    9  A    between atoms: C15_24  and  O5_25 
REMARK   10  A    between atoms: C16_27  and  O6_28 
REMARK   11  A    between atoms: C17_30  and  O7_31 
REMARK   12  A    between atoms: O7_31  and  C18_32 
REMARK   13  A    between atoms: C18_32  and  C19_33 
ROOT
HETATM    1  N2  UNL     1     -14.416   0.188 -17.558  1.00  0.00    -0.363 N 
HETATM    2  C13 UNL     1     -15.498  -0.422 -18.139  1.00  0.00     0.159 C 
HETATM    3  C14 UNL     1     -15.655  -1.875 -17.655  1.00  0.00     0.167 C 
HETATM    4  C15 UNL     1     -14.419  -2.651 -17.937  1.00  0.00     0.181 C 
HETATM    5  C16 UNL     1     -13.223  -1.749 -18.179  1.00  0.00     0.198 C 
HETATM    6  C17 UNL     1     -13.358  -0.649 -17.111  1.00  0.00     0.254 C 
ENDROOT
BRANCH   1   7
HETATM    7  C12 UNL     1     -14.299   1.550 -17.322  1.00  0.00     0.061 C 
BRANCH   7   8
HETATM    8  C11 UNL     1     -14.008   2.411 -18.486  1.00  0.00     0.048 C 
BRANCH   8   9
HETATM    9  C10 UNL     1     -12.968   3.461 -18.425  1.00  0.00     0.032 C 
BRANCH   9  10
HETATM   10  C9  UNL     1     -13.359   4.767 -17.924  1.00  0.00    -0.025 C 
HETATM   11  C8  UNL     1     -14.331   5.543 -18.135  1.00  0.00     0.013 C 
BRANCH  11  12
HETATM   12  C7  UNL     1     -15.532   5.657 -18.905  1.00  0.00     0.033 A 
HETATM   13  C2  UNL     1     -15.459   6.242 -20.195  1.00  0.00     0.083 A 
HETATM   14  C3  UNL     1     -16.565   6.285 -20.976  1.00  0.00     0.072 A 
HETATM   15  C4  UNL     1     -17.788   5.785 -20.592  1.00  0.00     0.096 A 
HETATM   16  N1  UNL     1     -19.110   5.513 -20.784  1.00  0.00    -0.258 N 
HETATM   17  C5  UNL     1     -17.874   5.224 -19.369  1.00  0.00     0.161 A 
HETATM   18  O2  UNL     1     -19.142   4.986 -19.605  1.00  0.00    -0.232 OA
ATOM     19  H1  UNL     1     -19.784   5.661 -21.535  1.00  0.00     0.195 HD
HETATM   20  C6  UNL     1     -16.752   5.156 -18.524  1.00  0.00     0.117 A 
BRANCH  13  21
HETATM   21  O1  UNL     1     -14.256   6.760 -20.634  1.00  0.00    -0.355 OA
HETATM   22  C1  UNL     1     -14.162   7.899 -21.450  1.00  0.00     0.210 C 
ENDBRANCH  13  21
BRANCH  20  23
HETATM   23  O3  UNL     1     -16.986   4.544 -17.309  1.00  0.00    -0.357 OA
ATOM     24  H3  UNL     1     -16.512   4.923 -16.578  1.00  0.00     0.217 HD
ENDBRANCH  20  23
ENDBRANCH  11  12
ENDBRANCH   9  10
ENDBRANCH   8   9
ENDBRANCH   7   8
ENDBRANCH   1   7
BRANCH   6  25
HETATM   25  O7  UNL     1     -12.164  -0.073 -16.837  1.00  0.00    -0.361 OA
BRANCH  25  26
HETATM   26  C18 UNL     1     -11.015  -0.725 -16.744  1.00  0.00     0.202 C 
BRANCH  26  27
HETATM   27  C19 UNL     1      -9.817  -0.448 -17.535  1.00  0.00     0.145 C 
HETATM   28  C20 UNL     1      -9.749   0.775 -18.381  1.00  0.00     0.036 C 
HETATM   29  C21 UNL     1      -8.351   0.545 -19.003  1.00  0.00     0.029 C 
HETATM   30  C22 UNL     1      -8.368  -0.962 -19.139  1.00  0.00     0.168 C 
HETATM   31  O8  UNL     1      -9.521  -1.431 -18.510  1.00  0.00    -0.384 OA
ENDBRANCH  26  27
ENDBRANCH  25  26
ENDBRANCH   6  25
BRANCH   3  32
HETATM   32  O4  UNL     1     -15.951  -1.847 -16.317  1.00  0.00    -0.391 OA
ATOM     33  H4  UNL     1     -16.449  -2.629 -16.109  1.00  0.00     0.210 HD
ENDBRANCH   3  32
BRANCH   5  34
HETATM   34  O6  UNL     1     -13.228  -1.127 -19.407  1.00  0.00    -0.388 OA
ATOM     35  H6  UNL     1     -13.062  -0.193 -19.369  1.00  0.00     0.210 HD
ENDBRANCH   5  34
BRANCH   4  36
HETATM   36  O5  UNL     1     -14.643  -3.520 -18.984  1.00  0.00    -0.390 OA
ATOM     37  H5  UNL     1     -15.339  -4.124 -18.756  1.00  0.00     0.210 HD
ENDBRANCH   4  36
TORSDOF 13
ENDMDL
MODEL 4
REMARK VINA RESULT: -7.803665328      2.722      4.282
REMARK  13 active torsions:
REMARK  status: ('A' for Active; 'I' for Inactive)
REMARK    1  A    between atoms: O1_2  and  C2_3 
REMARK    2  A    between atoms: C6_10  and  O3_11 
REMARK    3  A    between atoms: C7_13  and  C8_14 
REMARK    4  A    between atoms: C9_15  and  C10_16 
REMARK    5  A    between atoms: C10_16  and  C11_17 
REMARK    6  A    between atoms: C11_17  and  C12_18 
REMARK    7  A    between atoms: C12_18  and  N2_19 
REMARK    8  A    between atoms: C14_21  and  O4_22 
REMARK    9  A    between atoms: C15_24  and  O5_25 
REMARK   10  A    between atoms: C16_27  and  O6_28 
REMARK   11  A    between atoms: C17_30  and  O7_31 
REMARK   12  A    between atoms: O7_31  and  C18_32 
REMARK   13  A    between atoms: C18_32  and  C19_33 
ROOT
HETATM    1  N2  UNL     1     -11.107   0.245 -17.185  1.00  0.00    -0.363 N 
HETATM    2  C13 UNL     1      -9.745   0.134 -17.072  1.00  0.00     0.159 C 
HETATM    3  C14 UNL     1      -9.203  -1.040 -17.906  1.00  0.00     0.167 C 
HETATM    4  C15 UNL     1      -9.853  -2.312 -17.495  1.00  0.00     0.181 C 
HETATM    5  C16 UNL     1     -11.147  -2.070 -16.740  1.00  0.00     0.198 C 
HETATM    6  C17 UNL     1     -11.832  -0.932 -17.517  1.00  0.00     0.254 C 
ENDROOT
BRANCH   1   7
HETATM    7  C12 UNL     1     -11.826   1.424 -17.056  1.00  0.00     0.061 C 
BRANCH   7   8
HETATM    8  C11 UNL     1     -11.078   2.688 -17.209  1.00  0.00     0.048 C 
BRANCH   8   9
HETATM    9  C10 UNL     1     -11.764   3.950 -17.563  1.00  0.00     0.032 C 
BRANCH   9  10
HETATM   10  C9  UNL     1     -12.025   4.202 -18.970  1.00  0.00    -0.025 C 
HETATM   11  C8  UNL     1     -12.983   4.707 -19.617  1.00  0.00     0.013 C 
BRANCH  11  12
HETATM   12  C7  UNL     1     -14.282   5.282 -19.437  1.00  0.00     0.033 A 
HETATM   13  C2  UNL     1     -14.624   6.435 -20.189  1.00  0.00     0.083 A 
HETATM   14  C3  UNL     1     -15.874   6.948 -20.099  1.00  0.00     0.072 A 
HETATM   15  C4  UNL     1     -16.862   6.411 -19.306  1.00  0.00     0.096 A 
HETATM   16  N1  UNL     1     -18.121   6.370 -18.785  1.00  0.00    -0.258 N 
HETATM   17  C5  UNL     1     -16.553   5.315 -18.585  1.00  0.00     0.161 A 
HETATM   18  O2  UNL     1     -17.777   5.321 -18.114  1.00  0.00    -0.232 OA
ATOM     19  H1  UNL     1     -18.970   6.928 -18.883  1.00  0.00     0.195 HD
HETATM   20  C6  UNL     1     -15.269   4.747 -18.648  1.00  0.00     0.117 A 
BRANCH  13  21
HETATM   21  O1  UNL     1     -13.672   7.017 -21.004  1.00  0.00    -0.355 OA
HETATM   22  C1  UNL     1     -13.893   8.206 -21.715  1.00  0.00     0.210 C 
ENDBRANCH  13  21
BRANCH  20  23
HETATM   23  O3  UNL     1     -15.102   3.620 -17.867  1.00  0.00    -0.357 OA
ATOM     24  H3  UNL     1     -14.977   3.796 -16.941  1.00  0.00     0.217 HD
ENDBRANCH  20  23
ENDBRANCH  11  12
ENDBRANCH   9  10
ENDBRANCH   8   9
ENDBRANCH   7   8
ENDBRANCH   1   7
BRANCH   6  25
HETATM   25  O7  UNL     1     -13.171  -0.931 -17.322  1.00  0.00    -0.361 OA
BRANCH  25  26
HETATM   26  C18 UNL     1     -14.075  -0.990 -18.288  1.00  0.00     0.202 C 
BRANCH  26  27
HETATM   27  C19 UNL     1     -13.859  -0.588 -19.677  1.00  0.00     0.145 C 
HETATM   28  C20 UNL     1     -13.884   0.853 -20.047  1.00  0.00     0.036 C 
HETATM   29  C21 UNL     1     -13.662   0.700 -21.571  1.00  0.00     0.029 C 
HETATM   30  C22 UNL     1     -14.433  -0.578 -21.823  1.00  0.00     0.168 C 
HETATM   31  O8  UNL     1     -14.824  -1.087 -20.585  1.00  0.00    -0.384 OA
ENDBRANCH  26  27
ENDBRANCH  25  26
ENDBRANCH   6  25
BRANCH   3  32
HETATM   32  O4  UNL     1      -9.418  -0.756 -19.230  1.00  0.00    -0.391 OA
ATOM     33  H4  UNL     1      -8.573  -0.705 -19.661  1.00  0.00     0.210 HD
ENDBRANCH   3  32
BRANCH   5  34
HETATM   34  O6  UNL     1     -10.970  -1.632 -15.447  1.00  0.00    -0.388 OA
ATOM     35  H6  UNL     1     -11.780  -1.477 -14.976  1.00  0.00     0.210 HD
ENDBRANCH   5  34
BRANCH   4  36
HETATM   36  O5  UNL     1      -8.962  -3.081 -16.779  1.00  0.00    -0.390 OA
ATOM     37  H5  UNL     1      -8.648  -2.593 -16.028  1.00  0.00     0.210 HD
ENDBRANCH   4  36
TORSDOF 13
ENDMDL
MODEL 5
REMARK VINA RESULT: -7.732168287      2.205      7.182
REMARK  13 active torsions:
REMARK  status: ('A' for Active; 'I' for Inactive)
REMARK    1  A    between atoms: O1_2  and  C2_3 
REMARK    2  A    between atoms: C6_10  and  O3_11 
REMARK    3  A    between atoms: C7_13  and  C8_14 
REMARK    4  A    between atoms: C9_15  and  C10_16 
REMARK    5  A    between atoms: C10_16  and  C11_17 
REMARK    6  A    between atoms: C11_17  and  C12_18 
REMARK    7  A    between atoms: C12_18  and  N2_19 
REMARK    8  A    between atoms: C14_21  and  O4_22 
REMARK    9  A    between atoms: C15_24  and  O5_25 
REMARK   10  A    between atoms: C16_27  and  O6_28 
REMARK   11  A    between atoms: C17_30  and  O7_31 
REMARK   12  A    between atoms: O7_31  and  C18_32 
REMARK   13  A    between atoms: C18_32  and  C19_33 
ROOT
HETATM    1  N2  UNL     1     -17.331   4.987 -18.256  1.00  0.00    -0.363 N 
HETATM    2  C13 UNL     1     -16.857   5.399 -19.475  1.00  0.00     0.159 C 
HETATM    3  C14 UNL     1     -17.379   6.800 -19.841  1.00  0.00     0.167 C 
HETATM    4  C15 UNL     1     -18.866   6.815 -19.841  1.00  0.00     0.181 C 
HETATM    5  C16 UNL     1     -19.446   5.648 -19.064  1.00  0.00     0.198 C 
HETATM    6  C17 UNL     1     -18.558   5.550 -17.810  1.00  0.00     0.254 C 
ENDROOT
BRANCH   1   7
HETATM    7  C12 UNL     1     -16.681   4.108 -17.402  1.00  0.00     0.061 C 
BRANCH   7   8
HETATM    8  C11 UNL     1     -15.268   3.800 -17.702  1.00  0.00     0.048 C 
BRANCH   8   9
HETATM    9  C10 UNL     1     -14.770   2.408 -17.709  1.00  0.00     0.032 C 
BRANCH   9  10
HETATM   10  C9  UNL     1     -15.005   1.602 -16.523  1.00  0.00    -0.025 C 
HETATM   11  C8  UNL     1     -14.977   0.367 -16.270  1.00  0.00     0.013 C 
BRANCH  11  12
HETATM   12  C7  UNL     1     -14.738  -0.902 -16.888  1.00  0.00     0.033 A 
HETATM   13  C2  UNL     1     -13.444  -1.174 -17.403  1.00  0.00     0.083 A 
HETATM   14  C3  UNL     1     -13.170  -2.397 -17.917  1.00  0.00     0.072 A 
HETATM   15  C4  UNL     1     -14.088  -3.421 -17.975  1.00  0.00     0.096 A 
HETATM   16  N1  UNL     1     -14.485  -4.687 -18.288  1.00  0.00    -0.258 N 
HETATM   17  C5  UNL     1     -15.322  -3.179 -17.490  1.00  0.00     0.161 A 
HETATM   18  O2  UNL     1     -15.652  -4.406 -17.812  1.00  0.00    -0.232 OA
ATOM     19  H1  UNL     1     -14.048  -5.504 -18.715  1.00  0.00     0.195 HD
HETATM   20  C6  UNL     1     -15.651  -1.925 -16.946  1.00  0.00     0.117 A 
BRANCH  13  21
HETATM   21  O1  UNL     1     -12.482  -0.184 -17.370  1.00  0.00    -0.355 OA
HETATM   22  C1  UNL     1     -11.497  -0.035 -18.359  1.00  0.00     0.210 C 
ENDBRANCH  13  21
BRANCH  20  23
HETATM   23  O3  UNL     1     -16.946  -1.827 -16.476  1.00  0.00    -0.357 OA
ATOM     24  H3  UNL     1     -17.016  -1.578 -15.561  1.00  0.00     0.217 HD
ENDBRANCH  20  23
ENDBRANCH  11  12
ENDBRANCH   9  10
ENDBRANCH   8   9
ENDBRANCH   7   8
ENDBRANCH   1   7
BRANCH   6  25
HETATM   25  O7  UNL     1     -19.203   4.939 -16.789  1.00  0.00    -0.361 OA
BRANCH  25  26
HETATM   26  C18 UNL     1     -20.400   4.380 -16.880  1.00  0.00     0.202 C 
BRANCH  26  27
HETATM   27  C19 UNL     1     -20.675   2.946 -16.796  1.00  0.00     0.145 C 
HETATM   28  C20 UNL     1     -21.526   2.291 -17.825  1.00  0.00     0.036 C 
HETATM   29  C21 UNL     1     -21.524   0.857 -17.243  1.00  0.00     0.029 C 
HETATM   30  C22 UNL     1     -21.527   1.173 -15.763  1.00  0.00     0.168 C 
HETATM   31  O8  UNL     1     -21.366   2.552 -15.625  1.00  0.00    -0.384 OA
ENDBRANCH  26  27
ENDBRANCH  25  26
ENDBRANCH   6  25
BRANCH   3  32
HETATM   32  O4  UNL     1     -16.855   7.696 -18.945  1.00  0.00    -0.391 OA
ATOM     33  H4  UNL     1     -16.246   7.229 -18.384  1.00  0.00     0.210 HD
ENDBRANCH   3  32
BRANCH   5  34
HETATM   34  O6  UNL     1     -19.362   4.440 -19.717  1.00  0.00    -0.388 OA
ATOM     35  H6  UNL     1     -19.673   4.462 -20.615  1.00  0.00     0.210 HD
ENDBRANCH   5  34
BRANCH   4  36
HETATM   36  O5  UNL     1     -19.331   6.867 -21.137  1.00  0.00    -0.390 OA
ATOM     37  H5  UNL     1     -20.235   7.157 -21.142  1.00  0.00     0.210 HD
ENDBRANCH   4  36
TORSDOF 13
ENDMDL
