MODEL 1
REMARK VINA RESULT: -4.978959031      0.000      0.000
REMARK  3 active torsions:
REMARK  status: ('A' for Active; 'I' for Inactive)
REMARK    1  A    between atoms: N2_4  and  C1_6 
REMARK    2  A    between atoms: C1_6  and  C2_7 
REMARK    3  A    between atoms: C4_12  and  C5_13 
ROOT
HETATM    1  C2  UNL     1      43.694  73.187  15.633  1.00  0.00     0.215 C 
HETATM    2  N3  UNL     1      45.088  72.970  15.295  1.00  0.00    -0.068 N 
ATOM      3  H31 UNL     1      45.387  72.908  14.321  1.00  0.00     0.277 HD
ATOM      4  H32 UNL     1      45.535  72.070  15.470  1.00  0.00     0.277 HD
HETATM    5  C3  UNL     1      45.408  74.117  16.090  1.00  0.00     0.244 C 
HETATM    6  C4  UNL     1      44.161  73.815  16.920  1.00  0.00     0.081 C 
ENDROOT
BRANCH   1   7
HETATM    7  C1  UNL     1      43.024  74.147  14.710  1.00  0.00     0.172 C 
BRANCH   7   8
HETATM    8  N2  UNL     1      41.970  73.543  13.942  1.00  0.00    -0.341 N 
HETATM    9  N1  UNL     1      41.846  72.294  13.846  1.00  0.00    -0.349 N 
ATOM     10  H12 UNL     1      42.523  71.707  14.334  1.00  0.00     0.176 HD
ATOM     11  H11 UNL     1      41.099  71.865  13.301  1.00  0.00     0.176 HD
ATOM     12  H2  UNL     1      41.301  74.144  13.461  1.00  0.00     0.179 HD
ENDBRANCH   7   8
ENDBRANCH   1   7
BRANCH   6  13
HETATM   13  C5  UNL     1      44.527  72.889  17.996  1.00  0.00     0.061 C 
HETATM   14  N4  UNL     1      44.194  73.185  19.193  1.00  0.00    -0.411 N 
ATOM     15  H42 UNL     1      43.686  74.049  19.378  1.00  0.00     0.155 HD
ATOM     16  H41 UNL     1      44.449  72.541  19.942  1.00  0.00     0.155 HD
ENDBRANCH   6  13
TORSDOF 3
ENDMDL
MODEL 2
REMARK VINA RESULT: -4.851603560      1.468      2.015
REMARK  3 active torsions:
REMARK  status: ('A' for Active; 'I' for Inactive)
REMARK    1  A    between atoms: N2_4  and  C1_6 
REMARK    2  A    between atoms: C1_6  and  C2_7 
REMARK    3  A    between atoms: C4_12  and  C5_13 
ROOT
HETATM    1  C2  UNL     1      44.274  73.423  15.393  1.00  0.00     0.215 C 
HETATM    2  N3  UNL     1      44.482  74.350  16.489  1.00  0.00    -0.068 N 
ATOM      3  H31 UNL     1      44.093  75.293  16.459  1.00  0.00     0.277 HD
ATOM      4  H32 UNL     1      45.401  74.754  16.666  1.00  0.00     0.277 HD
HETATM    5  C3  UNL     1      43.935  73.358  17.365  1.00  0.00     0.244 C 
HETATM    6  C4  UNL     1      44.436  72.301  16.383  1.00  0.00     0.081 C 
ENDROOT
BRANCH   1   7
HETATM    7  C1  UNL     1      42.903  73.517  14.817  1.00  0.00     0.172 C 
BRANCH   7   8
HETATM    8  N2  UNL     1      42.402  72.251  14.354  1.00  0.00    -0.341 N 
HETATM    9  N1  UNL     1      41.256  72.132  13.848  1.00  0.00    -0.349 N 
ATOM     10  H12 UNL     1      40.678  72.968  13.771  1.00  0.00     0.176 HD
ATOM     11  H11 UNL     1      40.901  71.234  13.521  1.00  0.00     0.176 HD
ATOM     12  H2  UNL     1      42.993  71.424  14.439  1.00  0.00     0.179 HD
ENDBRANCH   7   8
ENDBRANCH   1   7
BRANCH   6  13
HETATM   13  C5  UNL     1      45.813  71.945  16.739  1.00  0.00     0.061 C 
HETATM   14  N4  UNL     1      46.307  70.869  16.261  1.00  0.00    -0.411 N 
ATOM     15  H42 UNL     1      45.743  70.282  15.647  1.00  0.00     0.155 HD
ATOM     16  H41 UNL     1      47.265  70.621  16.508  1.00  0.00     0.155 HD
ENDBRANCH   6  13
TORSDOF 3
ENDMDL
MODEL 3
REMARK VINA RESULT: -4.805927941      2.369      4.216
REMARK  3 active torsions:
REMARK  status: ('A' for Active; 'I' for Inactive)
REMARK    1  A    between atoms: N2_4  and  C1_6 
REMARK    2  A    between atoms: C1_6  and  C2_7 
REMARK    3  A    between atoms: C4_12  and  C5_13 
ROOT
HETATM    1  C2  UNL     1      44.970  74.877  14.685  1.00  0.00     0.215 C 
HETATM    2  N3  UNL     1      45.735  73.646  14.748  1.00  0.00    -0.068 N 
ATOM      3  H31 UNL     1      46.755  73.662  14.745  1.00  0.00     0.277 HD
ATOM      4  H32 UNL     1      45.761  73.005  13.955  1.00  0.00     0.277 HD
HETATM    5  C3  UNL     1      45.009  73.314  15.936  1.00  0.00     0.244 C 
HETATM    6  C4  UNL     1      43.855  74.156  15.394  1.00  0.00     0.081 C 
ENDROOT
BRANCH   1   7
HETATM    7  C1  UNL     1      45.581  75.971  15.492  1.00  0.00     0.172 C 
BRANCH   7   8
HETATM    8  N2  UNL     1      46.905  76.320  15.052  1.00  0.00    -0.341 N 
HETATM    9  N1  UNL     1      47.384  77.469  15.229  1.00  0.00    -0.349 N 
ATOM     10  H12 UNL     1      46.804  78.164  15.699  1.00  0.00     0.176 HD
ATOM     11  H11 UNL     1      48.323  77.717  14.916  1.00  0.00     0.176 HD
ATOM     12  H2  UNL     1      47.472  75.614  14.583  1.00  0.00     0.179 HD
ENDBRANCH   7   8
ENDBRANCH   1   7
BRANCH   6  13
HETATM   13  C5  UNL     1      43.003  73.302  14.560  1.00  0.00     0.061 C 
HETATM   14  N4  UNL     1      42.013  73.835  13.956  1.00  0.00    -0.411 N 
ATOM     15  H42 UNL     1      41.833  74.834  14.061  1.00  0.00     0.155 HD
ATOM     16  H41 UNL     1      41.420  73.242  13.375  1.00  0.00     0.155 HD
ENDBRANCH   6  13
TORSDOF 3
ENDMDL
MODEL 4
REMARK VINA RESULT: -4.799207375      2.209      2.437
REMARK  3 active torsions:
REMARK  status: ('A' for Active; 'I' for Inactive)
REMARK    1  A    between atoms: N2_4  and  C1_6 
REMARK    2  A    between atoms: C1_6  and  C2_7 
REMARK    3  A    between atoms: C4_12  and  C5_13 
ROOT
HETATM    1  C2  UNL     1      44.138  73.995  14.269  1.00  0.00     0.215 C 
HETATM    2  N3  UNL     1      44.402  75.416  14.388  1.00  0.00    -0.068 N 
ATOM      3  H31 UNL     1      43.709  76.104  14.093  1.00  0.00     0.277 HD
ATOM      4  H32 UNL     1      45.085  75.874  13.784  1.00  0.00     0.277 HD
HETATM    5  C3  UNL     1      44.677  75.199  15.776  1.00  0.00     0.244 C 
HETATM    6  C4  UNL     1      45.099  73.777  15.408  1.00  0.00     0.081 C 
ENDROOT
BRANCH   1   7
HETATM    7  C1  UNL     1      42.728  73.646  14.605  1.00  0.00     0.172 C 
BRANCH   7   8
HETATM    8  N2  UNL     1      42.391  72.290  14.264  1.00  0.00    -0.341 N 
HETATM    9  N1  UNL     1      41.252  71.974  13.834  1.00  0.00    -0.349 N 
ATOM     10  H12 UNL     1      40.557  72.713  13.729  1.00  0.00     0.176 HD
ATOM     11  H11 UNL     1      41.013  71.012  13.593  1.00  0.00     0.176 HD
ATOM     12  H2  UNL     1      43.097  71.562  14.375  1.00  0.00     0.179 HD
ENDBRANCH   7   8
ENDBRANCH   1   7
BRANCH   6  13
HETATM   13  C5  UNL     1      46.523  73.785  15.063  1.00  0.00     0.061 C 
HETATM   14  N4  UNL     1      47.288  72.924  15.613  1.00  0.00    -0.411 N 
ATOM     15  H42 UNL     1      46.900  72.252  16.276  1.00  0.00     0.155 HD
ATOM     16  H41 UNL     1      48.279  72.928  15.374  1.00  0.00     0.155 HD
ENDBRANCH   6  13
TORSDOF 3
ENDMDL
MODEL 5
REMARK VINA RESULT: -4.741165726      2.132      2.465
REMARK  3 active torsions:
REMARK  status: ('A' for Active; 'I' for Inactive)
REMARK    1  A    between atoms: N2_4  and  C1_6 
REMARK    2  A    between atoms: C1_6  and  C2_7 
REMARK    3  A    between atoms: C4_12  and  C5_13 
ROOT
HETATM    1  C2  UNL     1      43.345  73.926  15.069  1.00  0.00     0.215 C 
HETATM    2  N3  UNL     1      44.653  73.314  14.932  1.00  0.00    -0.068 N 
ATOM      3  H31 UNL     1      44.749  72.344  14.630  1.00  0.00     0.277 HD
ATOM      4  H32 UNL     1      45.217  73.094  15.753  1.00  0.00     0.277 HD
HETATM    5  C3  UNL     1      45.012  74.393  14.063  1.00  0.00     0.244 C 
HETATM    6  C4  UNL     1      44.003  75.257  14.816  1.00  0.00     0.081 C 
ENDROOT
BRANCH   1   7
HETATM    7  C1  UNL     1      42.405  73.511  13.989  1.00  0.00     0.172 C 
BRANCH   7   8
HETATM    8  N2  UNL     1      41.920  72.168  14.155  1.00  0.00    -0.341 N 
HETATM    9  N1  UNL     1      40.920  71.737  13.525  1.00  0.00    -0.349 N 
ATOM     10  H12 UNL     1      40.450  72.373  12.880  1.00  0.00     0.176 HD
ATOM     11  H11 UNL     1      40.575  70.785  13.642  1.00  0.00     0.176 HD
ATOM     12  H2  UNL     1      42.401  71.545  14.804  1.00  0.00     0.179 HD
ENDBRANCH   7   8
ENDBRANCH   1   7
BRANCH   6  13
HETATM   13  C5  UNL     1      44.676  75.874  15.962  1.00  0.00     0.061 C 
HETATM   14  N4  UNL     1      44.516  77.125  16.161  1.00  0.00    -0.411 N 
ATOM     15  H42 UNL     1      43.930  77.668  15.528  1.00  0.00     0.155 HD
ATOM     16  H41 UNL     1      44.985  77.555  16.959  1.00  0.00     0.155 HD
ENDBRANCH   6  13
TORSDOF 3
ENDMDL
