MODEL 1
REMARK VINA RESULT: -5.174375033      0.000      0.000
REMARK  4 active torsions:
REMARK  status: ('A' for Active; 'I' for Inactive)
REMARK    1  A    between atoms: N2_4  and  N3_6 
REMARK    2  A    between atoms: N3_6  and  C1_8 
REMARK    3  A    between atoms: C3_10  and  C4_11 
REMARK    4  A    between atoms: C4_11  and  N4_12 
ROOT
HETATM    1  C1  UNL     1      42.754  73.533  14.620  1.00  0.00     0.135 A 
HETATM    2  C2  UNL     1      44.117  74.010  14.250  1.00  0.00     0.069 A 
HETATM    3  C3  UNL     1      43.822  73.605  15.598  1.00  0.00    -0.038 A 
ENDROOT
BRANCH   1   4
HETATM    4  N3  UNL     1      42.325  72.271  14.056  1.00  0.00    -0.313 N 
ATOM      5  H3  UNL     1      42.997  71.596  13.691  1.00  0.00     0.182 HD
BRANCH   4   6
HETATM    6  N2  UNL     1      40.953  72.016  14.032  1.00  0.00    -0.253 N 
HETATM    7  N1  UNL     1      40.424  71.556  12.959  1.00  0.00    -0.331 N 
ATOM      8  H12 UNL     1      41.011  71.384  12.143  1.00  0.00     0.178 HD
ATOM      9  H11 UNL     1      39.421  71.370  12.941  1.00  0.00     0.178 HD
ATOM     10  H2  UNL     1      40.380  72.194  14.856  1.00  0.00     0.207 HD
ENDBRANCH   4   6
ENDBRANCH   1   4
BRANCH   3  11
HETATM   11  C4  UNL     1      44.447  73.477  16.888  1.00  0.00     0.085 C 
BRANCH  11  12
HETATM   12  N4  UNL     1      43.787  73.463  17.990  1.00  0.00    -0.408 N 
ATOM     13  H42 UNL     1      43.266  72.615  18.214  1.00  0.00     0.155 HD
ATOM     14  H41 UNL     1      43.766  74.251  18.638  1.00  0.00     0.155 HD
ENDBRANCH  11  12
ENDBRANCH   3  11
TORSDOF 4
ENDMDL
MODEL 2
REMARK VINA RESULT: -4.934177422      1.291      1.291
REMARK  4 active torsions:
REMARK  status: ('A' for Active; 'I' for Inactive)
REMARK    1  A    between atoms: N2_4  and  N3_6 
REMARK    2  A    between atoms: N3_6  and  C1_8 
REMARK    3  A    between atoms: C3_10  and  C4_11 
REMARK    4  A    between atoms: C4_11  and  N4_12 
ROOT
HETATM    1  C1  UNL     1      42.926  74.071  14.760  1.00  0.00     0.135 A 
HETATM    2  C2  UNL     1      44.383  74.094  14.446  1.00  0.00     0.069 A 
HETATM    3  C3  UNL     1      43.874  73.266  15.506  1.00  0.00    -0.038 A 
ENDROOT
BRANCH   1   4
HETATM    4  N3  UNL     1      42.050  73.486  13.766  1.00  0.00    -0.313 N 
ATOM      5  H3  UNL     1      41.839  73.970  12.893  1.00  0.00     0.182 HD
BRANCH   4   6
HETATM    6  N2  UNL     1      41.506  72.234  14.053  1.00  0.00    -0.253 N 
HETATM    7  N1  UNL     1      40.685  71.707  13.222  1.00  0.00    -0.331 N 
ATOM      8  H12 UNL     1      40.443  72.209  12.368  1.00  0.00     0.178 HD
ATOM      9  H11 UNL     1      40.288  70.791  13.431  1.00  0.00     0.178 HD
ATOM     10  H2  UNL     1      41.759  71.745  14.911  1.00  0.00     0.207 HD
ENDBRANCH   4   6
ENDBRANCH   1   4
BRANCH   3  11
HETATM   11  C4  UNL     1      44.318  72.329  16.504  1.00  0.00     0.085 C 
BRANCH  11  12
HETATM   12  N4  UNL     1      44.460  71.072  16.275  1.00  0.00    -0.408 N 
ATOM     13  H42 UNL     1      44.374  70.759  15.308  1.00  0.00     0.155 HD
ATOM     14  H41 UNL     1      44.653  70.389  17.008  1.00  0.00     0.155 HD
ENDBRANCH  11  12
ENDBRANCH   3  11
TORSDOF 4
ENDMDL
MODEL 3
REMARK VINA RESULT: -4.887997550      1.964      2.177
REMARK  4 active torsions:
REMARK  status: ('A' for Active; 'I' for Inactive)
REMARK    1  A    between atoms: N2_4  and  N3_6 
REMARK    2  A    between atoms: N3_6  and  C1_8 
REMARK    3  A    between atoms: C3_10  and  C4_11 
REMARK    4  A    between atoms: C4_11  and  N4_12 
ROOT
HETATM    1  C1  UNL     1      43.226  73.978  15.039  1.00  0.00     0.135 A 
HETATM    2  C2  UNL     1      43.721  75.383  14.982  1.00  0.00     0.069 A 
HETATM    3  C3  UNL     1      44.615  74.280  14.752  1.00  0.00    -0.038 A 
ENDROOT
BRANCH   1   4
HETATM    4  N3  UNL     1      42.309  73.563  13.998  1.00  0.00    -0.313 N 
ATOM      5  H3  UNL     1      41.976  74.219  13.291  1.00  0.00     0.182 HD
BRANCH   4   6
HETATM    6  N2  UNL     1      41.899  72.229  14.004  1.00  0.00    -0.253 N 
HETATM    7  N1  UNL     1      40.837  71.902  13.366  1.00  0.00    -0.331 N 
ATOM      8  H12 UNL     1      40.310  72.618  12.867  1.00  0.00     0.178 HD
ATOM      9  H11 UNL     1      40.538  70.927  13.370  1.00  0.00     0.178 HD
ATOM     10  H2  UNL     1      42.438  71.525  14.507  1.00  0.00     0.207 HD
ENDBRANCH   4   6
ENDBRANCH   1   4
BRANCH   3  11
HETATM   11  C4  UNL     1      45.994  74.005  14.446  1.00  0.00     0.085 C 
BRANCH  11  12
HETATM   12  N4  UNL     1      46.969  74.710  14.899  1.00  0.00    -0.408 N 
ATOM     13  H42 UNL     1      47.145  74.676  15.903  1.00  0.00     0.155 HD
ATOM     14  H41 UNL     1      47.561  75.291  14.304  1.00  0.00     0.155 HD
ENDBRANCH  11  12
ENDBRANCH   3  11
TORSDOF 4
ENDMDL
MODEL 4
REMARK VINA RESULT: -4.788778746      2.048      2.322
REMARK  4 active torsions:
REMARK  status: ('A' for Active; 'I' for Inactive)
REMARK    1  A    between atoms: N2_4  and  N3_6 
REMARK    2  A    between atoms: N3_6  and  C1_8 
REMARK    3  A    between atoms: C3_10  and  C4_11 
REMARK    4  A    between atoms: C4_11  and  N4_12 
ROOT
HETATM    1  C1  UNL     1      43.811  72.886  15.842  1.00  0.00     0.135 A 
HETATM    2  C2  UNL     1      44.197  74.153  16.527  1.00  0.00     0.069 A 
HETATM    3  C3  UNL     1      45.171  73.387  15.798  1.00  0.00    -0.038 A 
ENDROOT
BRANCH   1   4
HETATM    4  N3  UNL     1      42.923  72.999  14.705  1.00  0.00    -0.313 N 
ATOM      5  H3  UNL     1      42.839  73.870  14.181  1.00  0.00     0.182 HD
BRANCH   4   6
HETATM    6  N2  UNL     1      42.186  71.867  14.357  1.00  0.00    -0.253 N 
HETATM    7  N1  UNL     1      41.121  72.009  13.658  1.00  0.00    -0.331 N 
ATOM      8  H12 UNL     1      40.830  72.942  13.368  1.00  0.00     0.178 HD
ATOM      9  H11 UNL     1      40.582  71.181  13.403  1.00  0.00     0.178 HD
ATOM     10  H2  UNL     1      42.490  70.940  14.654  1.00  0.00     0.207 HD
ENDBRANCH   4   6
ENDBRANCH   1   4
BRANCH   3  11
HETATM   11  C4  UNL     1      46.566  73.402  15.442  1.00  0.00     0.085 C 
BRANCH  11  12
HETATM   12  N4  UNL     1      47.106  74.344  14.755  1.00  0.00    -0.408 N 
ATOM     13  H42 UNL     1      47.227  75.248  15.212  1.00  0.00     0.155 HD
ATOM     14  H41 UNL     1      47.413  74.225  13.789  1.00  0.00     0.155 HD
ENDBRANCH  11  12
ENDBRANCH   3  11
TORSDOF 4
ENDMDL
MODEL 5
REMARK VINA RESULT: -4.673182491      1.976      2.463
REMARK  4 active torsions:
REMARK  status: ('A' for Active; 'I' for Inactive)
REMARK    1  A    between atoms: N2_4  and  N3_6 
REMARK    2  A    between atoms: N3_6  and  C1_8 
REMARK    3  A    between atoms: C3_10  and  C4_11 
REMARK    4  A    between atoms: C4_11  and  N4_12 
ROOT
HETATM    1  C1  UNL     1      43.709  72.340  16.442  1.00  0.00     0.135 A 
HETATM    2  C2  UNL     1      44.574  73.428  16.981  1.00  0.00     0.069 A 
HETATM    3  C3  UNL     1      45.123  72.131  16.690  1.00  0.00    -0.038 A 
ENDROOT
BRANCH   1   4
HETATM    4  N3  UNL     1      43.192  72.516  15.102  1.00  0.00    -0.313 N 
ATOM      5  H3  UNL     1      43.576  73.220  14.472  1.00  0.00     0.182 HD
BRANCH   4   6
HETATM    6  N2  UNL     1      42.145  71.682  14.708  1.00  0.00    -0.253 N 
HETATM    7  N1  UNL     1      41.271  72.128  13.882  1.00  0.00    -0.331 N 
ATOM      8  H12 UNL     1      41.355  73.080  13.528  1.00  0.00     0.178 HD
ATOM      9  H11 UNL     1      40.506  71.518  13.594  1.00  0.00     0.178 HD
ATOM     10  H2  UNL     1      42.075  70.732  15.071  1.00  0.00     0.207 HD
ENDBRANCH   4   6
ENDBRANCH   1   4
BRANCH   3  11
HETATM   11  C4  UNL     1      46.366  71.408  16.737  1.00  0.00     0.085 C 
BRANCH  11  12
HETATM   12  N4  UNL     1      46.813  70.847  17.803  1.00  0.00    -0.408 N 
ATOM     13  H42 UNL     1      46.224  70.140  18.243  1.00  0.00     0.155 HD
ATOM     14  H41 UNL     1      47.717  71.076  18.218  1.00  0.00     0.155 HD
ENDBRANCH  11  12
ENDBRANCH   3  11
TORSDOF 4
ENDMDL
