MODEL 1
REMARK VINA RESULT: -6.717413534      0.000      0.000
REMARK  4 active torsions:
REMARK  status: ('A' for Active; 'I' for Inactive)
REMARK    1  A    between atoms: C2_2  and  C4_10 
REMARK    2  A    between atoms: N1_3  and  N2_5 
REMARK    3  A    between atoms: N2_5  and  C3_7 
REMARK       I    between atoms: C4_10  and  N3_12 
REMARK    4  A    between atoms: N3_12  and  C5_14 
ROOT
HETATM    1  C4  UNL     1      15.671 -13.991  20.885  1.00  0.00     0.265 C 
HETATM    2  O1  UNL     1      15.889 -15.146  20.444  1.00  0.00    -0.266 OA
HETATM    3  N3  UNL     1      15.853 -12.830  20.049  1.00  0.00    -0.351 N 
ATOM      4  H3  UNL     1      15.669 -11.903  20.435  1.00  0.00     0.163 HD
ENDROOT
BRANCH   1   5
HETATM    5  C2  UNL     1      15.231 -13.864  22.265  1.00  0.00     0.089 C 
HETATM    6  C1  UNL     1      14.802 -15.054  23.039  1.00  0.00     0.076 C 
HETATM    7  N1  UNL     1      15.192 -12.727  22.874  1.00  0.00    -0.298 N 
ATOM      8  H1  UNL     1      15.483 -11.896  22.360  1.00  0.00     0.186 HD
BRANCH   7   9
HETATM    9  N2  UNL     1      14.780 -12.572  24.185  1.00  0.00    -0.284 N 
ATOM     10  H2  UNL     1      15.375 -12.953  24.920  1.00  0.00     0.188 HD
BRANCH   9  11
HETATM   11  C3  UNL     1      13.585 -11.918  24.572  1.00  0.00     0.164 C 
HETATM   12  S1  UNL     1      13.492 -10.309  24.647  1.00  0.00    -0.050 SA
HETATM   13  S2  UNL     1      12.139 -12.880  24.988  1.00  0.00    -0.019 SA
ENDBRANCH   9  11
ENDBRANCH   7   9
ENDBRANCH   1   5
BRANCH   3  14
HETATM   14  C5  UNL     1      16.292 -12.951  18.673  1.00  0.00     0.084 C 
HETATM   15  C6  UNL     1      15.142 -13.041  17.729  1.00  0.00     0.025 C 
HETATM   16  C7  UNL     1      15.348 -12.480  16.375  1.00  0.00     0.002 C 
HETATM   17  C8  UNL     1      16.156 -11.227  16.305  1.00  0.00     0.000 C 
HETATM   18  C9  UNL     1      16.479 -10.674  17.679  1.00  0.00     0.002 C 
HETATM   19  C10 UNL     1      17.221 -11.798  18.397  1.00  0.00     0.025 C 
ENDBRANCH   3  14
TORSDOF 4
ENDMDL
MODEL 2
REMARK VINA RESULT: -6.525410482      4.014      5.034
REMARK  4 active torsions:
REMARK  status: ('A' for Active; 'I' for Inactive)
REMARK    1  A    between atoms: C2_2  and  C4_10 
REMARK    2  A    between atoms: N1_3  and  N2_5 
REMARK    3  A    between atoms: N2_5  and  C3_7 
REMARK       I    between atoms: C4_10  and  N3_12 
REMARK    4  A    between atoms: N3_12  and  C5_14 
ROOT
HETATM    1  C4  UNL     1      13.918 -12.999  22.737  1.00  0.00     0.265 C 
HETATM    2  O1  UNL     1      13.383 -12.831  21.613  1.00  0.00    -0.266 OA
HETATM    3  N3  UNL     1      14.674 -14.193  23.028  1.00  0.00    -0.351 N 
ATOM      4  H3  UNL     1      15.097 -14.303  23.950  1.00  0.00     0.163 HD
ENDROOT
BRANCH   1   5
HETATM    5  C2  UNL     1      13.748 -11.954  23.732  1.00  0.00     0.089 C 
HETATM    6  C1  UNL     1      14.107 -12.189  25.152  1.00  0.00     0.076 C 
HETATM    7  N1  UNL     1      13.284 -10.787  23.435  1.00  0.00    -0.298 N 
ATOM      8  H1  UNL     1      13.031 -10.604  22.464  1.00  0.00     0.186 HD
BRANCH   7   9
HETATM    9  N2  UNL     1      13.111  -9.771  24.356  1.00  0.00    -0.284 N 
ATOM     10  H2  UNL     1      13.942  -9.285  24.693  1.00  0.00     0.188 HD
BRANCH   9  11
HETATM   11  C3  UNL     1      11.854  -9.361  24.863  1.00  0.00     0.164 C 
HETATM   12  S1  UNL     1      11.722  -8.629  26.295  1.00  0.00    -0.050 SA
HETATM   13  S2  UNL     1      10.372  -9.652  23.910  1.00  0.00    -0.019 SA
ENDBRANCH   9  11
ENDBRANCH   7   9
ENDBRANCH   1   5
BRANCH   3  14
HETATM   14  C5  UNL     1      14.845 -15.238  22.039  1.00  0.00     0.084 C 
HETATM   15  C6  UNL     1      16.276 -15.623  21.879  1.00  0.00     0.025 C 
HETATM   16  C7  UNL     1      16.549 -17.030  21.507  1.00  0.00     0.002 C 
HETATM   17  C8  UNL     1      15.660 -18.053  22.133  1.00  0.00     0.000 C 
HETATM   18  C9  UNL     1      14.737 -17.453  23.175  1.00  0.00     0.002 C 
HETATM   19  C10 UNL     1      13.945 -16.379  22.434  1.00  0.00     0.025 C 
ENDBRANCH   3  14
TORSDOF 4
ENDMDL
MODEL 3
REMARK VINA RESULT: -6.482630851      1.531      1.837
REMARK  4 active torsions:
REMARK  status: ('A' for Active; 'I' for Inactive)
REMARK    1  A    between atoms: C2_2  and  C4_10 
REMARK    2  A    between atoms: N1_3  and  N2_5 
REMARK    3  A    between atoms: N2_5  and  C3_7 
REMARK       I    between atoms: C4_10  and  N3_12 
REMARK    4  A    between atoms: N3_12  and  C5_14 
ROOT
HETATM    1  C4  UNL     1      14.914 -13.844  20.903  1.00  0.00     0.265 C 
HETATM    2  O1  UNL     1      15.003 -15.033  20.507  1.00  0.00    -0.266 OA
HETATM    3  N3  UNL     1      15.384 -12.752  20.087  1.00  0.00    -0.351 N 
ATOM      4  H3  UNL     1      15.300 -11.796  20.436  1.00  0.00     0.163 HD
ENDROOT
BRANCH   1   5
HETATM    5  C2  UNL     1      14.323 -13.608  22.210  1.00  0.00     0.089 C 
HETATM    6  C1  UNL     1      12.911 -13.170  22.339  1.00  0.00     0.076 C 
HETATM    7  N1  UNL     1      14.986 -13.765  23.305  1.00  0.00    -0.298 N 
ATOM      8  H1  UNL     1      15.959 -14.066  23.239  1.00  0.00     0.186 HD
BRANCH   7   9
HETATM    9  N2  UNL     1      14.455 -13.550  24.563  1.00  0.00    -0.284 N 
ATOM     10  H2  UNL     1      14.571 -12.625  24.978  1.00  0.00     0.188 HD
BRANCH   9  11
HETATM   11  C3  UNL     1      13.759 -14.529  25.313  1.00  0.00     0.164 C 
HETATM   12  S1  UNL     1      12.655 -14.118  26.416  1.00  0.00    -0.050 SA
HETATM   13  S2  UNL     1      14.098 -16.262  25.045  1.00  0.00    -0.019 SA
ENDBRANCH   9  11
ENDBRANCH   7   9
ENDBRANCH   1   5
BRANCH   3  14
HETATM   14  C5  UNL     1      15.975 -12.982  18.784  1.00  0.00     0.084 C 
HETATM   15  C6  UNL     1      14.943 -13.055  17.711  1.00  0.00     0.025 C 
HETATM   16  C7  UNL     1      15.348 -12.590  16.366  1.00  0.00     0.002 C 
HETATM   17  C8  UNL     1      16.244 -11.396  16.332  1.00  0.00     0.000 C 
HETATM   18  C9  UNL     1      16.438 -10.784  17.705  1.00  0.00     0.002 C 
HETATM   19  C10 UNL     1      17.009 -11.908  18.566  1.00  0.00     0.025 C 
ENDBRANCH   3  14
TORSDOF 4
ENDMDL
MODEL 4
REMARK VINA RESULT: -6.309383924      4.161      7.704
REMARK  4 active torsions:
REMARK  status: ('A' for Active; 'I' for Inactive)
REMARK    1  A    between atoms: C2_2  and  C4_10 
REMARK    2  A    between atoms: N1_3  and  N2_5 
REMARK    3  A    between atoms: N2_5  and  C3_7 
REMARK       I    between atoms: C4_10  and  N3_12 
REMARK    4  A    between atoms: N3_12  and  C5_14 
ROOT
HETATM    1  C4  UNL     1      11.386 -11.955  23.065  1.00  0.00     0.265 C 
HETATM    2  O1  UNL     1      10.673 -11.316  22.251  1.00  0.00    -0.266 OA
HETATM    3  N3  UNL     1      11.370 -11.641  24.473  1.00  0.00    -0.351 N 
ATOM      4  H3  UNL     1      11.961 -12.175  25.110  1.00  0.00     0.163 HD
ENDROOT
BRANCH   1   5
HETATM    5  C2  UNL     1      12.228 -13.017  22.540  1.00  0.00     0.089 C 
HETATM    6  C1  UNL     1      11.863 -14.442  22.731  1.00  0.00     0.076 C 
HETATM    7  N1  UNL     1      13.318 -12.777  21.892  1.00  0.00    -0.298 N 
ATOM      8  H1  UNL     1      13.588 -11.804  21.750  1.00  0.00     0.186 HD
BRANCH   7   9
HETATM    9  N2  UNL     1      14.141 -13.763  21.380  1.00  0.00    -0.284 N 
ATOM     10  H2  UNL     1      13.841 -14.733  21.479  1.00  0.00     0.188 HD
BRANCH   9  11
HETATM   11  C3  UNL     1      15.373 -13.514  20.728  1.00  0.00     0.164 C 
HETATM   12  S1  UNL     1      16.767 -13.492  21.540  1.00  0.00    -0.050 SA
HETATM   13  S2  UNL     1      15.403 -13.216  18.967  1.00  0.00    -0.019 SA
ENDBRANCH   9  11
ENDBRANCH   7   9
ENDBRANCH   1   5
BRANCH   3  14
HETATM   14  C5  UNL     1      10.533 -10.582  25.001  1.00  0.00     0.084 C 
HETATM   15  C6  UNL     1       9.616 -11.078  26.066  1.00  0.00     0.025 C 
HETATM   16  C7  UNL     1       9.252 -10.116  27.130  1.00  0.00     0.002 C 
HETATM   17  C8  UNL     1      10.340  -9.197  27.578  1.00  0.00     0.000 C 
HETATM   18  C9  UNL     1      11.677  -9.543  26.955  1.00  0.00     0.002 C 
HETATM   19  C10 UNL     1      11.447  -9.471  25.448  1.00  0.00     0.025 C 
ENDBRANCH   3  14
TORSDOF 4
ENDMDL
MODEL 5
REMARK VINA RESULT: -6.289955324      3.921      7.803
REMARK  4 active torsions:
REMARK  status: ('A' for Active; 'I' for Inactive)
REMARK    1  A    between atoms: C2_2  and  C4_10 
REMARK    2  A    between atoms: N1_3  and  N2_5 
REMARK    3  A    between atoms: N2_5  and  C3_7 
REMARK       I    between atoms: C4_10  and  N3_12 
REMARK    4  A    between atoms: N3_12  and  C5_14 
ROOT
HETATM    1  C4  UNL     1      12.864 -12.485  24.348  1.00  0.00     0.265 C 
HETATM    2  O1  UNL     1      13.793 -12.742  25.153  1.00  0.00    -0.266 OA
HETATM    3  N3  UNL     1      11.677 -11.790  24.780  1.00  0.00    -0.351 N 
ATOM      4  H3  UNL     1      10.938 -11.595  24.104  1.00  0.00     0.163 HD
ENDROOT
BRANCH   1   5
HETATM    5  C2  UNL     1      13.025 -12.913  22.968  1.00  0.00     0.089 C 
HETATM    6  C1  UNL     1      12.112 -13.919  22.371  1.00  0.00     0.076 C 
HETATM    7  N1  UNL     1      13.956 -12.446  22.205  1.00  0.00    -0.298 N 
ATOM      8  H1  UNL     1      14.595 -11.754  22.596  1.00  0.00     0.186 HD
BRANCH   7   9
HETATM    9  N2  UNL     1      14.137 -12.831  20.890  1.00  0.00    -0.284 N 
ATOM     10  H2  UNL     1      13.436 -12.542  20.208  1.00  0.00     0.188 HD
BRANCH   9  11
HETATM   11  C3  UNL     1      15.232 -13.601  20.428  1.00  0.00     0.164 C 
HETATM   12  S1  UNL     1      15.454 -15.125  20.912  1.00  0.00    -0.050 SA
HETATM   13  S2  UNL     1      16.403 -12.887  19.284  1.00  0.00    -0.019 SA
ENDBRANCH   9  11
ENDBRANCH   7   9
ENDBRANCH   1   5
BRANCH   3  14
HETATM   14  C5  UNL     1      11.511 -11.362  26.155  1.00  0.00     0.084 C 
HETATM   15  C6  UNL     1      12.051  -9.991  26.380  1.00  0.00     0.025 C 
HETATM   16  C7  UNL     1      11.381  -9.174  27.416  1.00  0.00     0.002 C 
HETATM   17  C8  UNL     1       9.897  -9.315  27.498  1.00  0.00     0.000 C 
HETATM   18  C9  UNL     1       9.337 -10.165  26.374  1.00  0.00     0.002 C 
HETATM   19  C10 UNL     1      10.051 -11.508  26.496  1.00  0.00     0.025 C 
ENDBRANCH   3  14
TORSDOF 4
ENDMDL
