MODEL 1
REMARK VINA RESULT: -7.324596651      0.000      0.000
REMARK  10 active torsions:
REMARK  status: ('A' for Active; 'I' for Inactive)
REMARK    1  A    between atoms: C5_9  and  C6_10 
REMARK    2  A    between atoms: C6_10  and  C7_11 
REMARK    3  A    between atoms: C6_10  and  N11_33 
REMARK    4  A    between atoms: C7_11  and  N4_12 
REMARK    5  A    between atoms: C9_14  and  C10_15 
REMARK    6  A    between atoms: C12_19  and  N6_20 
REMARK    7  A    between atoms: N11_33  and  S1_35 
REMARK    8  A    between atoms: S1_35  and  N12_38 
REMARK    9  A    between atoms: N12_38  and  C14_40 
REMARK   10  A    between atoms: C18_47  and  N15_48 
ROOT
HETATM    1  C1  UNL     1      -1.318 -24.109  94.472  1.00  0.00     0.157 C 
HETATM    2  N1  UNL     1      -1.586 -24.963  95.589  1.00  0.00    -0.346 N 
HETATM    3  C2  UNL     1      -2.534 -24.697  96.528  1.00  0.00     0.133 A 
HETATM    4  C3  UNL     1      -2.530 -25.721  97.454  1.00  0.00     0.131 A 
HETATM    5  C4  UNL     1      -3.384 -25.842  98.628  1.00  0.00     0.119 C 
HETATM    6  N2  UNL     1      -4.054 -25.942  99.566  1.00  0.00    -0.190 NA
HETATM    7  N3  UNL     1      -1.583 -26.575  97.052  1.00  0.00    -0.334 N 
ATOM      8  H3  UNL     1      -1.332 -27.441  97.527  1.00  0.00     0.168 HD
HETATM    9  C5  UNL     1      -1.001 -26.105  95.900  1.00  0.00     0.109 A 
ENDROOT
BRANCH   9  10
HETATM   10  C6  UNL     1       0.088 -26.892  95.279  1.00  0.00     0.182 C 
BRANCH  10  11
HETATM   11  C7  UNL     1       1.209 -27.259  96.191  1.00  0.00     0.183 C 
BRANCH  11  12
HETATM   12  N4  UNL     1       2.500 -27.355  95.542  1.00  0.00    -0.284 N 
HETATM   13  C8  UNL     1       3.445 -26.374  95.445  1.00  0.00     0.143 A 
HETATM   14  C9  UNL     1       4.506 -26.873  94.772  1.00  0.00     0.082 A 
HETATM   15  N9  UNL     1       4.164 -28.172  94.470  1.00  0.00    -0.284 N 
HETATM   16  N10 UNL     1       2.997 -28.399  94.938  1.00  0.00    -0.240 N 
ATOM     17  H9  UNL     1       4.743 -28.840  93.960  1.00  0.00     0.188 HD
ATOM     18  H10 UNL     1       2.511 -29.292  94.851  1.00  0.00     0.208 HD
BRANCH  14  19
HETATM   19  C10 UNL     1       5.765 -26.301  94.310  1.00  0.00     0.053 A 
HETATM   20  C11 UNL     1       5.722 -25.266  93.360  1.00  0.00     0.123 A 
HETATM   21  N5  UNL     1       6.832 -24.694  92.873  1.00  0.00    -0.201 N 
HETATM   22  C12 UNL     1       8.047 -25.106  93.289  1.00  0.00     0.677 A 
ATOM     23  H5  UNL     1       6.758 -23.944  92.185  1.00  0.00     0.183 HD
HETATM   24  N7  UNL     1       8.133 -26.081  94.182  1.00  0.00    -0.176 N 
HETATM   25  C13 UNL     1       6.999 -26.698  94.708  1.00  0.00     0.128 A 
ATOM     26  H7  UNL     1       9.055 -26.389  94.492  1.00  0.00     0.186 HD
HETATM   27  N8  UNL     1       7.225 -27.658  95.497  1.00  0.00    -0.384 N 
ATOM     28  H82 UNL     1       6.396 -28.109  95.883  1.00  0.00     0.157 HD
ATOM     29  H81 UNL     1       8.154 -27.957  95.796  1.00  0.00     0.157 HD
BRANCH  22  30
HETATM   30  N6  UNL     1       9.115 -24.531  92.798  1.00  0.00    -0.234 N 
ATOM     31  H62 UNL     1       9.304 -24.522  91.795  1.00  0.00     0.174 HD
ATOM     32  H61 UNL     1       9.771 -24.080  93.435  1.00  0.00     0.174 HD
ENDBRANCH  22  30
ENDBRANCH  14  19
ENDBRANCH  11  12
ENDBRANCH  10  11
BRANCH  10  33
HETATM   33  N11 UNL     1      -0.437 -28.101  94.684  1.00  0.00    -0.289 N 
ATOM     34  H11 UNL     1      -0.784 -28.873  95.253  1.00  0.00     0.174 HD
BRANCH  33  35
HETATM   35  S1  UNL     1      -0.444 -28.166  93.002  1.00  0.00     0.321 S 
HETATM   36  O1  UNL     1      -1.132 -29.483  92.615  1.00  0.00    -0.182 OA
HETATM   37  O2  UNL     1      -1.345 -27.105  92.445  1.00  0.00    -0.182 OA
BRANCH  35  38
HETATM   38  N12 UNL     1       1.098 -28.229  92.288  1.00  0.00    -0.252 N 
ATOM     39  H12 UNL     1       1.565 -29.133  92.214  1.00  0.00     0.182 HD
BRANCH  38  40
HETATM   40  C14 UNL     1       1.759 -27.087  91.795  1.00  0.00     0.134 A 
HETATM   41  C15 UNL     1       2.958 -27.136  91.121  1.00  0.00     0.091 A 
HETATM   42  C16 UNL     1       3.597 -25.991  90.631  1.00  0.00     0.133 A 
HETATM   43  C17 UNL     1       4.847 -26.125  89.936  1.00  0.00     0.118 C 
HETATM   44  N14 UNL     1       3.019 -24.804  90.826  1.00  0.00    -0.182 N 
HETATM   45  N13 UNL     1       5.865 -26.220  89.365  1.00  0.00    -0.190 NA
HETATM   46  C18 UNL     1       1.852 -24.725  91.480  1.00  0.00     0.678 A 
ATOM     47  H14 UNL     1       3.467 -23.956  90.478  1.00  0.00     0.185 HD
HETATM   48  N16 UNL     1       1.236 -25.834  91.953  1.00  0.00    -0.176 N 
ATOM     49  H16 UNL     1       0.349 -25.730  92.446  1.00  0.00     0.186 HD
BRANCH  46  50
HETATM   50  N15 UNL     1       1.336 -23.548  91.642  1.00  0.00    -0.234 N 
ATOM     51 2H15 UNL     1       1.155 -23.173  92.573  1.00  0.00     0.174 HD
ATOM     52 1H15 UNL     1       1.119 -23.009  90.804  1.00  0.00     0.174 HD
ENDBRANCH  46  50
ENDBRANCH  38  40
ENDBRANCH  35  38
ENDBRANCH  33  35
ENDBRANCH  10  33
ENDBRANCH   9  10
TORSDOF 10
ENDMDL
MODEL 2
REMARK VINA RESULT: -7.278589223      1.637      3.097
REMARK  10 active torsions:
REMARK  status: ('A' for Active; 'I' for Inactive)
REMARK    1  A    between atoms: C5_9  and  C6_10 
REMARK    2  A    between atoms: C6_10  and  C7_11 
REMARK    3  A    between atoms: C6_10  and  N11_33 
REMARK    4  A    between atoms: C7_11  and  N4_12 
REMARK    5  A    between atoms: C9_14  and  C10_15 
REMARK    6  A    between atoms: C12_19  and  N6_20 
REMARK    7  A    between atoms: N11_33  and  S1_35 
REMARK    8  A    between atoms: S1_35  and  N12_38 
REMARK    9  A    between atoms: N12_38  and  C14_40 
REMARK   10  A    between atoms: C18_47  and  N15_48 
ROOT
HETATM    1  C1  UNL     1       0.047 -23.511  96.151  1.00  0.00     0.157 C 
HETATM    2  N1  UNL     1      -0.718 -24.617  96.642  1.00  0.00    -0.346 N 
HETATM    3  C2  UNL     1      -1.753 -24.485  97.516  1.00  0.00     0.133 A 
HETATM    4  C3  UNL     1      -2.266 -25.739  97.776  1.00  0.00     0.131 A 
HETATM    5  C4  UNL     1      -3.381 -26.064  98.655  1.00  0.00     0.119 C 
HETATM    6  N2  UNL     1      -4.261 -26.329  99.358  1.00  0.00    -0.190 NA
HETATM    7  N3  UNL     1      -1.531 -26.593  97.056  1.00  0.00    -0.334 N 
ATOM      8  H3  UNL     1      -1.659 -27.604  97.030  1.00  0.00     0.168 HD
HETATM    9  C5  UNL     1      -0.574 -25.897  96.357  1.00  0.00     0.109 A 
ENDROOT
BRANCH   9  10
HETATM   10  C6  UNL     1       0.366 -26.648  95.494  1.00  0.00     0.182 C 
BRANCH  10  11
HETATM   11  C7  UNL     1       1.654 -27.032  96.139  1.00  0.00     0.183 C 
BRANCH  11  12
HETATM   12  N4  UNL     1       2.748 -27.235  95.212  1.00  0.00    -0.284 N 
HETATM   13  C8  UNL     1       3.461 -26.270  94.560  1.00  0.00     0.143 A 
HETATM   14  C9  UNL     1       4.399 -26.878  93.798  1.00  0.00     0.082 A 
HETATM   15  N9  UNL     1       4.220 -28.227  94.014  1.00  0.00    -0.284 N 
HETATM   16  N10 UNL     1       3.255 -28.377  94.838  1.00  0.00    -0.240 N 
ATOM     17  H9  UNL     1       4.764 -28.977  93.587  1.00  0.00     0.188 HD
ATOM     18  H10 UNL     1       2.921 -29.283  95.166  1.00  0.00     0.208 HD
BRANCH  14  19
HETATM   19  C10 UNL     1       5.394 -26.394  92.850  1.00  0.00     0.053 A 
HETATM   20  C11 UNL     1       6.556 -25.783  93.352  1.00  0.00     0.123 A 
HETATM   21  N5  UNL     1       7.515 -25.298  92.549  1.00  0.00    -0.201 N 
HETATM   22  C12 UNL     1       7.386 -25.384  91.209  1.00  0.00     0.677 A 
ATOM     23  H5  UNL     1       8.344 -24.863  92.953  1.00  0.00     0.183 HD
HETATM   24  N7  UNL     1       6.305 -25.949  90.694  1.00  0.00    -0.176 N 
HETATM   25  C13 UNL     1       5.289 -26.463  91.499  1.00  0.00     0.128 A 
ATOM     26  H7  UNL     1       6.213 -26.011  89.679  1.00  0.00     0.186 HD
HETATM   27  N8  UNL     1       4.284 -26.911  90.879  1.00  0.00    -0.384 N 
ATOM     28  H82 UNL     1       3.541 -27.288  91.468  1.00  0.00     0.157 HD
ATOM     29  H81 UNL     1       4.204 -26.963  89.863  1.00  0.00     0.157 HD
BRANCH  22  30
HETATM   30  N6  UNL     1       8.336 -24.903  90.448  1.00  0.00    -0.234 N 
ATOM     31  H62 UNL     1       8.237 -24.005  89.974  1.00  0.00     0.174 HD
ATOM     32  H61 UNL     1       9.195 -25.440  90.331  1.00  0.00     0.174 HD
ENDBRANCH  22  30
ENDBRANCH  14  19
ENDBRANCH  11  12
ENDBRANCH  10  11
BRANCH  10  33
HETATM   33  N11 UNL     1      -0.265 -27.842  94.977  1.00  0.00    -0.289 N 
ATOM     34  H11 UNL     1      -0.632 -28.566  95.595  1.00  0.00     0.174 HD
BRANCH  33  35
HETATM   35  S1  UNL     1      -0.362 -27.974  93.303  1.00  0.00     0.321 S 
HETATM   36  O1  UNL     1       1.080 -28.015  92.778  1.00  0.00    -0.182 OA
HETATM   37  O2  UNL     1      -0.930 -29.308  92.919  1.00  0.00    -0.182 OA
BRANCH  35  38
HETATM   38  N12 UNL     1      -1.093 -26.647  92.528  1.00  0.00    -0.252 N 
ATOM     39  H12 UNL     1      -2.014 -26.774  92.110  1.00  0.00     0.182 HD
BRANCH  38  40
HETATM   40  C14 UNL     1      -0.480 -25.383  92.438  1.00  0.00     0.134 A 
HETATM   41  C15 UNL     1      -1.155 -24.198  92.624  1.00  0.00     0.091 A 
HETATM   42  C16 UNL     1      -0.529 -22.949  92.539  1.00  0.00     0.133 A 
HETATM   43  C17 UNL     1      -1.303 -21.757  92.747  1.00  0.00     0.118 C 
HETATM   44  N14 UNL     1       0.777 -22.907  92.266  1.00  0.00    -0.182 N 
HETATM   45  N13 UNL     1      -1.921 -20.777  92.917  1.00  0.00    -0.190 NA
HETATM   46  C18 UNL     1       1.461 -24.045  92.079  1.00  0.00     0.678 A 
ATOM     47  H14 UNL     1       1.255 -22.008  92.199  1.00  0.00     0.185 HD
HETATM   48  N16 UNL     1       0.852 -25.250  92.162  1.00  0.00    -0.176 N 
ATOM     49  H16 UNL     1       1.409 -26.092  92.013  1.00  0.00     0.186 HD
BRANCH  46  50
HETATM   50  N15 UNL     1       2.725 -23.945  91.816  1.00  0.00    -0.234 N 
ATOM     51 2H15 UNL     1       3.379 -24.685  92.071  1.00  0.00     0.174 HD
ATOM     52 1H15 UNL     1       3.042 -23.100  91.342  1.00  0.00     0.174 HD
ENDBRANCH  46  50
ENDBRANCH  38  40
ENDBRANCH  35  38
ENDBRANCH  33  35
ENDBRANCH  10  33
ENDBRANCH   9  10
TORSDOF 10
ENDMDL
MODEL 3
REMARK VINA RESULT: -7.139993970      1.156      1.399
REMARK  10 active torsions:
REMARK  status: ('A' for Active; 'I' for Inactive)
REMARK    1  A    between atoms: C5_9  and  C6_10 
REMARK    2  A    between atoms: C6_10  and  C7_11 
REMARK    3  A    between atoms: C6_10  and  N11_33 
REMARK    4  A    between atoms: C7_11  and  N4_12 
REMARK    5  A    between atoms: C9_14  and  C10_15 
REMARK    6  A    between atoms: C12_19  and  N6_20 
REMARK    7  A    between atoms: N11_33  and  S1_35 
REMARK    8  A    between atoms: S1_35  and  N12_38 
REMARK    9  A    between atoms: N12_38  and  C14_40 
REMARK   10  A    between atoms: C18_47  and  N15_48 
ROOT
HETATM    1  C1  UNL     1      -0.139 -23.597  95.926  1.00  0.00     0.157 C 
HETATM    2  N1  UNL     1      -0.870 -24.669  96.529  1.00  0.00    -0.346 N 
HETATM    3  C2  UNL     1      -1.891 -24.481  97.410  1.00  0.00     0.133 A 
HETATM    4  C3  UNL     1      -2.372 -25.717  97.791  1.00  0.00     0.131 A 
HETATM    5  C4  UNL     1      -3.462 -25.983  98.719  1.00  0.00     0.119 C 
HETATM    6  N2  UNL     1      -4.323 -26.202  99.461  1.00  0.00    -0.190 NA
HETATM    7  N3  UNL     1      -1.632 -26.616  97.135  1.00  0.00    -0.334 N 
ATOM      8  H3  UNL     1      -1.739 -27.628  97.201  1.00  0.00     0.168 HD
HETATM    9  C5  UNL     1      -0.704 -25.967  96.356  1.00  0.00     0.109 A 
ENDROOT
BRANCH   9  10
HETATM   10  C6  UNL     1       0.235 -26.774  95.544  1.00  0.00     0.182 C 
BRANCH  10  11
HETATM   11  C7  UNL     1       1.443 -27.263  96.267  1.00  0.00     0.183 C 
BRANCH  11  12
HETATM   12  N4  UNL     1       2.626 -27.382  95.440  1.00  0.00    -0.284 N 
HETATM   13  C8  UNL     1       3.476 -26.378  95.074  1.00  0.00     0.143 A 
HETATM   14  C9  UNL     1       4.457 -26.910  94.310  1.00  0.00     0.082 A 
HETATM   15  N9  UNL     1       4.164 -28.253  94.231  1.00  0.00    -0.284 N 
HETATM   16  N10 UNL     1       3.098 -28.472  94.902  1.00  0.00    -0.240 N 
ATOM     17  H9  UNL     1       4.705 -28.954  93.724  1.00  0.00     0.188 HD
ATOM     18  H10 UNL     1       2.667 -29.391  95.004  1.00  0.00     0.208 HD
BRANCH  14  19
HETATM   19  C10 UNL     1       5.590 -26.344  93.589  1.00  0.00     0.053 A 
HETATM   20  C11 UNL     1       5.479 -26.170  92.199  1.00  0.00     0.123 A 
HETATM   21  N5  UNL     1       6.479 -25.670  91.457  1.00  0.00    -0.201 N 
HETATM   22  C12 UNL     1       7.642 -25.314  92.038  1.00  0.00     0.677 A 
ATOM     23  H5  UNL     1       6.357 -25.557  90.451  1.00  0.00     0.183 HD
HETATM   24  N7  UNL     1       7.790 -25.465  93.346  1.00  0.00    -0.176 N 
HETATM   25  C13 UNL     1       6.772 -25.982  94.146  1.00  0.00     0.128 A 
ATOM     26  H7  UNL     1       8.674 -25.194  93.779  1.00  0.00     0.186 HD
HETATM   27  N8  UNL     1       7.070 -26.138  95.363  1.00  0.00    -0.384 N 
ATOM     28  H82 UNL     1       6.326 -26.516  95.949  1.00  0.00     0.157 HD
ATOM     29  H81 UNL     1       7.960 -25.866  95.783  1.00  0.00     0.157 HD
BRANCH  22  30
HETATM   30  N6  UNL     1       8.602 -24.828  91.292  1.00  0.00    -0.234 N 
ATOM     31  H62 UNL     1       8.837 -25.240  90.389  1.00  0.00     0.174 HD
ATOM     32  H61 UNL     1       9.123 -24.017  91.623  1.00  0.00     0.174 HD
ENDBRANCH  22  30
ENDBRANCH  14  19
ENDBRANCH  11  12
ENDBRANCH  10  11
BRANCH  10  33
HETATM   33  N11 UNL     1      -0.445 -27.909  94.962  1.00  0.00    -0.289 N 
ATOM     34  H11 UNL     1      -0.809 -28.669  95.536  1.00  0.00     0.174 HD
BRANCH  33  35
HETATM   35  S1  UNL     1      -0.604 -27.909  93.286  1.00  0.00     0.321 S 
HETATM   36  O1  UNL     1      -0.768 -29.374  92.858  1.00  0.00    -0.182 OA
HETATM   37  O2  UNL     1      -1.897 -27.263  92.887  1.00  0.00    -0.182 OA
BRANCH  35  38
HETATM   38  N12 UNL     1       0.760 -27.337  92.445  1.00  0.00    -0.252 N 
ATOM     39  H12 UNL     1       1.470 -28.009  92.154  1.00  0.00     0.182 HD
BRANCH  38  40
HETATM   40  C14 UNL     1       0.950 -25.978  92.133  1.00  0.00     0.134 A 
HETATM   41  C15 UNL     1       2.087 -25.490  91.528  1.00  0.00     0.091 A 
HETATM   42  C16 UNL     1       2.256 -24.136  91.218  1.00  0.00     0.133 A 
HETATM   43  C17 UNL     1       3.472 -23.705  90.586  1.00  0.00     0.118 C 
HETATM   44  N14 UNL     1       1.276 -23.283  91.522  1.00  0.00    -0.182 N 
HETATM   45  N13 UNL     1       4.457 -23.340  90.067  1.00  0.00    -0.190 NA
HETATM   46  C18 UNL     1       0.158 -23.729  92.111  1.00  0.00     0.678 A 
ATOM     47  H14 UNL     1       1.377 -22.292  91.305  1.00  0.00     0.185 HD
HETATM   48  N16 UNL     1      -0.003 -25.039  92.410  1.00  0.00    -0.176 N 
ATOM     49  H16 UNL     1      -0.870 -25.337  92.860  1.00  0.00     0.186 HD
BRANCH  46  50
HETATM   50  N15 UNL     1      -0.761 -22.858  92.385  1.00  0.00    -0.234 N 
ATOM     51 2H15 UNL     1      -1.740 -23.131  92.475  1.00  0.00     0.174 HD
ATOM     52 1H15 UNL     1      -0.470 -21.889  92.508  1.00  0.00     0.174 HD
ENDBRANCH  46  50
ENDBRANCH  38  40
ENDBRANCH  35  38
ENDBRANCH  33  35
ENDBRANCH  10  33
ENDBRANCH   9  10
TORSDOF 10
ENDMDL
MODEL 4
REMARK VINA RESULT: -6.984797211      2.676      4.276
REMARK  10 active torsions:
REMARK  status: ('A' for Active; 'I' for Inactive)
REMARK    1  A    between atoms: C5_9  and  C6_10 
REMARK    2  A    between atoms: C6_10  and  C7_11 
REMARK    3  A    between atoms: C6_10  and  N11_33 
REMARK    4  A    between atoms: C7_11  and  N4_12 
REMARK    5  A    between atoms: C9_14  and  C10_15 
REMARK    6  A    between atoms: C12_19  and  N6_20 
REMARK    7  A    between atoms: N11_33  and  S1_35 
REMARK    8  A    between atoms: S1_35  and  N12_38 
REMARK    9  A    between atoms: N12_38  and  C14_40 
REMARK   10  A    between atoms: C18_47  and  N15_48 
ROOT
HETATM    1  C1  UNL     1      -0.363 -23.981  97.873  1.00  0.00     0.157 C 
HETATM    2  N1  UNL     1      -1.680 -24.210  97.362  1.00  0.00    -0.346 N 
HETATM    3  C2  UNL     1      -2.812 -23.787  97.986  1.00  0.00     0.133 A 
HETATM    4  C3  UNL     1      -3.898 -24.170  97.226  1.00  0.00     0.131 A 
HETATM    5  C4  UNL     1      -5.303 -23.923  97.520  1.00  0.00     0.119 C 
HETATM    6  N2  UNL     1      -6.422 -23.737  97.752  1.00  0.00    -0.190 NA
HETATM    7  N3  UNL     1      -3.396 -24.812  96.166  1.00  0.00    -0.334 N 
ATOM      8  H3  UNL     1      -3.945 -25.221  95.411  1.00  0.00     0.168 HD
HETATM    9  C5  UNL     1      -2.025 -24.836  96.253  1.00  0.00     0.109 A 
ENDROOT
BRANCH   9  10
HETATM   10  C6  UNL     1      -1.255 -25.510  95.183  1.00  0.00     0.182 C 
BRANCH  10  11
HETATM   11  C7  UNL     1      -0.405 -26.649  95.631  1.00  0.00     0.183 C 
BRANCH  11  12
HETATM   12  N4  UNL     1       0.594 -27.064  94.667  1.00  0.00    -0.284 N 
HETATM   13  C8  UNL     1       1.657 -26.334  94.221  1.00  0.00     0.143 A 
HETATM   14  C9  UNL     1       2.349 -27.088  93.336  1.00  0.00     0.082 A 
HETATM   15  N9  UNL     1       1.665 -28.282  93.269  1.00  0.00    -0.284 N 
HETATM   16  N10 UNL     1       0.662 -28.215  94.058  1.00  0.00    -0.240 N 
ATOM     17  H9  UNL     1       1.917 -29.083  92.689  1.00  0.00     0.188 HD
ATOM     18  H10 UNL     1      -0.007 -28.973  94.194  1.00  0.00     0.208 HD
BRANCH  14  19
HETATM   19  C10 UNL     1       3.513 -26.840  92.495  1.00  0.00     0.053 A 
HETATM   20  C11 UNL     1       4.731 -26.516  93.117  1.00  0.00     0.123 A 
HETATM   21  N5  UNL     1       5.846 -26.260  92.418  1.00  0.00    -0.201 N 
HETATM   22  C12 UNL     1       5.829 -26.305  91.071  1.00  0.00     0.677 A 
ATOM     23  H5  UNL     1       6.711 -26.030  92.908  1.00  0.00     0.183 HD
HETATM   24  N7  UNL     1       4.701 -26.604  90.444  1.00  0.00    -0.176 N 
HETATM   25  C13 UNL     1       3.523 -26.875  91.140  1.00  0.00     0.128 A 
ATOM     26  H7  UNL     1       4.693 -26.636  89.424  1.00  0.00     0.186 HD
HETATM   27  N8  UNL     1       2.505 -27.076  90.419  1.00  0.00    -0.384 N 
ATOM     28  H82 UNL     1       1.644 -27.275  90.928  1.00  0.00     0.157 HD
ATOM     29  H81 UNL     1       2.512 -27.102  89.399  1.00  0.00     0.157 HD
BRANCH  22  30
HETATM   30  N6  UNL     1       6.931 -26.051  90.412  1.00  0.00    -0.234 N 
ATOM     31  H62 UNL     1       7.598 -25.351  90.737  1.00  0.00     0.174 HD
ATOM     32  H61 UNL     1       7.126 -26.568  89.556  1.00  0.00     0.174 HD
ENDBRANCH  22  30
ENDBRANCH  14  19
ENDBRANCH  11  12
ENDBRANCH  10  11
BRANCH  10  33
HETATM   33  N11 UNL     1      -2.141 -25.979  94.140  1.00  0.00    -0.289 N 
ATOM     34  H11 UNL     1      -2.997 -26.490  94.352  1.00  0.00     0.174 HD
BRANCH  33  35
HETATM   35  S1  UNL     1      -1.683 -25.635  92.557  1.00  0.00     0.321 S 
HETATM   36  O1  UNL     1      -0.982 -26.890  92.018  1.00  0.00    -0.182 OA
HETATM   37  O2  UNL     1      -2.895 -25.489  91.686  1.00  0.00    -0.182 OA
BRANCH  35  38
HETATM   38  N12 UNL     1      -0.548 -24.377  92.404  1.00  0.00    -0.252 N 
ATOM     39  H12 UNL     1       0.442 -24.617  92.356  1.00  0.00     0.182 HD
BRANCH  38  40
HETATM   40  C14 UNL     1      -0.916 -23.020  92.342  1.00  0.00     0.134 A 
HETATM   41  C15 UNL     1      -0.852 -22.268  91.190  1.00  0.00     0.091 A 
HETATM   42  C16 UNL     1      -1.229 -20.921  91.145  1.00  0.00     0.133 A 
HETATM   43  C17 UNL     1      -1.134 -20.205  89.903  1.00  0.00     0.118 C 
HETATM   44  N14 UNL     1      -1.669 -20.342  92.264  1.00  0.00    -0.182 N 
HETATM   45  N13 UNL     1      -1.065 -19.609  88.897  1.00  0.00    -0.190 NA
HETATM   46  C18 UNL     1      -1.742 -21.049  93.400  1.00  0.00     0.678 A 
ATOM     47  H14 UNL     1      -1.949 -19.362  92.254  1.00  0.00     0.185 HD
HETATM   48  N16 UNL     1      -1.376 -22.351  93.442  1.00  0.00    -0.176 N 
ATOM     49  H16 UNL     1      -1.446 -22.852  94.328  1.00  0.00     0.186 HD
BRANCH  46  50
HETATM   50  N15 UNL     1      -2.174 -20.437  94.458  1.00  0.00    -0.234 N 
ATOM     51 2H15 UNL     1      -2.910 -19.733  94.399  1.00  0.00     0.174 HD
ATOM     52 1H15 UNL     1      -1.752 -20.686  95.351  1.00  0.00     0.174 HD
ENDBRANCH  46  50
ENDBRANCH  38  40
ENDBRANCH  35  38
ENDBRANCH  33  35
ENDBRANCH  10  33
ENDBRANCH   9  10
TORSDOF 10
ENDMDL
MODEL 5
REMARK VINA RESULT: -6.979256667      4.216      7.336
REMARK  10 active torsions:
REMARK  status: ('A' for Active; 'I' for Inactive)
REMARK    1  A    between atoms: C5_9  and  C6_10 
REMARK    2  A    between atoms: C6_10  and  C7_11 
REMARK    3  A    between atoms: C6_10  and  N11_33 
REMARK    4  A    between atoms: C7_11  and  N4_12 
REMARK    5  A    between atoms: C9_14  and  C10_15 
REMARK    6  A    between atoms: C12_19  and  N6_20 
REMARK    7  A    between atoms: N11_33  and  S1_35 
REMARK    8  A    between atoms: S1_35  and  N12_38 
REMARK    9  A    between atoms: N12_38  and  C14_40 
REMARK   10  A    between atoms: C18_47  and  N15_48 
ROOT
HETATM    1  C1  UNL     1      -1.593 -22.037  99.224  1.00  0.00     0.157 C 
HETATM    2  N1  UNL     1      -2.515 -22.831  98.470  1.00  0.00    -0.346 N 
HETATM    3  C2  UNL     1      -3.867 -22.718  98.578  1.00  0.00     0.133 A 
HETATM    4  C3  UNL     1      -4.450 -23.623  97.715  1.00  0.00     0.131 A 
HETATM    5  C4  UNL     1      -5.875 -23.841  97.507  1.00  0.00     0.119 C 
HETATM    6  N2  UNL     1      -7.006 -24.024  97.342  1.00  0.00    -0.190 NA
HETATM    7  N3  UNL     1      -3.440 -24.256  97.110  1.00  0.00    -0.334 N 
ATOM      8  H3  UNL     1      -3.540 -24.990  96.410  1.00  0.00     0.168 HD
HETATM    9  C5  UNL     1      -2.245 -23.766  97.579  1.00  0.00     0.109 A 
ENDROOT
BRANCH   9  10
HETATM   10  C6  UNL     1      -0.984 -24.334  97.050  1.00  0.00     0.182 C 
BRANCH  10  11
HETATM   11  C7  UNL     1      -0.039 -23.345  96.458  1.00  0.00     0.183 C 
BRANCH  11  12
HETATM   12  N4  UNL     1      -0.631 -22.475  95.464  1.00  0.00    -0.284 N 
HETATM   13  C8  UNL     1      -0.715 -21.113  95.510  1.00  0.00     0.143 A 
HETATM   14  C9  UNL     1      -1.330 -20.688  94.382  1.00  0.00     0.082 A 
HETATM   15  N9  UNL     1      -1.610 -21.833  93.671  1.00  0.00    -0.284 N 
HETATM   16  N10 UNL     1      -1.185 -22.835  94.339  1.00  0.00    -0.240 N 
ATOM     17  H9  UNL     1      -2.078 -21.874  92.765  1.00  0.00     0.188 HD
ATOM     18  H10 UNL     1      -1.268 -23.804  94.030  1.00  0.00     0.208 HD
BRANCH  14  19
HETATM   19  C10 UNL     1      -1.755 -19.380  93.899  1.00  0.00     0.053 A 
HETATM   20  C11 UNL     1      -0.849 -18.622  93.137  1.00  0.00     0.123 A 
HETATM   21  N5  UNL     1      -1.154 -17.404  92.666  1.00  0.00    -0.201 N 
HETATM   22  C12 UNL     1      -2.362 -16.861  92.917  1.00  0.00     0.677 A 
ATOM     23  H5  UNL     1      -0.468 -16.886  92.114  1.00  0.00     0.183 HD
HETATM   24  N7  UNL     1      -3.244 -17.540  93.635  1.00  0.00    -0.176 N 
HETATM   25  C13 UNL     1      -2.960 -18.808  94.141  1.00  0.00     0.128 A 
ATOM     26  H7  UNL     1      -4.157 -17.123  93.823  1.00  0.00     0.186 HD
HETATM   27  N8  UNL     1      -3.863 -19.313  94.866  1.00  0.00    -0.384 N 
ATOM     28  H82 UNL     1      -3.655 -20.241  95.235  1.00  0.00     0.157 HD
ATOM     29  H81 UNL     1      -4.770 -18.883  95.048  1.00  0.00     0.157 HD
BRANCH  22  30
HETATM   30  N6  UNL     1      -2.634 -15.671  92.446  1.00  0.00    -0.234 N 
ATOM     31  H62 UNL     1      -2.780 -14.872  93.063  1.00  0.00     0.174 HD
ATOM     32  H61 UNL     1      -2.699 -15.542  91.436  1.00  0.00     0.174 HD
ENDBRANCH  22  30
ENDBRANCH  14  19
ENDBRANCH  11  12
ENDBRANCH  10  11
BRANCH  10  33
HETATM   33  N11 UNL     1      -0.291 -25.075  98.081  1.00  0.00    -0.289 N 
ATOM     34  H11 UNL     1       0.357 -24.621  98.724  1.00  0.00     0.174 HD
BRANCH  33  35
HETATM   35  S1  UNL     1      -0.611 -26.725  98.161  1.00  0.00     0.321 S 
HETATM   36  O1  UNL     1      -0.014 -27.227  99.483  1.00  0.00    -0.182 OA
HETATM   37  O2  UNL     1      -2.085 -26.962  98.312  1.00  0.00    -0.182 OA
BRANCH  35  38
HETATM   38  N12 UNL     1       0.132 -27.652  96.943  1.00  0.00    -0.252 N 
ATOM     39  H12 UNL     1       0.707 -28.448  97.219  1.00  0.00     0.182 HD
BRANCH  38  40
HETATM   40  C14 UNL     1      -0.013 -27.368  95.572  1.00  0.00     0.134 A 
HETATM   41  C15 UNL     1       1.031 -27.403  94.676  1.00  0.00     0.091 A 
HETATM   42  C16 UNL     1       0.867 -27.125  93.314  1.00  0.00     0.133 A 
HETATM   43  C17 UNL     1       2.007 -27.184  92.441  1.00  0.00     0.118 C 
HETATM   44  N14 UNL     1      -0.351 -26.813  92.867  1.00  0.00    -0.182 N 
HETATM   45  N13 UNL     1       2.927 -27.231  91.717  1.00  0.00    -0.190 NA
HETATM   46  C18 UNL     1      -1.386 -26.771  93.716  1.00  0.00     0.678 A 
ATOM     47  H14 UNL     1      -0.494 -26.607  91.878  1.00  0.00     0.185 HD
HETATM   48  N16 UNL     1      -1.225 -27.039  95.032  1.00  0.00    -0.176 N 
ATOM     49  H16 UNL     1      -2.040 -26.995  95.646  1.00  0.00     0.186 HD
BRANCH  46  50
HETATM   50  N15 UNL     1      -2.547 -26.462  93.229  1.00  0.00    -0.234 N 
ATOM     51 2H15 UNL     1      -2.766 -25.506  92.949  1.00  0.00     0.174 HD
ATOM     52 1H15 UNL     1      -3.232 -27.210  93.135  1.00  0.00     0.174 HD
ENDBRANCH  46  50
ENDBRANCH  38  40
ENDBRANCH  35  38
ENDBRANCH  33  35
ENDBRANCH  10  33
ENDBRANCH   9  10
TORSDOF 10
ENDMDL
